REMARK  Name = ZINC64137307
REMARK  8 active torsions:
REMARK  status: ('A' for Active; 'I' for Inactive)
REMARK    1  A    between atoms: C_1  and  C_2
REMARK    2  A    between atoms: C_7  and  C_12
REMARK    3  A    between atoms: C_12  and  C_14
REMARK    4  A    between atoms: C_12  and  N_17
REMARK    5  A    between atoms: C_14  and  C_15
REMARK    6  A    between atoms: C_14  and  C_16
REMARK    7  A    between atoms: C_18  and  C_20
REMARK    8  A    between atoms: N_22  and  C_25
REMARK                            x       y       z     vdW  Elec       q    Type
REMARK                         _______ _______ _______ _____ _____    ______ ____
ROOT
ATOM      1  N   UNL     1       2.348  -4.374   1.937  0.00  0.00    -0.303 N 
ATOM      2  C   UNL     1       3.460  -4.565   2.674  0.00  0.00    +0.261 C 
ATOM      3  O   UNL     1       3.481  -5.429   3.532  0.00  0.00    -0.269 OA
ATOM      4  H   UNL     1       2.332  -3.686   1.254  0.00  0.00    +0.149 HD
ENDROOT
BRANCH   2   5
ATOM      5  C   UNL     1       4.641  -3.736   2.443  0.00  0.00    +0.120 C 
ATOM      6  C   UNL     1       5.817  -3.821   3.101  0.00  0.00    +0.119 C 
ATOM      7  N   UNL     1       6.669  -2.872   2.592  0.00  0.00    -0.253 N 
ATOM      8  N   UNL     1       6.021  -2.184   1.607  0.00  0.00    -0.160 NA
ATOM      9  N   UNL     1       4.762  -2.702   1.488  0.00  0.00    -0.259 N 
ATOM     10  H   UNL     1       5.992  -1.197   1.814  0.00  0.00    +0.168 HD
ATOM     11  H   UNL     1       4.077  -2.413   0.865  0.00  0.00    +0.168 HD
BRANCH   7  12
ATOM     12  C   UNL     1       8.046  -2.636   3.034  0.00  0.00    +0.092 C 
ATOM     13  C   UNL     1       8.177  -1.201   3.548  0.00  0.00    +0.024 C 
ATOM     14  C   UNL     1       9.615  -0.954   4.010  0.00  0.00    +0.002 C 
ATOM     15  C   UNL     1      10.571  -1.164   2.834  0.00  0.00    +0.000 C 
ATOM     16  C   UNL     1      10.440  -2.599   2.321  0.00  0.00    +0.002 C 
ATOM     17  C   UNL     1       9.002  -2.846   1.859  0.00  0.00    +0.024 C 
ENDBRANCH   7  12
ENDBRANCH   2   5
BRANCH   1  18
ATOM     18  C   UNL     1       1.165  -5.206   2.168  0.00  0.00    +0.118 C 
BRANCH  18  25
ATOM     19  C   UNL     1      -0.197   1.466   0.521  0.00  0.00    +0.044 C 
ATOM     20  C   UNL     1      -0.142  -0.037   0.427  0.00  0.00    -0.048 A 
ATOM     21  C   UNL     1      -0.038  -0.631  -0.844  0.00  0.00    +0.005 A 
ATOM     22  C   UNL     1       0.016  -1.966  -1.020  0.00  0.00    +0.027 A 
ATOM     23  C   UNL     1      -0.033  -2.855   0.150  0.00  0.00    +0.060 A 
ATOM     24  N   UNL     1      -0.000  -4.149   0.280  0.00  0.00    -0.362 N 
ATOM     25  C   UNL     1      -0.086  -4.450   1.715  0.00  0.00    +0.195 C 
ATOM     26  N   UNL     1      -0.173  -3.157   2.405  0.00  0.00    -0.362 N 
ATOM     27  C   UNL     1      -0.142  -2.226   1.495  0.00  0.00    +0.060 A 
ATOM     28  C   UNL     1      -0.189  -0.759   1.565  0.00  0.00    +0.030 A 
ATOM     29  H   UNL     1       0.068  -4.797  -0.439  0.00  0.00    +0.162 HD
ATOM     30  H   UNL     1      -0.241  -3.021   3.362  0.00  0.00    +0.162 HD
ENDBRANCH  18  25
BRANCH  18  31
ATOM     31  C   UNL     1       1.291  -6.506   1.373  0.00  0.00    +0.007 C 
ATOM     32  C   UNL     1       2.494  -7.302   1.884  0.00  0.00    +0.009 C 
ATOM     33  C   UNL     1       0.018  -7.337   1.547  0.00  0.00    +0.009 C 
ENDBRANCH  18  31
ENDBRANCH   1  18
TORSDOF 5
