REMARK  Name = ZINC19143586
REMARK  10 active torsions:
REMARK  status: ('A' for Active; 'I' for Inactive)
REMARK    1  A    between atoms: C_1  and  O_2
REMARK    2  A    between atoms: O_2  and  C_3
REMARK    3  A    between atoms: C_5  and  C_11
REMARK    4  A    between atoms: C_7  and  O_9
REMARK    5  A    between atoms: O_9  and  C_10
REMARK    6  A    between atoms: C_11  and  N_12
REMARK    7  A    between atoms: C_18  and  C_20
REMARK    8  A    between atoms: C_20  and  C_21
REMARK    9  A    between atoms: N_26  and  C_29
REMARK   10  A    between atoms: C_29  and  C_30
REMARK                            x       y       z     vdW  Elec       q    Type
REMARK                         _______ _______ _______ _____ _____    ______ ____
ROOT
ATOM      1  N   UNL     1      -2.543  -4.862   1.881  0.00  0.00    -0.285 NA
ATOM      2  C   UNL     1      -3.754  -4.590   2.671  0.00  0.00    +0.104 C 
ATOM      3  C   UNL     1      -3.614  -5.272   4.034  0.00  0.00    +0.119 C 
ATOM      4  N   UNL     1      -3.230  -6.670   3.857  0.00  0.00    -0.313 N 
ATOM      5  C   UNL     1      -2.703  -7.140   2.722  0.00  0.00    +0.231 C 
ATOM      6  O   UNL     1      -2.383  -8.309   2.671  0.00  0.00    -0.274 OA
ATOM      7  C   UNL     1      -2.489  -6.282   1.507  0.00  0.00    +0.152 C 
ATOM      8  H   UNL     1      -3.363  -7.284   4.596  0.00  0.00    +0.149 HD
ENDROOT
BRANCH   1   9
ATOM      9  C   UNL     1      -2.487  -4.003   0.691  0.00  0.00    +0.120 C 
BRANCH   9  12
ATOM     10  C   UNL     1      -0.523  -0.891   1.555  0.00  0.00    +0.124 A 
ATOM     11  C   UNL     1      -0.833  -2.189   1.174  0.00  0.00    +0.050 A 
ATOM     12  C   UNL     1      -2.153  -2.592   1.105  0.00  0.00    -0.026 A 
ATOM     13  C   UNL     1      -3.167  -1.706   1.414  0.00  0.00    +0.050 A 
ATOM     14  C   UNL     1      -2.861  -0.407   1.795  0.00  0.00    +0.124 A 
ATOM     15  C   UNL     1      -1.538  -0.001   1.871  0.00  0.00    +0.091 A 
BRANCH  10  17
ATOM     16  C   UNL     1       1.021   0.855   2.027  0.00  0.00    +0.277 C 
ATOM     17  O   UNL     1       0.775  -0.494   1.622  0.00  0.00    -0.495 OA
ENDBRANCH  10  17
BRANCH  14  18
ATOM     18  O   UNL     1      -3.859   0.465   2.099  0.00  0.00    -0.495 OA
ATOM     19  C   UNL     1      -3.471   1.785   2.484  0.00  0.00    +0.277 C 
ENDBRANCH  14  18
ENDBRANCH   9  12
ENDBRANCH   1   9
BRANCH   7  20
ATOM     20  C   UNL     1      -1.122  -6.596   0.897  0.00  0.00    +0.124 C 
BRANCH  20  21
ATOM     21  C   UNL     1      -0.038  -6.230   1.879  0.00  0.00    +0.217 C 
ATOM     22  O   UNL     1      -0.330  -5.738   2.948  0.00  0.00    -0.276 OA
ATOM     23  N   UNL     1       1.255  -6.449   1.568  0.00  0.00    -0.305 N 
ATOM     24  C   UNL     1       1.632  -7.039   0.274  0.00  0.00    +0.089 C 
ATOM     25  C   UNL     1       2.584  -8.211   0.533  0.00  0.00    -0.060 C 
ATOM     26  N   UNL     1       3.719  -7.749   1.343  0.00  0.00    +0.382 N 
ATOM     27  C   UNL     1       3.248  -7.322   2.666  0.00  0.00    -0.060 C 
ATOM     28  C   UNL     1       2.329  -6.100   2.510  0.00  0.00    +0.089 C 
ATOM     29  H   UNL     1       4.166  -6.972   0.879  0.00  0.00    -0.082 HD
BRANCH  26  30
ATOM     30  C   UNL     1       4.685  -8.844   1.498  0.00  0.00    -0.075 C 
BRANCH  30  31
ATOM     31  C   UNL     1       5.925  -8.330   2.234  0.00  0.00    -0.028 C 
ATOM     32  C   UNL     1       7.253  -8.344   1.475  0.00  0.00    +0.002 C 
ATOM     33  C   UNL     1       7.003  -9.351   2.600  0.00  0.00    +0.002 C 
ENDBRANCH  30  31
ENDBRANCH  26  30
ENDBRANCH  20  21
ENDBRANCH   7  20
TORSDOF 8
