REMARK  Name = ZINC14466850
REMARK  4 active torsions:
REMARK  status: ('A' for Active; 'I' for Inactive)
REMARK    1  A    between atoms: C_1  and  C_2
REMARK    2  A    between atoms: N_4  and  C_5
REMARK    3  A    between atoms: C_18  and  C_21
REMARK    4  A    between atoms: C_26  and  O_27
REMARK                            x       y       z     vdW  Elec       q    Type
REMARK                         _______ _______ _______ _____ _____    ______ ____
ROOT
ATOM      1  C   UNL     1      -6.393   1.710  -0.648  0.00  0.00    +0.034 A 
ATOM      2  C   UNL     1      -6.043   0.715   0.255  0.00  0.00    +0.025 A 
ATOM      3  C   UNL     1      -4.730   0.574   0.654  0.00  0.00    +0.025 A 
ATOM      4  C   UNL     1      -3.748   1.422   0.156  0.00  0.00    +0.031 A 
ATOM      5  C   UNL     1      -4.107   2.431  -0.744  0.00  0.00    -0.018 A 
ATOM      6  C   UNL     1      -5.419   2.566  -1.144  0.00  0.00    +0.029 A 
ATOM      7  C   UNL     1      -3.034   3.325  -1.231  0.00  0.00    +0.049 C 
ATOM      8  C   UNL     1      -3.127   4.021  -2.540  0.00  0.00    -0.023 C 
ATOM      9  C   UNL     1      -1.902   4.166  -3.031  0.00  0.00    -0.030 C 
ATOM     10  C   UNL     1      -0.880   3.535  -2.083  0.00  0.00    +0.033 C 
ATOM     11  C   UNL     1      -1.733   2.478  -1.369  0.00  0.00    +0.029 C 
ATOM     12  C   UNL     1      -1.337   2.112   0.051  0.00  0.00    +0.109 C 
ATOM     13  N   UNL     1      -2.416   1.233   0.551  0.00  0.00    -0.336 N 
ATOM     14  H   UNL     1      -2.198   0.513   1.163  0.00  0.00    +0.147 HD
ENDROOT
BRANCH  12  15
ATOM     15  C   UNL     1      -0.023   1.375   0.050  0.00  0.00    +0.017 A 
ATOM     16  C   UNL     1      -0.005  -0.007   0.049  0.00  0.00    +0.029 A 
ATOM     17  C   UNL     1       1.201  -0.685   0.043  0.00  0.00    +0.043 A 
ATOM     18  C   UNL     1       2.392   0.019   0.039  0.00  0.00    +0.043 A 
ATOM     19  C   UNL     1       2.379   1.401   0.040  0.00  0.00    +0.084 A 
ATOM     20  C   UNL     1       1.170   2.083   0.045  0.00  0.00    +0.140 A 
ATOM     21 CL   UNL     1       3.874   2.284   0.034  0.00  0.00    -0.080 Cl
ATOM     22 CL   UNL     1       1.219  -2.421   0.042  0.00  0.00    -0.083 Cl
BRANCH  20  23
ATOM     23  O   UNL     1       1.155   3.442   0.046  0.00  0.00    -0.505 OA
ATOM     24  H   UNL     1       1.154   3.835   0.930  0.00  0.00    +0.292 HD
ENDBRANCH  20  23
ENDBRANCH  12  15
BRANCH   1  28
ATOM     25  C   UNL     1      -9.903   0.899  -1.748  0.00  0.00    +0.109 C 
ATOM     26  C   UNL     1      -8.503   0.759  -1.208  0.00  0.00    +0.214 C 
ATOM     27  O   UNL     1      -8.075  -0.336  -0.907  0.00  0.00    -0.276 OA
ATOM     28  N   UNL     1      -7.726   1.850  -1.058  0.00  0.00    -0.286 N 
ATOM     29  H   UNL     1      -8.089   2.732  -1.234  0.00  0.00    +0.155 HD
ENDBRANCH   1  28
TORSDOF 3
