REMARK  Name = ZINC22779705
REMARK  8 active torsions:
REMARK  status: ('A' for Active; 'I' for Inactive)
REMARK    1  A    between atoms: C_1  and  C_2
REMARK    2  A    between atoms: C_2  and  C_3
REMARK    3  A    between atoms: C_3  and  C_30
REMARK    4  A    between atoms: N_6  and  N_10
REMARK    5  A    between atoms: C_11  and  C_13
REMARK    6  A    between atoms: C_13  and  N_14
REMARK    7  A    between atoms: N_17  and  C_20
REMARK    8  A    between atoms: C_20  and  C_21
REMARK                            x       y       z     vdW  Elec       q    Type
REMARK                         _______ _______ _______ _____ _____    ______ ____
ROOT
ATOM      1  N   UNL     1      -4.167   1.333  -1.528  0.00  0.00    -0.223 N 
ATOM      2  C   UNL     1      -5.410   0.825  -1.635  0.00  0.00    +0.244 C 
ATOM      3  O   UNL     1      -5.705  -0.187  -1.036  0.00  0.00    -0.273 OA
ATOM      4  H   UNL     1      -3.931   2.143  -2.007  0.00  0.00    +0.174 HD
ENDROOT
BRANCH   1   8
ATOM      5  C   UNL     1      -1.433  -0.534   0.013  0.00  0.00    +0.139 C 
ATOM      6  C   UNL     1      -2.192  -0.043  -1.205  0.00  0.00    +0.268 C 
ATOM      7  O   UNL     1      -1.933  -0.267  -2.368  0.00  0.00    -0.271 OA
ATOM      8  N   UNL     1      -3.214   0.692  -0.725  0.00  0.00    -0.137 N 
ATOM      9  C   UNL     1      -3.207   0.734   0.612  0.00  0.00    +0.327 C 
ATOM     10  O   UNL     1      -4.031   1.335   1.273  0.00  0.00    -0.251 OA
ATOM     11  N   UNL     1      -2.187   0.036   1.143  0.00  0.00    -0.280 N 
ATOM     12  H   UNL     1      -1.987  -0.072   2.086  0.00  0.00    +0.152 HD
BRANCH   5  13
ATOM     13  C   UNL     1      -1.441  -2.039   0.076  0.00  0.00    -0.015 A 
ATOM     14  C   UNL     1      -0.400  -2.759  -0.480  0.00  0.00    +0.006 A 
ATOM     15  C   UNL     1      -0.407  -4.141  -0.423  0.00  0.00    +0.000 A 
ATOM     16  C   UNL     1      -1.454  -4.802   0.191  0.00  0.00    +0.000 A 
ATOM     17  C   UNL     1      -2.495  -4.082   0.748  0.00  0.00    +0.000 A 
ATOM     18  C   UNL     1      -2.486  -2.700   0.694  0.00  0.00    +0.006 A 
ENDBRANCH   5  13
BRANCH   5  20
ATOM     19  C   UNL     1      -0.019   1.526   0.010  0.00  0.00    +0.007 C 
ATOM     20  C   UNL     1       0.002  -0.004   0.002  0.00  0.00    +0.037 C 
ENDBRANCH   5  20
ENDBRANCH   1   8
BRANCH   2  21
ATOM     21  C   UNL     1      -6.435   1.516  -2.498  0.00  0.00    +0.182 C 
BRANCH  21  22
ATOM     22  N   UNL     1      -7.700   0.771  -2.447  0.00  0.00    -0.298 NA
ATOM     23  C   UNL     1      -7.558  -0.552  -3.072  0.00  0.00    +0.066 C 
ATOM     24  C   UNL     1      -8.877  -1.317  -2.946  0.00  0.00    -0.063 C 
ATOM     25  N   UNL     1      -9.948  -0.558  -3.604  0.00  0.00    +0.384 N 
ATOM     26  C   UNL     1     -10.095   0.751  -2.954  0.00  0.00    -0.063 C 
ATOM     27  C   UNL     1      -8.785   1.533  -3.080  0.00  0.00    +0.066 C 
ATOM     28  H   UNL     1      -9.717  -0.425  -4.578  0.00  0.00    -0.081 HD
BRANCH  25  29
ATOM     29  C   UNL     1     -11.211  -1.301  -3.498  0.00  0.00    -0.043 C 
BRANCH  29  30
ATOM     30  C   UNL     1     -12.283  -0.584  -4.278  0.00  0.00    -0.063 A 
ATOM     31  C   UNL     1     -13.061   0.380  -3.663  0.00  0.00    +0.005 A 
ATOM     32  C   UNL     1     -14.041   1.042  -4.373  0.00  0.00    +0.046 A 
ATOM     33  C   UNL     1     -14.255   0.746  -5.717  0.00  0.00    +0.124 A 
ATOM     34  C   UNL     1     -13.472  -0.229  -6.322  0.00  0.00    -0.002 A 
ATOM     35  C   UNL     1     -12.488  -0.883  -5.613  0.00  0.00    +0.009 A 
ATOM     36  C   UNL     1     -13.943  -0.350  -7.758  0.00  0.00    +0.080 C 
ATOM     37  C   UNL     1     -15.305   0.382  -7.711  0.00  0.00    +0.234 C 
ATOM     38  O   UNL     1     -15.146   1.278  -6.598  0.00  0.00    -0.491 OA
ENDBRANCH  29  30
ENDBRANCH  25  29
ENDBRANCH  21  22
ENDBRANCH   2  21
TORSDOF 7
