REMARK  Name = ZINC35231785
REMARK  10 active torsions:
REMARK  status: ('A' for Active; 'I' for Inactive)
REMARK    1  A    between atoms: C_1  and  C_2
REMARK    2  A    between atoms: C_2  and  C_3
REMARK    3  A    between atoms: C_3  and  C_4
REMARK    4  A    between atoms: C_4  and  N_5
REMARK    5  A    between atoms: N_5  and  C_6
REMARK    6  A    between atoms: C_6  and  C_7
REMARK    7  A    between atoms: C_21  and  C_23
REMARK    8  A    between atoms: C_26  and  C_29
REMARK    9  A    between atoms: N_32  and  C_33
REMARK   10  A    between atoms: C_36  and  C_39
REMARK                            x       y       z     vdW  Elec       q    Type
REMARK                         _______ _______ _______ _____ _____    ______ ____
ROOT
ATOM      1  C   UNL     1       3.033  -4.627  -1.667  0.00  0.00    +0.238 C 
ATOM      2  O   UNL     1       2.978  -3.464  -2.009  0.00  0.00    -0.273 OA
ATOM      3  N   UNL     1       4.226  -5.199  -1.413  0.00  0.00    -0.255 N 
ATOM      4  C   UNL     1       5.395  -4.426  -1.448  0.00  0.00    +0.061 A 
ATOM      5  C   UNL     1       5.481  -3.317  -2.275  0.00  0.00    +0.025 A 
ATOM      6  C   UNL     1       6.636  -2.558  -2.292  0.00  0.00    +0.002 A 
ATOM      7  C   UNL     1       7.709  -2.896  -1.487  0.00  0.00    +0.002 A 
ATOM      8  C   UNL     1       7.635  -4.004  -0.661  0.00  0.00    +0.028 A 
ATOM      9  C   UNL     1       6.486  -4.770  -0.643  0.00  0.00    +0.068 A 
ATOM     10  N   UNL     1       6.374  -5.916   0.157  0.00  0.00    -0.316 N 
ATOM     11  C   UNL     1       7.153  -6.349   1.177  0.00  0.00    +0.092 A 
ATOM     12  C   UNL     1       6.633  -7.508   1.642  0.00  0.00    +0.020 A 
ATOM     13  C   UNL     1       5.485  -7.799   0.872  0.00  0.00    +0.025 A 
ATOM     14  C   UNL     1       5.348  -6.818  -0.027  0.00  0.00    +0.049 A 
ATOM     15  C   UNL     1       4.300  -6.634  -1.092  0.00  0.00    +0.159 C 
ENDROOT
BRANCH  15  16
ATOM     16  C   UNL     1       4.687  -7.413  -2.323  0.00  0.00    -0.021 A 
ATOM     17  C   UNL     1       5.648  -6.914  -3.183  0.00  0.00    +0.006 A 
ATOM     18  C   UNL     1       6.003  -7.628  -4.312  0.00  0.00    +0.004 A 
ATOM     19  C   UNL     1       5.397  -8.842  -4.581  0.00  0.00    -0.050 A 
ATOM     20  C   UNL     1       4.437  -9.341  -3.721  0.00  0.00    +0.004 A 
ATOM     21  C   UNL     1       4.085  -8.629  -2.590  0.00  0.00    +0.006 A 
ATOM     22  C   UNL     1       5.784  -9.620  -5.812  0.00  0.00    +0.044 C 
ENDBRANCH  15  16
BRANCH   1  23
ATOM     23  C   UNL     1       1.766  -5.430  -1.525  0.00  0.00    +0.205 C 
BRANCH  23  24
ATOM     24  N   UNL     1       0.619  -4.606  -1.913  0.00  0.00    -0.277 N 
ATOM     25  C   UNL     1      -0.018  -3.860  -0.988  0.00  0.00    +0.307 C 
ATOM     26  O   UNL     1       0.359  -3.872   0.168  0.00  0.00    -0.252 OA
ATOM     27  N   UNL     1      -1.074  -3.102  -1.345  0.00  0.00    -0.269 N 
ATOM     28  H   UNL     1      -1.422  -3.150  -2.248  0.00  0.00    +0.156 HD
BRANCH  27  29
ATOM     29  C   UNL     1      -1.665  -2.247  -0.413  0.00  0.00    +0.035 A 
ATOM     30  C   UNL     1      -0.882  -1.629   0.556  0.00  0.00    +0.024 A 
ATOM     31  C   UNL     1      -1.462  -0.785   1.477  0.00  0.00    +0.020 A 
ATOM     32  C   UNL     1      -2.839  -0.549   1.436  0.00  0.00    +0.052 A 
ATOM     33  C   UNL     1      -3.623  -1.172   0.460  0.00  0.00    +0.020 A 
ATOM     34  C   UNL     1      -3.035  -2.011  -0.461  0.00  0.00    +0.024 A 
BRANCH  32  35
ATOM     35  C   UNL     1      -3.446   0.327   2.392  0.00  0.00    +0.099 C 
ATOM     36  N   UNL     1      -3.928   1.023   3.150  0.00  0.00    -0.191 NA
ENDBRANCH  32  35
ENDBRANCH  27  29
BRANCH  24  37
ATOM     37  C   UNL     1       0.164  -4.592  -3.305  0.00  0.00    +0.110 C 
BRANCH  37  38
ATOM     38  C   UNL     1      -0.881  -5.690  -3.511  0.00  0.00    +0.019 C 
BRANCH  38  40
ATOM     39  C   UNL     1      -2.402  -6.774  -5.172  0.00  0.00    +0.004 C 
ATOM     40  C   UNL     1      -1.357  -5.676  -4.965  0.00  0.00    -0.002 C 
ENDBRANCH  38  40
ENDBRANCH  37  38
ENDBRANCH  24  37
ENDBRANCH  23  24
ENDBRANCH   1  23
TORSDOF 8
