REMARK  Name = ZINC50322680
REMARK  5 active torsions:
REMARK  status: ('A' for Active; 'I' for Inactive)
REMARK    1  A    between atoms: C_1  and  C_2
REMARK    2  A    between atoms: C_2  and  C_3
REMARK    3  A    between atoms: C_3  and  C_4
REMARK    4  A    between atoms: C_5  and  N_24
REMARK    5  A    between atoms: C_6  and  C_10
REMARK                            x       y       z     vdW  Elec       q    Type
REMARK                         _______ _______ _______ _____ _____    ______ ____
ROOT
ATOM      1  C   UNL     1      -1.400  -2.041   0.001  0.00  0.00    +0.057 A 
ATOM      2  C   UNL     1      -1.308  -2.853   1.087  0.00  0.00    +0.078 A 
ATOM      3  C   UNL     1      -1.321  -4.175   0.573  0.00  0.00    +0.168 A 
ATOM      4  N   UNL     1      -1.416  -4.079  -0.740  0.00  0.00    -0.167 NA
ATOM      5  N   UNL     1      -1.469  -2.845  -1.093  0.00  0.00    -0.279 N 
ATOM      6  H   UNL     1      -1.544  -2.531  -2.007  0.00  0.00    +0.189 HD
ENDROOT
BRANCH   3   7
ATOM      7  C   UNL     1      -1.242  -5.422   1.356  0.00  0.00    +0.269 C 
ATOM      8  O   UNL     1      -1.047  -5.375   2.556  0.00  0.00    -0.268 OA
ATOM      9  N   UNL     1      -1.384  -6.614   0.743  0.00  0.00    -0.288 N 
ATOM     10  C   UNL     1      -1.516  -6.707  -0.720  0.00  0.00    +0.136 C 
ATOM     11  C   UNL     1      -2.743  -7.564  -1.048  0.00  0.00    +0.179 C 
ATOM     12  O   UNL     1      -2.664  -8.800  -0.332  0.00  0.00    -0.373 OA
ATOM     13  C   UNL     1      -2.662  -8.649   1.087  0.00  0.00    +0.139 C 
ATOM     14  C   UNL     1      -1.408  -7.871   1.514  0.00  0.00    +0.105 C 
ATOM     15  C   UNL     1      -0.155  -8.676   1.159  0.00  0.00    +0.025 C 
ATOM     16  C   UNL     1      -0.192 -10.030   1.867  0.00  0.00    +0.002 C 
ATOM     17  C   UNL     1      -1.427 -10.808   1.407  0.00  0.00    +0.003 C 
ATOM     18  C   UNL     1      -2.682 -10.014   1.769  0.00  0.00    +0.033 C 
ENDBRANCH   3   7
BRANCH   2  19
ATOM     19  N   UNL     1      -1.218  -2.466   2.433  0.00  0.00    -0.355 N 
ATOM     20  H   UNL     1      -1.218  -1.525   2.667  0.00  0.00    +0.142 HD
ATOM     21  H   UNL     1      -1.157  -3.140   3.128  0.00  0.00    +0.142 HD
ENDBRANCH   2  19
BRANCH   1  22
ATOM     22  C   UNL     1      -1.427  -0.534   0.009  0.00  0.00    +0.056 C 
BRANCH  22  24
ATOM     23  C   UNL     1      -0.022   1.531   0.036  0.00  0.00    +0.004 C 
ATOM     24  C   UNL     1       0.006   0.001   0.028  0.00  0.00    +0.003 C 
ENDBRANCH  22  24
ENDBRANCH   1  22
TORSDOF 4
