REMARK  Name = ZINC63373911
REMARK  4 active torsions:
REMARK  status: ('A' for Active; 'I' for Inactive)
REMARK    1  A    between atoms: C_4  and  N_7
REMARK    2  A    between atoms: C_8  and  O_38
REMARK    3  A    between atoms: C_10  and  C_23
REMARK    4  A    between atoms: N_14  and  C_17
REMARK                            x       y       z     vdW  Elec       q    Type
REMARK                         _______ _______ _______ _____ _____    ______ ____
ROOT
ATOM      1  N   UNL     1       3.615  -0.628  -0.100  0.00  0.00    -0.228 N 
ATOM      2  C   UNL     1       3.616  -2.083   0.063  0.00  0.00    +0.224 C 
ATOM      3  C   UNL     1       4.766  -2.687  -0.747  0.00  0.00    +0.142 C 
ATOM      4  C   UNL     1       6.024  -1.897  -0.487  0.00  0.00    +0.236 C 
ATOM      5  O   UNL     1       7.099  -2.458  -0.470  0.00  0.00    -0.274 OA
ATOM      6  N   UNL     1       5.953  -0.571  -0.276  0.00  0.00    -0.193 N 
ATOM      7  C   UNL     1       4.766   0.055  -0.208  0.00  0.00    +0.322 C 
ATOM      8  O   UNL     1       4.734   1.270  -0.243  0.00  0.00    -0.251 OA
ENDROOT
BRANCH   3   9
ATOM      9  C   UNL     1       4.425  -2.632  -2.238  0.00  0.00    +0.096 C 
ATOM     10  C   UNL     1       5.521  -3.335  -3.043  0.00  0.00    +0.124 C 
ATOM     11  C   UNL     1       5.195  -3.087  -4.512  0.00  0.00    -0.036 C 
ATOM     12  C   UNL     1       5.153  -4.278  -5.093  0.00  0.00    -0.001 A 
ATOM     13  C   UNL     1       4.970  -4.679  -6.497  0.00  0.00    +0.010 A 
ATOM     14  C   UNL     1       4.965  -6.016  -6.743  0.00  0.00    +0.001 A 
ATOM     15  C   UNL     1       5.120  -6.982  -5.745  0.00  0.00    +0.002 A 
ATOM     16  C   UNL     1       5.299  -6.704  -4.429  0.00  0.00    +0.026 A 
ATOM     17  C   UNL     1       5.329  -5.331  -4.047  0.00  0.00    +0.043 A 
ATOM     18  N   UNL     1       5.512  -4.785  -2.860  0.00  0.00    -0.376 N 
ATOM     19  C   UNL     1       4.901  -1.702  -5.035  0.00  0.00    +0.048 C 
ATOM     20  C   UNL     1       3.884  -1.081  -4.059  0.00  0.00    +0.085 C 
ATOM     21  N   UNL     1       4.352  -1.230  -2.679  0.00  0.00    -0.310 NA
ATOM     22  H   UNL     1       3.792  -0.681  -2.045  0.00  0.00    +0.122 HD
ATOM     23  H   UNL     1       5.617  -5.251  -2.016  0.00  0.00    +0.160 HD
ENDBRANCH   3   9
BRANCH   1  27
ATOM     24  C   UNL     1      -0.011   1.418  -0.244  0.00  0.00    +0.000 A 
ATOM     25  C   UNL     1       0.326   0.539  -1.257  0.00  0.00    +0.002 A 
ATOM     26  C   UNL     1       1.528  -0.141  -1.212  0.00  0.00    +0.023 A 
ATOM     27  C   UNL     1       2.398   0.059  -0.149  0.00  0.00    +0.040 A 
ATOM     28  C   UNL     1       2.057   0.943   0.867  0.00  0.00    +0.023 A 
ATOM     29  C   UNL     1       0.854   1.620   0.816  0.00  0.00    +0.002 A 
ENDBRANCH   1  27
BRANCH   6  30
ATOM     30  C   UNL     1       7.134   0.170  -0.128  0.00  0.00    +0.045 A 
ATOM     31  C   UNL     1       7.455   0.730   1.101  0.00  0.00    +0.024 A 
ATOM     32  C   UNL     1       8.620   1.458   1.244  0.00  0.00    +0.002 A 
ATOM     33  C   UNL     1       9.466   1.631   0.163  0.00  0.00    +0.000 A 
ATOM     34  C   UNL     1       9.149   1.074  -1.062  0.00  0.00    +0.002 A 
ATOM     35  C   UNL     1       7.989   0.339  -1.209  0.00  0.00    +0.024 A 
ENDBRANCH   6  30
BRANCH   2  36
ATOM     36  O   UNL     1       3.785  -2.408   1.444  0.00  0.00    -0.373 OA
ATOM     37  H   UNL     1       3.091  -2.057   2.018  0.00  0.00    +0.212 HD
ENDBRANCH   2  36
TORSDOF 4
