REMARK  Name = ZINC40982858
REMARK  12 active torsions:
REMARK  status: ('A' for Active; 'I' for Inactive)
REMARK    1  A    between atoms: C_1  and  C_2
REMARK    2  A    between atoms: C_2  and  C_3
REMARK    3  A    between atoms: C_3  and  S_4
REMARK    4  A    between atoms: S_4  and  C_5
REMARK    5  A    between atoms: C_10  and  C_22
REMARK    6  A    between atoms: C_12  and  C_16
REMARK    7  A    between atoms: C_13  and  C_15
REMARK    8  A    between atoms: C_16  and  O_18
REMARK    9  A    between atoms: O_18  and  C_19
REMARK   10  A    between atoms: C_19  and  C_20
REMARK   11  A    between atoms: C_19  and  C_21
REMARK   12  A    between atoms: C_23  and  C_27
REMARK                            x       y       z     vdW  Elec       q    Type
REMARK                         _______ _______ _______ _____ _____    ______ ____
ROOT
ATOM      1  C   UNL     1       1.975  -2.829  -2.550  0.00  0.00    +0.210 A 
ATOM      2  N   UNL     1       2.423  -1.916  -3.423  0.00  0.00    -0.187 NA
ATOM      3  C   UNL     1       2.822  -2.513  -4.513  0.00  0.00    +0.219 A 
ATOM      4  N   UNL     1       2.628  -3.846  -4.358  0.00  0.00    -0.219 N 
ATOM      5  N   UNL     1       2.090  -4.026  -3.085  0.00  0.00    -0.141 NA
ATOM      6  C   UNL     1       2.952  -4.834  -5.383  0.00  0.00    +0.186 C 
ATOM      7  C   UNL     1       3.780  -4.186  -6.460  0.00  0.00    +0.083 C 
ATOM      8  C   UNL     1       3.940  -2.857  -6.562  0.00  0.00    +0.020 C 
ATOM      9  N   UNL     1       3.363  -1.982  -5.676  0.00  0.00    -0.287 N 
ATOM     10  C   UNL     1       4.781  -2.308  -7.685  0.00  0.00    +0.061 C 
ATOM     11  H   UNL     1       3.334  -1.029  -5.856  0.00  0.00    +0.155 HD
ENDROOT
BRANCH   6  12
ATOM     12  C   UNL     1       1.678  -5.371  -5.984  0.00  0.00    +0.022 A 
ATOM     13  C   UNL     1       1.215  -6.645  -6.008  0.00  0.00    -0.038 A 
ATOM     14  C   UNL     1       0.005  -6.907  -6.621  0.00  0.00    +0.011 A 
ATOM     15  C   UNL     1      -0.684  -5.883  -7.182  0.00  0.00    +0.046 A 
ATOM     16  S   UNL     1       0.382  -4.492  -6.842  0.00  0.00    -0.099 S 
ATOM     17  C   UNL     1       2.009  -7.758  -5.374  0.00  0.00    +0.044 C 
ENDBRANCH   6  12
BRANCH   7  18
ATOM     18  C   UNL     1       4.420  -5.015  -7.408  0.00  0.00    +0.339 C 
ATOM     19  O   UNL     1       5.413  -5.645  -7.094  0.00  0.00    -0.245 OA
BRANCH  18  20
ATOM     20  O   UNL     1       3.930  -5.109  -8.662  0.00  0.00    -0.459 OA
BRANCH  20  21
ATOM     21  C   UNL     1       4.628  -5.966  -9.569  0.00  0.00    +0.171 C 
ATOM     22  C   UNL     1       3.642  -6.541 -10.588  0.00  0.00    +0.052 C 
ATOM     23  C   UNL     1       5.707  -5.165 -10.299  0.00  0.00    +0.052 C 
ENDBRANCH  20  21
ENDBRANCH  18  20
ENDBRANCH   7  18
BRANCH   1  24
ATOM     24  S   UNL     1       1.340  -2.484  -0.943  0.00  0.00    -0.084 S 
BRANCH  24  25
ATOM     25  C   UNL     1       1.445  -0.678  -0.809  0.00  0.00    +0.077 C 
BRANCH  25  27
ATOM     26  C   UNL     1       1.007   1.287   0.672  0.00  0.00    +0.004 C 
ATOM     27  C   UNL     1       0.918  -0.236   0.558  0.00  0.00    +0.008 C 
ENDBRANCH  25  27
ENDBRANCH  24  25
ENDBRANCH   1  24
TORSDOF 7
