REMARK  Name = ZINC45772235
REMARK  6 active torsions:
REMARK  status: ('A' for Active; 'I' for Inactive)
REMARK    1  A    between atoms: C_1  and  N_2
REMARK    2  A    between atoms: N_2  and  C_3
REMARK    3  A    between atoms: N_2  and  C_31
REMARK    4  A    between atoms: C_3  and  C_4
REMARK    5  A    between atoms: C_9  and  N_10
REMARK    6  A    between atoms: C_11  and  C_13
REMARK                            x       y       z     vdW  Elec       q    Type
REMARK                         _______ _______ _______ _____ _____    ______ ____
ROOT
ATOM      1  N   UNL     1       0.375  -2.260  -1.524  0.00  0.00    -0.285 N 
ATOM      2  C   UNL     1      -0.324  -3.169  -2.233  0.00  0.00    +0.222 C 
ATOM      3  O   UNL     1      -1.492  -2.970  -2.489  0.00  0.00    -0.275 OA
ATOM      4  H   UNL     1       1.325  -2.388  -1.374  0.00  0.00    +0.155 HD
ENDROOT
BRANCH   2   5
ATOM      5  C   UNL     1       0.347  -4.433  -2.706  0.00  0.00    +0.093 C 
ATOM      6  C   UNL     1       1.521  -4.076  -3.622  0.00  0.00    +0.016 C 
ATOM      7  C   UNL     1       2.223  -5.357  -4.077  0.00  0.00    +0.020 C 
ATOM      8  C   UNL     1       1.237  -6.221  -4.870  0.00  0.00    +0.106 C 
ATOM      9  N   UNL     1       0.041  -6.448  -4.048  0.00  0.00    -0.313 N 
ATOM     10  C   UNL     1      -0.660  -5.287  -3.483  0.00  0.00    +0.119 C 
ATOM     11  C   UNL     1      -0.416  -7.726  -3.811  0.00  0.00    +0.152 C 
ATOM     12  N   UNL     1      -1.685  -7.956  -3.691  0.00  0.00    -0.113 NA
ATOM     13  S   UNL     1      -1.827  -9.601  -3.416  0.00  0.00    +0.101 S 
ATOM     14  O   UNL     1      -2.456 -10.177  -4.553  0.00  0.00    -0.146 OA
ATOM     15  O   UNL     1      -2.297  -9.779  -2.087  0.00  0.00    -0.146 OA
ATOM     16  C   UNL     1      -0.117 -10.064  -3.452  0.00  0.00    +0.123 A 
ATOM     17  C   UNL     1       0.531  -8.845  -3.697  0.00  0.00    +0.043 A 
ATOM     18  C   UNL     1       1.931  -8.867  -3.791  0.00  0.00    +0.013 A 
ATOM     19  C   UNL     1       2.619 -10.051  -3.649  0.00  0.00    +0.001 A 
ATOM     20  C   UNL     1       1.951 -11.239  -3.412  0.00  0.00    +0.002 A 
ATOM     21  C   UNL     1       0.567 -11.235  -3.307  0.00  0.00    +0.030 A 
ENDBRANCH   2   5
BRANCH   1  27
ATOM     22  C   UNL     1       0.126  -0.606   0.217  0.00  0.00    -0.043 A 
ATOM     23  C   UNL     1      -0.509   0.512   0.724  0.00  0.00    +0.003 A 
ATOM     24  C   UNL     1      -1.541   1.103   0.018  0.00  0.00    +0.000 A 
ATOM     25  C   UNL     1      -1.940   0.578  -1.198  0.00  0.00    +0.002 A 
ATOM     26  C   UNL     1      -1.309  -0.539  -1.710  0.00  0.00    +0.023 A 
ATOM     27  C   UNL     1      -0.270  -1.132  -1.005  0.00  0.00    +0.035 A 
BRANCH  22  28
ATOM     28  C   UNL     1       1.250  -1.249   0.988  0.00  0.00    -0.041 C 
BRANCH  28  30
ATOM     29  C   UNL     1       2.701   0.628   0.635  0.00  0.00    -0.095 C 
ATOM     30  N   UNL     1       2.537  -0.817   0.427  0.00  0.00    +0.382 N 
ATOM     31  H   UNL     1       2.559  -1.019  -0.561  0.00  0.00    -0.081 HD
BRANCH  30  32
ATOM     32  C   UNL     1       3.629  -1.535   1.099  0.00  0.00    -0.069 C 
ATOM     33  C   UNL     1       4.970  -1.085   0.515  0.00  0.00    -0.015 C 
ATOM     34  C   UNL     1       6.107  -1.833   1.214  0.00  0.00    -0.002 C 
ATOM     35  C   UNL     1       5.936  -3.337   0.998  0.00  0.00    -0.000 C 
ATOM     36  C   UNL     1       4.595  -3.788   1.582  0.00  0.00    -0.002 C 
ATOM     37  C   UNL     1       3.458  -3.040   0.883  0.00  0.00    -0.015 C 
ENDBRANCH  30  32
ENDBRANCH  28  30
ENDBRANCH  22  28
ENDBRANCH   1  27
TORSDOF 5
