REMARK  Name = ZINC63746663
REMARK  5 active torsions:
REMARK  status: ('A' for Active; 'I' for Inactive)
REMARK    1  A    between atoms: C_1  and  C_2
REMARK    2  A    between atoms: C_5  and  C_32
REMARK    3  A    between atoms: C_6  and  C_24
REMARK    4  A    between atoms: C_10  and  N_12
REMARK    5  A    between atoms: N_15  and  C_16
REMARK                            x       y       z     vdW  Elec       q    Type
REMARK                         _______ _______ _______ _____ _____    ______ ____
ROOT
ATOM      1  C   UNL     1      -0.849   0.990   1.290  0.00  0.00    +0.044 C 
ATOM      2  C   UNL     1      -0.618  -0.448   0.903  0.00  0.00    -0.048 A 
ATOM      3  C   UNL     1      -0.498  -0.759  -0.408  0.00  0.00    +0.013 A 
ATOM      4  C   UNL     1      -0.281  -2.099  -0.810  0.00  0.00    +0.006 A 
ATOM      5  C   UNL     1      -0.124  -2.693  -2.050  0.00  0.00    -0.000 C 
ATOM      6  C   UNL     1       0.075  -4.168  -1.776  0.00  0.00    +0.198 C 
ATOM      7  N   UNL     1       0.015  -4.319  -0.318  0.00  0.00    -0.368 N 
ATOM      8  C   UNL     1      -0.187  -3.144   0.229  0.00  0.00    +0.065 A 
ATOM      9  C   UNL     1      -0.327  -2.727   1.632  0.00  0.00    +0.059 A 
ATOM     10  C   UNL     1      -0.529  -1.411   1.912  0.00  0.00    +0.028 A 
ATOM     11  H   UNL     1       0.109  -5.155   0.165  0.00  0.00    +0.161 HD
ENDROOT
BRANCH   6  12
ATOM     12  C   UNL     1       1.419  -4.615  -2.291  0.00  0.00    +0.243 C 
ATOM     13  O   UNL     1       2.387  -4.587  -1.561  0.00  0.00    -0.273 OA
ATOM     14  N   UNL     1       1.544  -5.045  -3.561  0.00  0.00    -0.295 N 
ATOM     15  C   UNL     1       0.415  -4.969  -4.502  0.00  0.00    +0.136 C 
ATOM     16  C   UNL     1       0.902  -4.291  -5.788  0.00  0.00    +0.179 C 
ATOM     17  O   UNL     1       2.075  -4.959  -6.257  0.00  0.00    -0.377 OA
ATOM     18  C   UNL     1       3.184  -4.896  -5.357  0.00  0.00    +0.179 C 
ATOM     19  C   UNL     1       2.816  -5.600  -4.051  0.00  0.00    +0.136 C 
ENDBRANCH   6  12
BRANCH   9  20
ATOM     20  N   UNL     1      -0.249  -3.668   2.663  0.00  0.00    -0.267 N 
ATOM     21  C   UNL     1       0.120  -3.282   3.901  0.00  0.00    +0.308 C 
ATOM     22  O   UNL     1       0.478  -2.137   4.100  0.00  0.00    -0.252 OA
ATOM     23  N   UNL     1       0.090  -4.165   4.919  0.00  0.00    -0.267 N 
ATOM     24  H   UNL     1      -0.459  -4.598   2.488  0.00  0.00    +0.156 HD
ATOM     25  H   UNL     1      -0.121  -5.096   4.747  0.00  0.00    +0.156 HD
BRANCH  23  26
ATOM     26  C   UNL     1       0.366  -3.738   6.225  0.00  0.00    +0.070 A 
ATOM     27  C   UNL     1      -0.006  -2.465   6.633  0.00  0.00    +0.029 A 
ATOM     28  C   UNL     1       0.266  -2.046   7.921  0.00  0.00    +0.040 A 
ATOM     29  C   UNL     1       0.910  -2.895   8.806  0.00  0.00    +0.126 A 
ATOM     30  C   UNL     1       1.282  -4.166   8.403  0.00  0.00    +0.078 A 
ATOM     31  C   UNL     1       1.007  -4.592   7.116  0.00  0.00    +0.147 A 
ATOM     32  F   UNL     1       1.364  -5.834   6.724  0.00  0.00    -0.203 F 
ATOM     33  F   UNL     1       1.176  -2.482  10.065  0.00  0.00    -0.205 F 
ENDBRANCH  23  26
ENDBRANCH   9  20
BRANCH   5  34
ATOM     34  C   UNL     1      -0.148  -2.032  -3.356  0.00  0.00    -0.019 A 
ATOM     35  C   UNL     1      -1.143  -2.352  -4.291  0.00  0.00    +0.008 A 
ATOM     36  C   UNL     1      -1.157  -1.725  -5.518  0.00  0.00    +0.001 A 
ATOM     37  C   UNL     1      -0.193  -0.780  -5.828  0.00  0.00    +0.000 A 
ATOM     38  C   UNL     1       0.794  -0.457  -4.911  0.00  0.00    +0.001 A 
ATOM     39  C   UNL     1       0.821  -1.071  -3.678  0.00  0.00    +0.008 A 
ENDBRANCH   5  34
TORSDOF 4
