REMARK  Name = ZINC11914273
REMARK  7 active torsions:
REMARK  status: ('A' for Active; 'I' for Inactive)
REMARK    1  A    between atoms: C_1  and  C_2
REMARK    2  A    between atoms: C_2  and  C_3
REMARK    3  A    between atoms: C_6  and  C_9
REMARK    4  A    between atoms: C_16  and  C_28
REMARK    5  A    between atoms: N_24  and  C_25
REMARK    6  A    between atoms: C_25  and  C_26
REMARK    7  A    between atoms: C_26  and  O_27
REMARK                            x       y       z     vdW  Elec       q    Type
REMARK                         _______ _______ _______ _____ _____    ______ ____
ROOT
ATOM      1  C   UNL     1      -1.332   2.114   0.020  0.00  0.00    +0.145 C 
ATOM      2  C   UNL     1      -1.643   2.639  -1.357  0.00  0.00    +0.072 A 
ATOM      3  C   UNL     1      -1.850   1.978  -2.649  0.00  0.00    +0.199 A 
ATOM      4  O   UNL     1      -1.784   0.767  -2.765  0.00  0.00    -0.287 OA
ATOM      5  C   UNL     1      -2.142   2.853  -3.801  0.00  0.00    +0.065 A 
ATOM      6  C   UNL     1      -2.355   2.330  -5.076  0.00  0.00    +0.018 A 
ATOM      7  C   UNL     1      -2.623   3.175  -6.117  0.00  0.00    -0.050 A 
ATOM      8  C   UNL     1      -2.682   4.546  -5.910  0.00  0.00    +0.007 A 
ATOM      9  C   UNL     1      -2.474   5.080  -4.657  0.00  0.00    +0.047 A 
ATOM     10  C   UNL     1      -2.201   4.240  -3.582  0.00  0.00    +0.139 A 
ATOM     11  O   UNL     1      -1.994   4.748  -2.350  0.00  0.00    -0.450 OA
ATOM     12  C   UNL     1      -1.724   3.991  -1.268  0.00  0.00    +0.199 A 
ATOM     13  C   UNL     1      -1.475   4.381   0.142  0.00  0.00    +0.283 C 
ATOM     14  O   UNL     1      -1.477   5.523   0.558  0.00  0.00    -0.267 OA
ATOM     15  N   UNL     1      -1.246   3.290   0.894  0.00  0.00    -0.282 N 
ATOM     16  C   UNL     1      -2.854   2.615  -7.497  0.00  0.00    +0.044 C 
ENDROOT
BRANCH   1  20
ATOM     17  C   UNL     1       2.396   0.029  -0.021  0.00  0.00    -0.048 A 
ATOM     18  C   UNL     1       1.208  -0.679  -0.014  0.00  0.00    +0.004 A 
ATOM     19  C   UNL     1       0.002  -0.004   0.002  0.00  0.00    +0.006 A 
ATOM     20  C   UNL     1      -0.017   1.378   0.010  0.00  0.00    -0.022 A 
ATOM     21  C   UNL     1       1.171   2.086   0.002  0.00  0.00    +0.006 A 
ATOM     22  C   UNL     1       2.377   1.411  -0.014  0.00  0.00    +0.004 A 
BRANCH  17  24
ATOM     23  C   UNL     1       4.142  -0.948  -1.486  0.00  0.00    +0.009 C 
ATOM     24  C   UNL     1       3.711  -0.707  -0.038  0.00  0.00    +0.032 C 
ENDBRANCH  17  24
ENDBRANCH   1  20
BRANCH  15  25
ATOM     25  C   UNL     1      -0.961   3.278   2.330  0.00  0.00    +0.137 C 
BRANCH  25  26
ATOM     26  C   UNL     1       0.549   3.378   2.551  0.00  0.00    +0.175 C 
BRANCH  26  27
ATOM     27  O   UNL     1       1.016   4.645   2.085  0.00  0.00    -0.393 OA
ATOM     28  H   UNL     1       1.968   4.779   2.194  0.00  0.00    +0.209 HD
ENDBRANCH  26  27
ENDBRANCH  25  26
ENDBRANCH  15  25
TORSDOF 5
