REMARK  Name = ZINC35427410
REMARK  9 active torsions:
REMARK  status: ('A' for Active; 'I' for Inactive)
REMARK    1  A    between atoms: C_1  and  C_2
REMARK    2  A    between atoms: C_2  and  N_3
REMARK    3  A    between atoms: C_17  and  C_29
REMARK    4  A    between atoms: N_23  and  C_24
REMARK    5  A    between atoms: C_24  and  C_25
REMARK    6  A    between atoms: C_25  and  C_26
REMARK    7  A    between atoms: C_26  and  C_27
REMARK    8  A    between atoms: C_26  and  C_28
REMARK    9  A    between atoms: C_32  and  C_35
REMARK                            x       y       z     vdW  Elec       q    Type
REMARK                         _______ _______ _______ _____ _____    ______ ____
ROOT
ATOM      1  N   UNL     1      -1.051  -1.031   0.185  0.00  0.00    +0.383 N 
ATOM      2  C   UNL     1      -1.125  -2.498   0.173  0.00  0.00    -0.074 C 
ATOM      3  C   UNL     1      -2.545  -2.962   0.506  0.00  0.00    +0.018 C 
ATOM      4  C   UNL     1      -3.508  -2.245  -0.438  0.00  0.00    -0.034 A 
ATOM      5  C   UNL     1      -4.828  -2.679  -0.661  0.00  0.00    +0.004 A 
ATOM      6  C   UNL     1      -5.569  -1.952  -1.541  0.00  0.00    +0.090 A 
ATOM      7  S   UNL     1      -4.493  -0.650  -2.060  0.00  0.00    -0.077 S 
ATOM      8  C   UNL     1      -3.084  -1.134  -1.098  0.00  0.00    -0.021 A 
ATOM      9  C   UNL     1      -1.738  -0.495  -1.006  0.00  0.00    -0.035 C 
ATOM     10  N   UNL     1      -6.876  -2.260  -1.900  0.00  0.00    -0.312 N 
ATOM     11  C   UNL     1      -7.979  -1.487  -2.018  0.00  0.00    +0.092 A 
ATOM     12  C   UNL     1      -9.022  -2.290  -2.329  0.00  0.00    +0.020 A 
ATOM     13  C   UNL     1      -8.529  -3.609  -2.425  0.00  0.00    +0.025 A 
ATOM     14  C   UNL     1      -7.211  -3.564  -2.183  0.00  0.00    +0.049 A 
ATOM     15  C   UNL     1      -6.196  -4.667  -2.232  0.00  0.00    +0.155 C 
ATOM     16  N   UNL     1      -5.681  -5.004  -0.883  0.00  0.00    -0.269 N 
ATOM     17  C   UNL     1      -5.434  -3.877   0.035  0.00  0.00    +0.148 C 
ATOM     18  C   UNL     1      -5.451  -6.279  -0.513  0.00  0.00    +0.303 C 
ATOM     19  O   UNL     1      -5.665  -7.186  -1.294  0.00  0.00    -0.253 OA
ATOM     20  N   UNL     1      -4.984  -6.549   0.722  0.00  0.00    -0.299 N 
ATOM     21  H   UNL     1      -4.813  -5.825   1.345  0.00  0.00    +0.150 HD
ATOM     22  H   UNL     1      -1.498  -0.678   1.018  0.00  0.00    -0.081 HD
ENDROOT
BRANCH  15  23
ATOM     23  C   UNL     1      -5.043  -4.233  -3.101  0.00  0.00    -0.021 A 
ATOM     24  C   UNL     1      -3.753  -4.610  -2.776  0.00  0.00    +0.006 A 
ATOM     25  C   UNL     1      -2.696  -4.212  -3.573  0.00  0.00    +0.004 A 
ATOM     26  C   UNL     1      -2.928  -3.439  -4.695  0.00  0.00    -0.050 A 
ATOM     27  C   UNL     1      -4.218  -3.062  -5.020  0.00  0.00    +0.004 A 
ATOM     28  C   UNL     1      -5.276  -3.464  -4.225  0.00  0.00    +0.006 A 
ATOM     29  C   UNL     1      -1.775  -3.004  -5.563  0.00  0.00    +0.044 C 
ENDBRANCH  15  23
BRANCH   1  31
ATOM     30  C   UNL     1       0.436   0.911   0.307  0.00  0.00    -0.017 C 
ATOM     31  C   UNL     1       0.356  -0.611   0.169  0.00  0.00    -0.082 C 
ENDBRANCH   1  31
BRANCH  20  32
ATOM     32  C   UNL     1      -4.733  -7.935   1.124  0.00  0.00    +0.106 C 
BRANCH  32  33
ATOM     33  C   UNL     1      -4.211  -7.963   2.561  0.00  0.00    +0.022 C 
BRANCH  33  34
ATOM     34  C   UNL     1      -3.949  -9.411   2.981  0.00  0.00    -0.016 C 
ATOM     35  C   UNL     1      -3.310  -9.432   4.371  0.00  0.00    +0.007 C 
ATOM     36  C   UNL     1      -5.272 -10.179   3.016  0.00  0.00    +0.007 C 
ENDBRANCH  33  34
ENDBRANCH  32  33
ENDBRANCH  20  32
TORSDOF 5
