REMARK  Name = ZINC09187137
REMARK  3 active torsions:
REMARK  status: ('A' for Active; 'I' for Inactive)
REMARK    1  A    between atoms: C_1  and  C_2
REMARK    2  A    between atoms: C_22  and  C_29
REMARK    3  A    between atoms: C_29  and  C_31
REMARK                            x       y       z     vdW  Elec       q    Type
REMARK                         _______ _______ _______ _____ _____    ______ ____
ROOT
ATOM      1  C   UNL     1      -3.559   5.890   3.957  0.00  0.00    +0.045 C 
ATOM      2  C   UNL     1      -3.670   4.694   3.046  0.00  0.00    -0.029 A 
ATOM      3  C   UNL     1      -4.880   4.048   2.902  0.00  0.00    +0.005 A 
ATOM      4  C   UNL     1      -4.991   2.950   2.069  0.00  0.00    +0.001 A 
ATOM      5  C   UNL     1      -3.882   2.498   1.375  0.00  0.00    +0.004 A 
ATOM      6  C   UNL     1      -2.673   3.139   1.516  0.00  0.00    -0.026 A 
ATOM      7  C   UNL     1      -2.549   4.244   2.352  0.00  0.00    +0.039 A 
ATOM      8  N   UNL     1      -1.237   4.720   2.332  0.00  0.00    -0.286 N 
ATOM      9  C   UNL     1      -0.445   3.994   1.521  0.00  0.00    +0.212 C 
ATOM     10  O   UNL     1       0.735   4.177   1.310  0.00  0.00    -0.277 OA
ATOM     11  C   UNL     1      -1.308   2.911   0.924  0.00  0.00    +0.060 C 
ATOM     12  C   UNL     1      -0.773   1.526   1.275  0.00  0.00    +0.085 C 
ATOM     13  C   UNL     1       0.124   1.546   2.477  0.00  0.00    -0.011 A 
ATOM     14  C   UNL     1       1.285   2.218   2.788  0.00  0.00    +0.006 A 
ATOM     15  C   UNL     1       1.893   2.022   4.015  0.00  0.00    +0.000 A 
ATOM     16  C   UNL     1       1.332   1.149   4.929  0.00  0.00    +0.002 A 
ATOM     17  C   UNL     1       0.170   0.471   4.623  0.00  0.00    +0.023 A 
ATOM     18  C   UNL     1      -0.449   0.663   3.390  0.00  0.00    +0.038 A 
ATOM     19  N   UNL     1      -1.612   0.104   2.856  0.00  0.00    -0.285 N 
ATOM     20  C   UNL     1      -1.872   0.560   1.615  0.00  0.00    +0.228 C 
ATOM     21  O   UNL     1      -2.810   0.251   0.911  0.00  0.00    -0.275 OA
ATOM     22  C   UNL     1      -0.013   1.086   0.008  0.00  0.00    +0.066 C 
ATOM     23  C   UNL     1      -0.873   1.726  -1.110  0.00  0.00    -0.055 C 
ATOM     24  C   UNL     1      -0.356   4.039  -0.987  0.00  0.00    -0.076 C 
ATOM     25  C   UNL     1       0.013   3.594  -2.423  0.00  0.00    -0.020 C 
ATOM     26  C   UNL     1       0.024   2.052  -2.314  0.00  0.00    -0.016 C 
ATOM     27  H   UNL     1      -0.931   5.485   2.844  0.00  0.00    +0.155 HD
ATOM     28  H   UNL     1      -2.169  -0.538   3.325  0.00  0.00    +0.155 HD
ATOM     29  N   UNL     1      -1.310   3.003  -0.550  0.00  0.00    +0.395 N 
ATOM     30  H   UNL     1      -2.254   3.232  -0.883  0.00  0.00    -0.079 HD
ENDROOT
BRANCH  22  31
ATOM     31  C   UNL     1       1.388   1.642  -0.002  0.00  0.00    +0.166 C 
ATOM     32  O   UNL     1       1.614   2.704  -0.542  0.00  0.00    -0.292 OA
BRANCH  31  33
ATOM     33  C   UNL     1       2.480   0.897   0.641  0.00  0.00    +0.018 A 
ATOM     34  C   UNL     1       2.222  -0.326   1.270  0.00  0.00    +0.013 A 
ATOM     35  C   UNL     1       3.251  -1.022   1.866  0.00  0.00    +0.020 A 
ATOM     36  C   UNL     1       4.537  -0.507   1.855  0.00  0.00    +0.041 A 
ATOM     37  C   UNL     1       4.800   0.706   1.240  0.00  0.00    +0.020 A 
ATOM     38  C   UNL     1       3.781   1.410   0.634  0.00  0.00    +0.013 A 
ATOM     39 CL   UNL     1       5.827  -1.387   2.615  0.00  0.00    -0.084 Cl
ENDBRANCH  31  33
ENDBRANCH  22  31
TORSDOF 2
