REMARK  Name = ZINC20727874
REMARK  15 active torsions:
REMARK  status: ('A' for Active; 'I' for Inactive)
REMARK    1  A    between atoms: C_1  and  C_2
REMARK    2  A    between atoms: C_2  and  C_3
REMARK    3  A    between atoms: C_3  and  C_4
REMARK    4  A    between atoms: C_4  and  N_5
REMARK    5  A    between atoms: N_5  and  C_6
REMARK    6  A    between atoms: N_5  and  C_10
REMARK    7  A    between atoms: C_6  and  C_7
REMARK    8  A    between atoms: C_7  and  C_8
REMARK    9  A    between atoms: C_8  and  C_9
REMARK   10  A    between atoms: C_10  and  C_11
REMARK   11  A    between atoms: C_11  and  N_12
REMARK   12  A    between atoms: C_13  and  C_15
REMARK   13  A    between atoms: C_15  and  N_16
REMARK   14  A    between atoms: C_25  and  C_26
REMARK   15  A    between atoms: C_29  and  C_32
REMARK                            x       y       z     vdW  Elec       q    Type
REMARK                         _______ _______ _______ _____ _____    ______ ____
ROOT
ATOM      1  N   UNL     1       3.424   5.938  -3.041  0.00  0.00    -0.257 N 
ATOM      2  C   UNL     1       4.432   6.012  -2.089  0.00  0.00    +0.051 A 
ATOM      3  C   UNL     1       4.216   5.423  -0.843  0.00  0.00    +0.024 A 
ATOM      4  C   UNL     1       5.191   5.471   0.132  0.00  0.00    +0.002 A 
ATOM      5  C   UNL     1       6.397   6.103  -0.112  0.00  0.00    +0.001 A 
ATOM      6  C   UNL     1       6.631   6.681  -1.340  0.00  0.00    +0.017 A 
ATOM      7  C   UNL     1       5.654   6.642  -2.322  0.00  0.00    +0.034 A 
ATOM      8  S   UNL     1       5.949   7.403  -3.890  0.00  0.00    -0.082 S 
ATOM      9  C   UNL     1       4.868   6.470  -4.942  0.00  0.00    +0.076 C 
ATOM     10  C   UNL     1       5.219   6.123  -6.204  0.00  0.00    +0.028 C 
ATOM     11  C   UNL     1       3.561   6.091  -4.361  0.00  0.00    +0.258 C 
ATOM     12  O   UNL     1       2.603   5.918  -5.091  0.00  0.00    -0.269 OA
ENDROOT
BRANCH  10  13
ATOM     13  C   UNL     1       6.465   6.640  -6.789  0.00  0.00    -0.024 A 
ATOM     14  C   UNL     1       6.906   7.931  -6.476  0.00  0.00    +0.008 A 
ATOM     15  C   UNL     1       8.078   8.406  -7.025  0.00  0.00    +0.013 A 
ATOM     16  C   UNL     1       8.812   7.615  -7.891  0.00  0.00    +0.055 A 
ATOM     17  C   UNL     1       8.380   6.340  -8.211  0.00  0.00    +0.013 A 
ATOM     18  C   UNL     1       7.213   5.847  -7.666  0.00  0.00    +0.008 A 
BRANCH  16  19
ATOM     19  C   UNL     1      10.089   8.146  -8.491  0.00  0.00    +0.417 C 
ATOM     20  F   UNL     1       9.803   8.796  -9.697  0.00  0.00    -0.166 F 
ATOM     21  F   UNL     1      10.681   9.050  -7.603  0.00  0.00    -0.166 F 
ATOM     22  F   UNL     1      10.968   7.084  -8.731  0.00  0.00    -0.166 F 
ENDBRANCH  16  19
ENDBRANCH  10  13
BRANCH   1  23
ATOM     23  C   UNL     1       2.071   5.671  -2.546  0.00  0.00    +0.209 C 
BRANCH  23  25
ATOM     24  N   UNL     1       0.647   3.700  -2.092  0.00  0.00    -0.316 N 
ATOM     25  C   UNL     1       1.832   4.184  -2.515  0.00  0.00    +0.231 C 
ATOM     26  O   UNL     1       2.706   3.421  -2.871  0.00  0.00    -0.274 OA
ATOM     27  H   UNL     1      -0.145   4.391  -1.770  0.00  0.00    +0.149 HD
BRANCH  24  28
ATOM     28  C   UNL     1       0.415   2.254  -2.062  0.00  0.00    +0.086 C 
BRANCH  28  29
ATOM     29  C   UNL     1      -0.998   1.975  -1.546  0.00  0.00    -0.060 C 
BRANCH  29  30
ATOM     30  N   UNL     1      -1.231   0.525  -1.516  0.00  0.00    +0.381 N 
ATOM     31  H   UNL     1      -0.977   0.121  -2.507  0.00  0.00    -0.082 HD
BRANCH  30  32
ATOM     32  C   UNL     1      -0.362  -0.128  -0.527  0.00  0.00    -0.079 C 
BRANCH  32  33
ATOM     33  C   UNL     1      -0.681   0.414   0.868  0.00  0.00    -0.019 C 
BRANCH  33  35
ATOM     34  C   UNL     1      -0.079   0.294   3.290  0.00  0.00    +0.004 C 
ATOM     35  C   UNL     1       0.240  -0.247   1.895  0.00  0.00    -0.005 C 
ENDBRANCH  33  35
ENDBRANCH  32  33
ENDBRANCH  30  32
BRANCH  30  36
ATOM     36  C   UNL     1      -2.645   0.224  -1.254  0.00  0.00    -0.079 C 
BRANCH  36  37
ATOM     37  C   UNL     1      -2.912  -1.256  -1.535  0.00  0.00    -0.019 C 
BRANCH  37  38
ATOM     38  C   UNL     1      -4.372  -1.581  -1.216  0.00  0.00    -0.005 C 
ATOM     39  C   UNL     1      -4.639  -3.061  -1.497  0.00  0.00    +0.004 C 
ENDBRANCH  37  38
ENDBRANCH  36  37
ENDBRANCH  30  36
ENDBRANCH  29  30
ENDBRANCH  28  29
ENDBRANCH  24  28
ENDBRANCH  23  25
ENDBRANCH   1  23
TORSDOF 13
