REMARK  Name = ZINC46556108
REMARK  8 active torsions:
REMARK  status: ('A' for Active; 'I' for Inactive)
REMARK    1  A    between atoms: C_4  and  N_25
REMARK    2  A    between atoms: C_5  and  C_7
REMARK    3  A    between atoms: C_7  and  O_9
REMARK    4  A    between atoms: O_9  and  C_10
REMARK    5  A    between atoms: C_10  and  C_11
REMARK    6  A    between atoms: N_25  and  C_26
REMARK    7  A    between atoms: C_29  and  O_32
REMARK    8  A    between atoms: O_32  and  C_33
REMARK                            x       y       z     vdW  Elec       q    Type
REMARK                         _______ _______ _______ _____ _____    ______ ____
ROOT
ATOM      1  C   UNL     1       1.554  -2.186   0.721  0.00  0.00    +0.341 C 
ATOM      2  O   UNL     1       2.690  -2.617   0.734  0.00  0.00    -0.245 OA
ENDROOT
BRANCH   1   7
ATOM      3  C   UNL     1      -0.223   1.050   0.053  0.00  0.00    +0.001 A 
ATOM      4  C   UNL     1       0.829   1.863  -0.341  0.00  0.00    +0.002 A 
ATOM      5  C   UNL     1       2.115   1.367  -0.393  0.00  0.00    +0.024 A 
ATOM      6  C   UNL     1       2.365   0.045  -0.048  0.00  0.00    +0.045 A 
ATOM      7  C   UNL     1       1.303  -0.782   0.353  0.00  0.00    +0.080 A 
ATOM      8  C   UNL     1       0.005  -0.263   0.399  0.00  0.00    +0.017 A 
BRANCH   6   9
ATOM      9  N   UNL     1       3.659  -0.457  -0.099  0.00  0.00    -0.314 N 
ATOM     10  H   UNL     1       4.284  -0.262   0.617  0.00  0.00    +0.152 HD
BRANCH   9  11
ATOM     11  C   UNL     1       4.061  -1.245  -1.183  0.00  0.00    +0.032 A 
ATOM     12  C   UNL     1       3.165  -1.531  -2.205  0.00  0.00    +0.027 A 
ATOM     13  C   UNL     1       3.563  -2.308  -3.275  0.00  0.00    +0.047 A 
ATOM     14  C   UNL     1       4.858  -2.803  -3.329  0.00  0.00    +0.127 A 
ATOM     15  C   UNL     1       5.753  -2.519  -2.309  0.00  0.00    +0.047 A 
ATOM     16  C   UNL     1       5.359  -1.737  -1.241  0.00  0.00    +0.027 A 
BRANCH  14  17
ATOM     17  O   UNL     1       5.249  -3.569  -4.383  0.00  0.00    -0.434 OA
BRANCH  17  18
ATOM     18  C   UNL     1       6.596  -4.045  -4.374  0.00  0.00    +0.541 C 
ATOM     19  F   UNL     1       7.475  -2.958  -4.352  0.00  0.00    -0.166 F 
ATOM     20  F   UNL     1       6.803  -4.835  -3.238  0.00  0.00    -0.166 F 
ENDBRANCH  17  18
ENDBRANCH  14  17
ENDBRANCH   9  11
ENDBRANCH   6   9
ENDBRANCH   1   7
BRANCH   1  21
ATOM     21  O   UNL     1       0.523  -2.992   1.044  0.00  0.00    -0.452 OA
BRANCH  21  22
ATOM     22  C   UNL     1       0.840  -4.342   1.390  0.00  0.00    +0.328 C 
BRANCH  22  23
ATOM     23  C   UNL     1      -0.429  -5.087   1.718  0.00  0.00    +0.253 C 
ATOM     24  O   UNL     1      -1.498  -4.518   1.661  0.00  0.00    -0.272 OA
ATOM     25  N   UNL     1      -0.374  -6.385   2.075  0.00  0.00    -0.296 N 
ATOM     26  C   UNL     1       0.915  -7.086   2.155  0.00  0.00    +0.127 C 
ATOM     27  C   UNL     1       1.057  -7.693   3.556  0.00  0.00    +0.125 C 
ATOM     28  N   UNL     1      -0.173  -8.434   3.873  0.00  0.00    -0.314 N 
ATOM     29  C   UNL     1      -1.462  -7.734   3.793  0.00  0.00    +0.125 C 
ATOM     30  C   UNL     1      -1.603  -7.124   2.398  0.00  0.00    +0.127 C 
ATOM     31  C   UNL     1      -0.117  -9.773   4.242  0.00  0.00    +0.099 A 
ATOM     32  C   UNL     1       1.118 -10.382   4.444  0.00  0.00    +0.042 A 
ATOM     33  C   UNL     1       1.159 -11.715   4.810  0.00  0.00    +0.005 A 
ATOM     34  C   UNL     1      -0.040 -12.397   4.963  0.00  0.00    +0.018 A 
ATOM     35  C   UNL     1      -1.230 -11.731   4.746  0.00  0.00    +0.084 A 
ATOM     36  N   UNL     1      -1.239 -10.457   4.403  0.00  0.00    -0.350 N 
ATOM     37  H   UNL     1      -2.089 -10.011   4.260  0.00  0.00    +0.166 HD
ENDBRANCH  22  23
ENDBRANCH  21  22
ENDBRANCH   1  21
TORSDOF 8
