REMARK  Name = ZINC35688056
REMARK  8 active torsions:
REMARK  status: ('A' for Active; 'I' for Inactive)
REMARK    1  A    between atoms: C_1  and  C_2
REMARK    2  A    between atoms: C_7  and  N_8
REMARK    3  A    between atoms: N_11  and  C_12
REMARK    4  A    between atoms: C_12  and  C_13
REMARK    5  A    between atoms: C_13  and  C_14
REMARK    6  A    between atoms: C_14  and  N_15
REMARK    7  A    between atoms: N_15  and  C_16
REMARK    8  A    between atoms: N_25  and  C_26
REMARK                            x       y       z     vdW  Elec       q    Type
REMARK                         _______ _______ _______ _____ _____    ______ ____
ROOT
ATOM      1  N   UNL     1      -0.417   0.781   9.242  0.00  0.00    -0.255 N 
ATOM      2  C   UNL     1       0.746   1.169   9.803  0.00  0.00    +0.311 C 
ATOM      3  O   UNL     1       0.857   2.293  10.254  0.00  0.00    -0.252 OA
ATOM      4  N   UNL     1       1.784   0.313   9.862  0.00  0.00    -0.269 N 
ATOM      5  H   UNL     1       1.732  -0.545   9.412  0.00  0.00    +0.156 HD
ENDROOT
BRANCH   4   6
ATOM      6  C   UNL     1       2.939   0.661  10.574  0.00  0.00    +0.036 A 
ATOM      7  C   UNL     1       2.840   1.436  11.722  0.00  0.00    +0.025 A 
ATOM      8  C   UNL     1       3.980   1.778  12.423  0.00  0.00    +0.023 A 
ATOM      9  C   UNL     1       5.220   1.351  11.982  0.00  0.00    +0.059 A 
ATOM     10  C   UNL     1       5.321   0.578  10.837  0.00  0.00    +0.061 A 
ATOM     11  C   UNL     1       4.183   0.227  10.136  0.00  0.00    +0.044 A 
ATOM     12 CL   UNL     1       6.878   0.044  10.286  0.00  0.00    -0.082 Cl
ATOM     13 CL   UNL     1       6.651   1.783  12.865  0.00  0.00    -0.082 Cl
ENDBRANCH   4   6
BRANCH   1  14
ATOM     14  C   UNL     1      -1.527   1.634   9.269  0.00  0.00    +0.038 A 
ATOM     15  C   UNL     1      -1.510   2.819   8.546  0.00  0.00    +0.026 A 
ATOM     16  C   UNL     1      -2.606   3.659   8.573  0.00  0.00    +0.040 A 
ATOM     17  C   UNL     1      -3.721   3.321   9.321  0.00  0.00    +0.124 A 
ATOM     18  C   UNL     1      -3.740   2.139  10.044  0.00  0.00    +0.040 A 
ATOM     19  C   UNL     1      -2.648   1.294  10.014  0.00  0.00    +0.026 A 
ATOM     20  F   UNL     1      -4.792   4.144   9.347  0.00  0.00    -0.205 F 
ENDBRANCH   1  14
BRANCH   1  21
ATOM     21  C   UNL     1      -0.520  -0.535   8.606  0.00  0.00    +0.117 C 
BRANCH  21  22
ATOM     22  C   UNL     1      -0.143  -0.416   7.128  0.00  0.00    +0.038 C 
BRANCH  22  23
ATOM     23  C   UNL     1      -0.250  -1.790   6.463  0.00  0.00    +0.107 C 
BRANCH  23  27
ATOM     24  N   UNL     1       0.421  -2.664   2.955  0.00  0.00    -0.269 N 
ATOM     25  C   UNL     1       0.089  -2.768   4.257  0.00  0.00    +0.304 C 
ATOM     26  O   UNL     1      -0.231  -3.847   4.718  0.00  0.00    -0.253 OA
ATOM     27  N   UNL     1       0.111  -1.677   5.047  0.00  0.00    -0.299 N 
ATOM     28  H   UNL     1       0.736  -1.818   2.600  0.00  0.00    +0.156 HD
ATOM     29  H   UNL     1       0.366  -0.817   4.679  0.00  0.00    +0.150 HD
BRANCH  24  36
ATOM     30  C   UNL     1      -0.276  -2.227   0.231  0.00  0.00    +0.045 C 
ATOM     31  C   UNL     1      -0.026  -3.609   0.777  0.00  0.00    -0.029 A 
ATOM     32  C   UNL     1      -0.127  -4.710  -0.052  0.00  0.00    +0.005 A 
ATOM     33  C   UNL     1       0.102  -5.978   0.449  0.00  0.00    +0.000 A 
ATOM     34  C   UNL     1       0.433  -6.149   1.781  0.00  0.00    +0.002 A 
ATOM     35  C   UNL     1       0.536  -5.053   2.615  0.00  0.00    +0.023 A 
ATOM     36  C   UNL     1       0.312  -3.777   2.114  0.00  0.00    +0.038 A 
ENDBRANCH  24  36
ENDBRANCH  23  27
ENDBRANCH  22  23
ENDBRANCH  21  22
ENDBRANCH   1  21
TORSDOF 7
