REMARK  Name = ZINC09464155
REMARK  14 active torsions:
REMARK  status: ('A' for Active; 'I' for Inactive)
REMARK    1  A    between atoms: C_1  and  C_2
REMARK    2  A    between atoms: C_3  and  C_34
REMARK    3  A    between atoms: C_4  and  C_33
REMARK    4  A    between atoms: C_7  and  C_8
REMARK    5  A    between atoms: C_8  and  C_10
REMARK    6  A    between atoms: C_10  and  S_11
REMARK    7  A    between atoms: S_11  and  C_12
REMARK    8  A    between atoms: C_15  and  C_25
REMARK    9  A    between atoms: N_16  and  C_17
REMARK   10  A    between atoms: C_20  and  O_23
REMARK   11  A    between atoms: O_23  and  C_24
REMARK   12  A    between atoms: C_25  and  C_27
REMARK   13  A    between atoms: C_25  and  N_68
REMARK   14  A    between atoms: C_34  and  C_36
REMARK                            x       y       z     vdW  Elec       q    Type
REMARK                         _______ _______ _______ _____ _____    ______ ____
ROOT
ATOM      1  C   UNL     1      -1.235   3.113  -3.004  0.00  0.00    +0.196 A 
ATOM      2  N   UNL     1      -2.201   2.277  -2.700  0.00  0.00    -0.122 NA
ATOM      3  N   UNL     1      -1.891   1.616  -1.642  0.00  0.00    -0.135 NA
ATOM      4  C   UNL     1      -0.718   1.986  -1.210  0.00  0.00    +0.125 A 
ATOM      5  N   UNL     1      -0.259   2.957  -2.058  0.00  0.00    -0.275 N 
ENDROOT
BRANCH   5   6
ATOM      6  C   UNL     1       0.961   3.647  -1.977  0.00  0.00    +0.050 A 
ATOM      7  C   UNL     1       1.210   4.492  -0.905  0.00  0.00    +0.030 A 
ATOM      8  C   UNL     1       2.413   5.166  -0.822  0.00  0.00    +0.047 A 
ATOM      9  C   UNL     1       3.367   5.007  -1.816  0.00  0.00    +0.120 A 
ATOM     10  C   UNL     1       3.116   4.167  -2.891  0.00  0.00    +0.047 A 
ATOM     11  C   UNL     1       1.916   3.488  -2.972  0.00  0.00    +0.030 A 
BRANCH   9  12
ATOM     12  O   UNL     1       4.548   5.675  -1.738  0.00  0.00    -0.495 OA
ATOM     13  C   UNL     1       4.740   6.524  -0.604  0.00  0.00    +0.277 C 
ENDBRANCH   9  12
ENDBRANCH   5   6
BRANCH   4  14
ATOM     14  C   UNL     1      -0.004   1.448   0.003  0.00  0.00    -0.002 C 
ATOM     15  C   UNL     1      -0.678   1.979   1.270  0.00  0.00    -0.005 C 
BRANCH  14  21
ATOM     16  C   UNL     1       0.652  -0.581   1.150  0.00  0.00    -0.078 C 
ATOM     17  C   UNL     1       0.448  -2.097   1.190  0.00  0.00    -0.019 C 
ATOM     18  C   UNL     1       0.976  -2.712  -0.109  0.00  0.00    -0.004 C 
ATOM     19  C   UNL     1       0.250  -2.076  -1.298  0.00  0.00    -0.019 C 
ATOM     20  C   UNL     1       0.460  -0.561  -1.266  0.00  0.00    -0.078 C 
ATOM     21  N   UNL     1      -0.091  -0.027  -0.002  0.00  0.00    +0.386 N 
ATOM     22  H   UNL     1      -1.077  -0.302   0.074  0.00  0.00    -0.081 HD
ENDBRANCH  14  21
ENDBRANCH   4  14
BRANCH   1  23
ATOM     23  S   UNL     1      -1.205   4.229  -4.367  0.00  0.00    -0.078 S 
BRANCH  23  24
ATOM     24  C   UNL     1      -2.808   3.852  -5.117  0.00  0.00    +0.158 C 
BRANCH  24  25
ATOM     25  C   UNL     1      -3.007   4.713  -6.338  0.00  0.00    +0.190 C 
ATOM     26  O   UNL     1      -2.148   5.505  -6.668  0.00  0.00    -0.290 OA
BRANCH  25  33
ATOM     27  C   UNL     1      -3.651   6.383  -8.878  0.00  0.00    +0.047 C 
ATOM     28  C   UNL     1      -4.505   5.326  -8.227  0.00  0.00    -0.012 A 
ATOM     29  C   UNL     1      -5.778   4.888  -8.658  0.00  0.00    +0.041 A 
ATOM     30  C   UNL     1      -6.197   3.912  -7.766  0.00  0.00    +0.024 A 
ATOM     31  N   UNL     1      -5.247   3.745  -6.836  0.00  0.00    -0.355 N 
ATOM     32  H   UNL     1      -5.291   3.121  -6.095  0.00  0.00    +0.166 HD
ATOM     33  C   UNL     1      -4.195   4.599  -7.099  0.00  0.00    +0.087 A 
ATOM     34  C   UNL     1      -7.505   3.165  -7.830  0.00  0.00    +0.064 C 
BRANCH  29  35
ATOM     35  C   UNL     1      -6.518   5.376  -9.826  0.00  0.00    +0.162 C 
ATOM     36  O   UNL     1      -7.341   6.258  -9.697  0.00  0.00    -0.292 OA
ATOM     37  C   UNL     1      -6.257   4.782 -11.186  0.00  0.00    +0.091 C 
ENDBRANCH  29  35
ENDBRANCH  25  33
ENDBRANCH  24  25
ENDBRANCH  23  24
ENDBRANCH   1  23
TORSDOF 9
