REMARK  Name = ZINC36645562
REMARK  10 active torsions:
REMARK  status: ('A' for Active; 'I' for Inactive)
REMARK    1  A    between atoms: C_1  and  C_2
REMARK    2  A    between atoms: N_11  and  C_12
REMARK    3  A    between atoms: C_12  and  C_13
REMARK    4  A    between atoms: C_13  and  C_14
REMARK    5  A    between atoms: C_14  and  N_15
REMARK    6  A    between atoms: N_15  and  C_16
REMARK    7  A    between atoms: N_15  and  C_17
REMARK    8  A    between atoms: C_18  and  C_20
REMARK    9  A    between atoms: C_23  and  N_29
REMARK   10  A    between atoms: C_24  and  N_26
REMARK                            x       y       z     vdW  Elec       q    Type
REMARK                         _______ _______ _______ _____ _____    ______ ____
ROOT
ATOM      1  C   UNL     1       0.802   2.323   0.493  0.00  0.00    +0.047 C 
ATOM      2  C   UNL     1       0.720   0.834   0.275  0.00  0.00    -0.006 A 
ATOM      3  C   UNL     1       0.894   0.323  -0.986  0.00  0.00    +0.046 A 
ATOM      4  C   UNL     1       0.826  -1.041  -1.231  0.00  0.00    +0.021 A 
ATOM      5  C   UNL     1       0.576  -1.906  -0.180  0.00  0.00    +0.019 A 
ATOM      6  C   UNL     1       0.401  -1.403   1.084  0.00  0.00    +0.041 A 
ATOM      7  C   UNL     1       0.469  -0.021   1.372  0.00  0.00    +0.085 A 
ATOM      8  N   UNL     1       0.281   0.317   2.666  0.00  0.00    -0.224 NA
ATOM      9  C   UNL     1       0.054  -0.575   3.603  0.00  0.00    +0.168 A 
ATOM     10  S   UNL     1       0.071  -2.107   2.682  0.00  0.00    -0.052 S 
ATOM     11  N   UNL     1      -0.155  -0.378   4.957  0.00  0.00    -0.246 N 
ATOM     12  C   UNL     1      -0.139   0.869   5.467  0.00  0.00    +0.252 C 
ATOM     13  O   UNL     1      -0.015   1.827   4.728  0.00  0.00    -0.270 OA
ATOM     14 CL   UNL     1       1.206   1.407  -2.306  0.00  0.00    -0.083 Cl
ENDROOT
BRANCH  12  15
ATOM     15  C   UNL     1      -0.271   1.073   6.921  0.00  0.00    +0.040 A 
ATOM     16  C   UNL     1       0.375   0.209   7.812  0.00  0.00    +0.015 A 
ATOM     17  C   UNL     1       0.249   0.402   9.168  0.00  0.00    +0.026 A 
ATOM     18  C   UNL     1      -0.521   1.454   9.655  0.00  0.00    +0.060 A 
ATOM     19  C   UNL     1      -1.166   2.316   8.771  0.00  0.00    +0.148 A 
ATOM     20  C   UNL     1      -1.039   2.132   7.413  0.00  0.00    +0.047 A 
BRANCH  18  21
ATOM     21  N   UNL     1      -0.647   1.646  11.026  0.00  0.00    -0.328 N 
ATOM     22  C   UNL     1      -1.729   0.994  11.777  0.00  0.00    +0.105 C 
ATOM     23  C   UNL     1      -1.118   0.216  12.947  0.00  0.00    +0.019 C 
ATOM     24  C   UNL     1      -0.252   1.159  13.784  0.00  0.00    +0.003 C 
ATOM     25  C   UNL     1       0.887   1.709  12.923  0.00  0.00    +0.019 C 
ATOM     26  C   UNL     1       0.303   2.499  11.754  0.00  0.00    +0.105 C 
ENDBRANCH  18  21
BRANCH  19  27
ATOM     27  N   UNL     1      -1.984   3.434   9.293  0.00  0.00    +0.058 N 
ATOM     28  O   UNL     1      -2.544   4.182   8.527  0.00  0.00    -0.126 OA
ATOM     29  O   UNL     1      -2.092   3.598  10.486  0.00  0.00    -0.126 OA
ENDBRANCH  19  27
ENDBRANCH  12  15
BRANCH  11  30
ATOM     30  C   UNL     1      -0.393  -1.526   5.836  0.00  0.00    +0.114 C 
BRANCH  30  31
ATOM     31  C   UNL     1       0.919  -2.284   6.052  0.00  0.00    +0.001 C 
BRANCH  31  32
ATOM     32  C   UNL     1       0.705  -3.390   7.087  0.00  0.00    -0.078 C 
BRANCH  32  33
ATOM     33  N   UNL     1       1.964  -4.117   7.294  0.00  0.00    +0.376 N 
ATOM     34  C   UNL     1       1.791  -5.099   8.373  0.00  0.00    -0.097 C 
ATOM     35  C   UNL     1       2.338  -4.811   6.055  0.00  0.00    -0.097 C 
ATOM     36  H   UNL     1       2.692  -3.465   7.547  0.00  0.00    -0.083 HD
ENDBRANCH  32  33
ENDBRANCH  31  32
ENDBRANCH  30  31
ENDBRANCH  11  30
TORSDOF 7
