REMARK  Name = ZINC43619465
REMARK  12 active torsions:
REMARK  status: ('A' for Active; 'I' for Inactive)
REMARK    1  A    between atoms: C_1  and  C_2
REMARK    2  A    between atoms: C_2  and  C_3
REMARK    3  A    between atoms: C_2  and  C_4
REMARK    4  A    between atoms: C_4  and  C_5
REMARK    5  A    between atoms: C_5  and  C_6
REMARK    6  A    between atoms: C_6  and  C_18
REMARK    7  A    between atoms: N_9  and  C_13
REMARK    8  A    between atoms: C_13  and  C_14
REMARK    9  A    between atoms: C_14  and  N_15
REMARK   10  A    between atoms: N_15  and  C_16
REMARK   11  A    between atoms: N_15  and  C_17
REMARK   12  A    between atoms: C_24  and  C_26
REMARK                            x       y       z     vdW  Elec       q    Type
REMARK                         _______ _______ _______ _____ _____    ______ ____
ROOT
ATOM      1  C   UNL     1      -2.851  -2.587  -0.110  0.00  0.00    +0.115 C 
ATOM      2  C   UNL     1      -3.586  -2.110   1.127  0.00  0.00    +0.247 C 
ATOM      3  O   UNL     1      -3.304  -2.345   2.282  0.00  0.00    -0.273 OA
ATOM      4  N   UNL     1      -4.618  -1.370   0.675  0.00  0.00    -0.226 N 
ATOM      5  C   UNL     1      -4.636  -1.313  -0.662  0.00  0.00    +0.309 C 
ATOM      6  O   UNL     1      -5.472  -0.705  -1.301  0.00  0.00    -0.252 OA
ATOM      7  N   UNL     1      -3.626  -2.006  -1.220  0.00  0.00    -0.285 N 
ATOM      8  H   UNL     1      -3.444  -2.103  -2.167  0.00  0.00    +0.151 HD
ENDROOT
BRANCH   1   9
ATOM      9  C   UNL     1      -2.860  -4.115  -0.190  0.00  0.00    +0.024 C 
ATOM     10  C   UNL     1      -2.174  -4.562  -1.483  0.00  0.00    +0.025 C 
ATOM     11  C   UNL     1      -2.154  -6.093  -1.543  0.00  0.00    +0.108 C 
ATOM     12  N   UNL     1      -3.527  -6.590  -1.386  0.00  0.00    -0.301 N 
ATOM     13  C   UNL     1      -4.310  -6.149  -0.223  0.00  0.00    +0.108 C 
ATOM     14  C   UNL     1      -4.305  -4.618  -0.178  0.00  0.00    +0.025 C 
ATOM     15  C   UNL     1      -4.060  -7.434  -2.291  0.00  0.00    +0.219 C 
ATOM     16  O   UNL     1      -3.404  -7.791  -3.247  0.00  0.00    -0.275 OA
BRANCH  15  17
ATOM     17  C   UNL     1      -5.470  -7.936  -2.116  0.00  0.00    +0.083 C 
ATOM     18  C   UNL     1      -6.478  -6.762  -2.188  0.00  0.00    +0.021 C 
ATOM     19  C   UNL     1      -7.370  -7.117  -3.421  0.00  0.00    +0.013 C 
ATOM     20  C   UNL     1      -7.444  -8.681  -3.277  0.00  0.00    +0.016 C 
ATOM     21  C   UNL     1      -5.880  -8.853  -3.312  0.00  0.00    +0.024 C 
ATOM     22  C   UNL     1      -5.554  -8.015  -4.554  0.00  0.00    -0.027 C 
ATOM     23  C   UNL     1      -6.420  -6.987  -4.618  0.00  0.00    -0.027 C 
ENDBRANCH  15  17
ENDBRANCH   1   9
BRANCH   1  24
ATOM     24  C   UNL     1      -1.416  -2.058  -0.121  0.00  0.00    +0.036 C 
BRANCH  24  25
ATOM     25  C   UNL     1      -1.433  -0.534   0.013  0.00  0.00    +0.005 C 
BRANCH  25  27
ATOM     26  C   UNL     1      -0.019   1.526   0.010  0.00  0.00    +0.007 C 
ATOM     27  C   UNL     1       0.002  -0.004   0.002  0.00  0.00    -0.017 C 
ATOM     28  C   UNL     1       0.742  -0.511   1.242  0.00  0.00    +0.007 C 
ENDBRANCH  25  27
ENDBRANCH  24  25
ENDBRANCH   1  24
BRANCH   4  29
ATOM     29  C   UNL     1      -5.598  -0.709   1.540  0.00  0.00    +0.099 C 
BRANCH  29  30
ATOM     30  C   UNL     1      -5.110   0.700   1.880  0.00  0.00    -0.060 C 
BRANCH  30  31
ATOM     31  N   UNL     1      -6.093   1.363   2.748  0.00  0.00    +0.377 N 
ATOM     32  C   UNL     1      -6.166   0.656   4.034  0.00  0.00    -0.097 C 
ATOM     33  C   UNL     1      -5.684   2.755   2.978  0.00  0.00    -0.097 C 
ATOM     34  H   UNL     1      -6.998   1.347   2.304  0.00  0.00    -0.083 HD
ENDBRANCH  30  31
ENDBRANCH  29  30
ENDBRANCH   4  29
TORSDOF 8
