REMARK  Name = ZINC39691356
REMARK  12 active torsions:
REMARK  status: ('A' for Active; 'I' for Inactive)
REMARK    1  A    between atoms: C_1  and  C_2
REMARK    2  A    between atoms: C_2  and  C_3
REMARK    3  A    between atoms: C_3  and  C_4
REMARK    4  A    between atoms: C_4  and  C_5
REMARK    5  A    between atoms: C_5  and  C_6
REMARK    6  A    between atoms: C_6  and  C_7
REMARK    7  A    between atoms: C_11  and  C_20
REMARK    8  A    between atoms: N_22  and  C_23
REMARK    9  A    between atoms: C_23  and  C_24
REMARK   10  A    between atoms: C_24  and  N_25
REMARK   11  A    between atoms: C_26  and  C_28
REMARK   12  A    between atoms: C_28  and  C_29
REMARK                            x       y       z     vdW  Elec       q    Type
REMARK                         _______ _______ _______ _____ _____    ______ ____
ROOT
ATOM      1  C   UNL     1       2.485  -9.450   3.085  0.00  0.00    +0.218 C 
ATOM      2  O   UNL     1       1.448  -9.676   3.673  0.00  0.00    -0.275 OA
ATOM      3  N   UNL     1       3.128 -10.446   2.444  0.00  0.00    -0.314 N 
ATOM      4  H   UNL     1       3.957 -10.265   1.974  0.00  0.00    +0.149 HD
ENDROOT
BRANCH   1   9
ATOM      5  C   UNL     1       2.304  -4.596   3.841  0.00  0.00    +0.216 C 
ATOM      6  O   UNL     1       2.819  -3.829   4.627  0.00  0.00    -0.276 OA
ATOM      7  N   UNL     1       2.459  -5.926   3.997  0.00  0.00    -0.300 N 
ATOM      8  C   UNL     1       1.917  -7.010   3.143  0.00  0.00    +0.121 C 
ATOM      9  C   UNL     1       3.054  -8.054   3.071  0.00  0.00    +0.100 C 
ATOM     10  C   UNL     1       3.897  -7.805   4.332  0.00  0.00    -0.004 C 
ATOM     11  C   UNL     1       3.215  -6.635   5.057  0.00  0.00    +0.115 C 
ATOM     12  C   UNL     1       3.902  -9.046   5.219  0.00  0.00    -0.010 C 
ATOM     13  C   UNL     1       4.794  -8.793   6.438  0.00  0.00    -0.082 C 
ATOM     14  N   UNL     1       6.157  -8.481   5.993  0.00  0.00    +0.379 N 
ATOM     15  C   UNL     1       6.157  -7.234   5.218  0.00  0.00    -0.082 C 
ATOM     16  C   UNL     1       5.323  -7.421   3.947  0.00  0.00    -0.010 C 
ATOM     17  H   UNL     1       6.756  -8.375   6.797  0.00  0.00    -0.086 HD
ATOM     18  H   UNL     1       6.502  -9.234   5.416  0.00  0.00    -0.086 HD
BRANCH   5  19
ATOM     19  C   UNL     1       1.491  -4.062   2.690  0.00  0.00    +0.096 C 
BRANCH  19  20
ATOM     20  C   UNL     1       1.474  -2.533   2.744  0.00  0.00    +0.009 C 
BRANCH  20  21
ATOM     21  C   UNL     1       0.649  -1.991   1.575  0.00  0.00    +0.000 C 
BRANCH  21  22
ATOM     22  C   UNL     1       0.631  -0.462   1.629  0.00  0.00    -0.000 C 
BRANCH  22  24
ATOM     23  C   UNL     1      -0.211   1.609   0.514  0.00  0.00    +0.004 C 
ATOM     24  C   UNL     1      -0.194   0.081   0.460  0.00  0.00    -0.003 C 
ENDBRANCH  22  24
ENDBRANCH  21  22
ENDBRANCH  20  21
ENDBRANCH  19  20
ENDBRANCH   5  19
ENDBRANCH   1   9
BRANCH   3  25
ATOM     25  C   UNL     1       2.575 -11.803   2.458  0.00  0.00    +0.123 C 
BRANCH  25  26
ATOM     26  C   UNL     1       3.491 -12.735   1.663  0.00  0.00    +0.123 C 
BRANCH  26  27
ATOM     27  N   UNL     1       2.938 -14.091   1.677  0.00  0.00    -0.314 N 
ATOM     28  C   UNL     1       3.581 -15.088   1.036  0.00  0.00    +0.217 C 
ATOM     29  O   UNL     1       4.618 -14.861   0.448  0.00  0.00    -0.275 OA
ATOM     30  H   UNL     1       2.110 -14.273   2.147  0.00  0.00    +0.149 HD
BRANCH  28  31
ATOM     31  C   UNL     1       3.013 -16.483   1.050  0.00  0.00    +0.131 C 
BRANCH  31  32
ATOM     32  C   UNL     1       3.915 -17.401   0.267  0.00  0.00    -0.031 A 
ATOM     33  C   UNL     1       3.660 -17.656  -1.046  0.00  0.00    +0.005 A 
ATOM     34  C   UNL     1       4.484 -18.502  -1.786  0.00  0.00    +0.001 A 
ATOM     35  C   UNL     1       5.567 -19.099  -1.217  0.00  0.00    +0.008 A 
ATOM     36  C   UNL     1       5.862 -18.861   0.136  0.00  0.00    -0.018 A 
ATOM     37  C   UNL     1       5.028 -17.995   0.887  0.00  0.00    -0.014 A 
ATOM     38  C   UNL     1       5.327 -17.752   2.239  0.00  0.00    +0.009 A 
ATOM     39  C   UNL     1       6.413 -18.345   2.805  0.00  0.00    +0.001 A 
ATOM     40  C   UNL     1       7.237 -19.191   2.065  0.00  0.00    +0.001 A 
ATOM     41  C   UNL     1       6.971 -19.460   0.757  0.00  0.00    +0.008 A 
ENDBRANCH  31  32
ENDBRANCH  28  31
ENDBRANCH  26  27
ENDBRANCH  25  26
ENDBRANCH   3  25
TORSDOF 11
