REMARK  Name = ZINC17820585
REMARK  7 active torsions:
REMARK  status: ('A' for Active; 'I' for Inactive)
REMARK    1  A    between atoms: C_11  and  O_32
REMARK    2  A    between atoms: C_12  and  C_24
REMARK    3  A    between atoms: C_13  and  C_15
REMARK    4  A    between atoms: C_15  and  S_16
REMARK    5  A    between atoms: S_16  and  C_17
REMARK    6  A    between atoms: N_25  and  C_26
REMARK    7  A    between atoms: C_26  and  C_27
REMARK                            x       y       z     vdW  Elec       q    Type
REMARK                         _______ _______ _______ _____ _____    ______ ____
ROOT
ATOM      1  C   UNL     1      -0.017   1.366   0.010  0.00  0.00    +0.002 A 
ATOM      2  C   UNL     1       1.157   2.107   0.002  0.00  0.00    +0.001 A 
ATOM      3  C   UNL     1       2.373   1.450  -0.013  0.00  0.00    +0.017 A 
ATOM      4  C   UNL     1       2.402   0.078  -0.021  0.00  0.00    +0.041 A 
ATOM      5  C   UNL     1       1.228  -0.710  -0.013  0.00  0.00    +0.081 A 
ATOM      6  C   UNL     1       0.002  -0.004   0.002  0.00  0.00    +0.029 A 
ATOM      7  N   UNL     1       1.420  -2.046  -0.023  0.00  0.00    -0.221 NA
ATOM      8  C   UNL     1       2.615  -2.587  -0.037  0.00  0.00    +0.198 A 
ATOM      9  S   UNL     1       3.683  -1.153  -0.039  0.00  0.00    -0.048 S 
ATOM     10  N   UNL     1       2.963  -3.933  -0.048  0.00  0.00    -0.175 N 
ATOM     11  C   UNL     1       4.223  -4.424  -0.057  0.00  0.00    +0.226 A 
ATOM     12  C   UNL     1       4.123  -5.809  -0.065  0.00  0.00    +0.076 A 
ATOM     13  C   UNL     1       2.744  -6.125  -0.060  0.00  0.00    +0.086 A 
ATOM     14  N   UNL     1       2.069  -5.009  -0.044  0.00  0.00    -0.165 NA
ENDROOT
BRANCH  12  15
ATOM     15  C   UNL     1       5.238  -6.766  -0.077  0.00  0.00    +0.093 C 
ATOM     16  N   UNL     1       6.461  -6.336  -0.081  0.00  0.00    -0.383 N 
ATOM     17  H   UNL     1       6.640  -5.382  -0.075  0.00  0.00    +0.160 HD
BRANCH  16  18
ATOM     18  C   UNL     1       7.573  -7.290  -0.093  0.00  0.00    +0.186 C 
BRANCH  18  19
ATOM     19  C   UNL     1       8.338  -7.153  -1.384  0.00  0.00    +0.124 A 
ATOM     20  C   UNL     1       9.388  -6.337  -1.593  0.00  0.00    +0.046 A 
ATOM     21  C   UNL     1       9.794  -6.529  -2.934  0.00  0.00    +0.041 A 
ATOM     22  C   UNL     1       8.968  -7.449  -3.463  0.00  0.00    +0.195 A 
ATOM     23  O   UNL     1       8.092  -7.828  -2.518  0.00  0.00    -0.466 OA
ENDBRANCH  18  19
ENDBRANCH  16  18
ENDBRANCH  12  15
BRANCH  11  24
ATOM     24  O   UNL     1       5.368  -3.701  -0.059  0.00  0.00    -0.492 OA
ATOM     25  H   UNL     1       5.706  -3.497   0.824  0.00  0.00    +0.294 HD
ENDBRANCH  11  24
BRANCH  13  26
ATOM     26  C   UNL     1       2.155  -7.512  -0.066  0.00  0.00    +0.132 C 
BRANCH  26  27
ATOM     27  S   UNL     1       1.927  -8.080   1.642  0.00  0.00    -0.119 S 
BRANCH  27  28
ATOM     28  C   UNL     1       1.242  -9.693   1.467  0.00  0.00    +0.008 A 
ATOM     29  C   UNL     1       1.015 -10.220   0.202  0.00  0.00    +0.016 A 
ATOM     30  C   UNL     1       0.478 -11.485   0.068  0.00  0.00    +0.021 A 
ATOM     31  C   UNL     1       0.165 -12.228   1.193  0.00  0.00    +0.041 A 
ATOM     32  C   UNL     1       0.390 -11.706   2.455  0.00  0.00    +0.021 A 
ATOM     33  C   UNL     1       0.932 -10.444   2.595  0.00  0.00    +0.016 A 
ATOM     34 CL   UNL     1      -0.511 -13.818   1.021  0.00  0.00    -0.084 Cl
ENDBRANCH  27  28
ENDBRANCH  26  27
ENDBRANCH  13  26
TORSDOF 7
