REMARK  Name = ZINC00756571
REMARK  4 active torsions:
REMARK  status: ('A' for Active; 'I' for Inactive)
REMARK    1  A    between atoms: C_14  and  N_30
REMARK    2  A    between atoms: C_15  and  C_28
REMARK    3  A    between atoms: C_16  and  C_18
REMARK    4  A    between atoms: C_21  and  C_24
REMARK                            x       y       z     vdW  Elec       q    Type
REMARK                         _______ _______ _______ _____ _____    ______ ____
ROOT
ATOM      1  C   UNL     1      -0.017   1.382   0.010  0.00  0.00    +0.001 A 
ATOM      2  C   UNL     1       1.165   2.099   0.002  0.00  0.00    +0.001 A 
ATOM      3  C   UNL     1       2.384   1.441  -0.012  0.00  0.00    +0.012 A 
ATOM      4  C   UNL     1       2.419   0.051  -0.020  0.00  0.00    +0.036 A 
ATOM      5  C   UNL     1       1.216  -0.678  -0.013  0.00  0.00    +0.033 A 
ATOM      6  C   UNL     1       0.002  -0.004   0.002  0.00  0.00    +0.012 A 
ATOM      7  C   UNL     1       1.265  -2.155  -0.021  0.00  0.00    +0.194 C 
ATOM      8  O   UNL     1       0.231  -2.795  -0.018  0.00  0.00    -0.287 OA
ATOM      9  C   UNL     1       2.557  -2.855  -0.034  0.00  0.00    +0.058 C 
ATOM     10  C   UNL     1       3.715  -2.162  -0.039  0.00  0.00    +0.185 C 
ATOM     11  C   UNL     1       3.703  -0.677  -0.034  0.00  0.00    +0.229 C 
ATOM     12  O   UNL     1       4.750  -0.061  -0.041  0.00  0.00    -0.283 OA
ATOM     13  O   UNL     1       4.909  -2.796  -0.048  0.00  0.00    -0.437 OA
ATOM     14  C   UNL     1       4.994  -4.071  -0.459  0.00  0.00    +0.199 C 
ATOM     15  C   UNL     1       3.904  -4.877  -0.480  0.00  0.00    +0.098 C 
ATOM     16  C   UNL     1       2.562  -4.362  -0.041  0.00  0.00    +0.102 C 
ENDROOT
BRANCH  16  17
ATOM     17  C   UNL     1       2.263  -4.869   1.346  0.00  0.00    -0.035 A 
ATOM     18  C   UNL     1       3.092  -4.531   2.399  0.00  0.00    +0.005 A 
ATOM     19  C   UNL     1       2.817  -4.996   3.672  0.00  0.00    +0.012 A 
ATOM     20  C   UNL     1       1.713  -5.798   3.892  0.00  0.00    +0.055 A 
ATOM     21  C   UNL     1       0.883  -6.135   2.839  0.00  0.00    +0.012 A 
ATOM     22  C   UNL     1       1.155  -5.667   1.567  0.00  0.00    +0.005 A 
BRANCH  20  23
ATOM     23  C   UNL     1       1.414  -6.305   5.279  0.00  0.00    +0.417 C 
ATOM     24  F   UNL     1       0.589  -5.391   5.942  0.00  0.00    -0.166 F 
ATOM     25  F   UNL     1       0.765  -7.542   5.193  0.00  0.00    -0.166 F 
ATOM     26  F   UNL     1       2.611  -6.455   5.989  0.00  0.00    -0.166 F 
ENDBRANCH  20  23
ENDBRANCH  16  17
BRANCH  14  27
ATOM     27  N   UNL     1       6.207  -4.569  -0.867  0.00  0.00    -0.328 N 
ATOM     28  H   UNL     1       6.993  -4.000  -0.856  0.00  0.00    +0.145 HD
ATOM     29  H   UNL     1       6.279  -5.489  -1.165  0.00  0.00    +0.145 HD
ENDBRANCH  14  27
BRANCH  15  30
ATOM     30  C   UNL     1       4.033  -6.233  -0.924  0.00  0.00    +0.101 C 
ATOM     31  N   UNL     1       4.135  -7.308  -1.276  0.00  0.00    -0.191 NA
ENDBRANCH  15  30
TORSDOF 4
