REMARK  Name = ZINC13916069
REMARK  11 active torsions:
REMARK  status: ('A' for Active; 'I' for Inactive)
REMARK    1  A    between atoms: C_1  and  C_2
REMARK    2  A    between atoms: C_4  and  C_26
REMARK    3  A    between atoms: C_5  and  C_25
REMARK    4  A    between atoms: C_6  and  C_8
REMARK    5  A    between atoms: C_18  and  C_24
REMARK    6  A    between atoms: C_19  and  C_20
REMARK    7  A    between atoms: C_20  and  O_22
REMARK    8  A    between atoms: O_22  and  C_23
REMARK    9  A    between atoms: C_26  and  O_27
REMARK   10  A    between atoms: O_27  and  C_28
REMARK   11  A    between atoms: C_33  and  C_34
REMARK                            x       y       z     vdW  Elec       q    Type
REMARK                         _______ _______ _______ _____ _____    ______ ____
ROOT
ATOM      1  C   UNL     1      -2.426   1.321   0.728  0.00  0.00    +0.044 C 
ATOM      2  C   UNL     1      -1.093   1.891   0.314  0.00  0.00    -0.050 A 
ATOM      3  C   UNL     1       0.016   1.069   0.235  0.00  0.00    +0.010 A 
ATOM      4  C   UNL     1       1.236   1.591  -0.150  0.00  0.00    -0.007 A 
ATOM      5  C   UNL     1       1.350   2.935  -0.451  0.00  0.00    -0.040 A 
ATOM      6  C   UNL     1       0.242   3.758  -0.368  0.00  0.00    -0.032 A 
ATOM      7  C   UNL     1      -0.979   3.236   0.016  0.00  0.00    +0.008 A 
ATOM      8  C   UNL     1       2.681   3.504  -0.871  0.00  0.00    +0.044 C 
ENDROOT
BRANCH   6   9
ATOM      9  C   UNL     1       0.366   5.223  -0.697  0.00  0.00    +0.092 C 
ATOM     10  C   UNL     1      -0.019   6.036   0.513  0.00  0.00    +0.024 C 
ATOM     11  C   UNL     1      -1.223   6.642   0.584  0.00  0.00    +0.015 C 
ATOM     12  C   UNL     1      -1.612   7.462   1.788  0.00  0.00    +0.051 C 
ATOM     13  C   UNL     1      -0.928   6.898   3.036  0.00  0.00    +0.014 C 
ATOM     14  C   UNL     1       0.588   6.922   2.811  0.00  0.00    +0.080 C 
ATOM     15  C   UNL     1       0.909   6.144   1.564  0.00  0.00    +0.162 C 
ATOM     16  O   UNL     1       1.990   5.598   1.463  0.00  0.00    -0.292 OA
ATOM     17  N   UNL     1      -2.119   6.527  -0.445  0.00  0.00    -0.321 N 
ATOM     18  C   UNL     1      -1.702   6.163  -1.695  0.00  0.00    +0.016 C 
ATOM     19  C   UNL     1      -0.521   5.542  -1.865  0.00  0.00    +0.065 C 
ATOM     20  C   UNL     1      -2.570   6.460  -2.890  0.00  0.00    +0.061 C 
ATOM     21  H   UNL     1      -3.187   6.728  -0.270  0.00  0.00    +0.152 HD
BRANCH  19  22
ATOM     22  C   UNL     1      -0.107   5.184  -3.169  0.00  0.00    +0.337 C 
ATOM     23  O   UNL     1      -0.768   5.524  -4.132  0.00  0.00    -0.245 OA
BRANCH  22  24
ATOM     24  O   UNL     1       1.020   4.464  -3.344  0.00  0.00    -0.465 OA
ATOM     25  C   UNL     1       1.379   4.137  -4.689  0.00  0.00    +0.280 C 
ENDBRANCH  22  24
ENDBRANCH  19  22
ENDBRANCH   6   9
BRANCH   4  26
ATOM     26  C   UNL     1       2.444   0.694  -0.241  0.00  0.00    +0.264 C 
BRANCH  26  27
ATOM     27  O   UNL     1       2.075  -0.640   0.117  0.00  0.00    -0.487 OA
BRANCH  27  28
ATOM     28  C   UNL     1       3.055  -1.581   0.086  0.00  0.00    +0.124 A 
ATOM     29  C   UNL     1       4.346  -1.227  -0.280  0.00  0.00    +0.047 A 
ATOM     30  C   UNL     1       5.341  -2.185  -0.310  0.00  0.00    +0.023 A 
ATOM     31  C   UNL     1       5.052  -3.496   0.025  0.00  0.00    +0.041 A 
ATOM     32  C   UNL     1       3.765  -3.850   0.391  0.00  0.00    +0.027 A 
ATOM     33  C   UNL     1       2.768  -2.894   0.427  0.00  0.00    -0.007 A 
ATOM     34  C   UNL     1       1.369  -3.279   0.832  0.00  0.00    +0.047 C 
ATOM     35 CL   UNL     1       6.304  -4.697  -0.013  0.00  0.00    -0.084 Cl
ENDBRANCH  27  28
ENDBRANCH  26  27
ENDBRANCH   4  26
TORSDOF 6
