REMARK  Name = ZINC39380994
REMARK  10 active torsions:
REMARK  status: ('A' for Active; 'I' for Inactive)
REMARK    1  A    between atoms: C_1  and  C_2
REMARK    2  A    between atoms: C_4  and  C_9
REMARK    3  A    between atoms: C_5  and  C_8
REMARK    4  A    between atoms: C_9  and  N_10
REMARK    5  A    between atoms: C_11  and  C_13
REMARK    6  A    between atoms: C_16  and  C_18
REMARK    7  A    between atoms: C_18  and  N_19
REMARK    8  A    between atoms: N_22  and  C_25
REMARK    9  A    between atoms: C_25  and  C_26
REMARK   10  A    between atoms: C_27  and  C_28
REMARK                            x       y       z     vdW  Elec       q    Type
REMARK                         _______ _______ _______ _____ _____    ______ ____
ROOT
ATOM      1  C   UNL     1      -4.987   2.521  -1.083  0.00  0.00    +0.164 A 
ATOM      2  C   UNL     1      -6.058   3.025  -1.755  0.00  0.00    +0.230 A 
ATOM      3  O   UNL     1      -6.384   4.183  -1.160  0.00  0.00    -0.446 OA
ATOM      4  C   UNL     1      -5.533   4.387  -0.145  0.00  0.00    +0.210 A 
ATOM      5  N   UNL     1      -4.694   3.397  -0.084  0.00  0.00    -0.208 NA
ENDROOT
BRANCH   1   7
ATOM      6  N   UNL     1      -3.233   0.881  -0.621  0.00  0.00    -0.306 N 
ATOM      7  C   UNL     1      -4.281   1.261  -1.379  0.00  0.00    +0.266 C 
ATOM      8  O   UNL     1      -4.645   0.563  -2.306  0.00  0.00    -0.268 OA
ATOM      9  H   UNL     1      -2.944   1.438   0.119  0.00  0.00    +0.149 HD
BRANCH   6  10
ATOM     10  C   UNL     1      -2.532  -0.371  -0.914  0.00  0.00    +0.139 C 
BRANCH  10  13
ATOM     11  C   UNL     1      -0.019   1.526   0.010  0.00  0.00    +0.039 C 
ATOM     12  C   UNL     1       0.002  -0.004   0.002  0.00  0.00    +0.154 C 
ATOM     13  C   UNL     1      -1.409  -0.561   0.072  0.00  0.00    -0.004 C 
ATOM     14  C   UNL     1      -1.423  -1.257   1.211  0.00  0.00    +0.063 C 
ATOM     15  N   UNL     1      -0.222  -1.193   1.828  0.00  0.00    -0.159 NA
ATOM     16  N   UNL     1       0.629  -0.523   1.230  0.00  0.00    -0.180 NA
ATOM     17  C   UNL     1      -2.617  -2.011   1.738  0.00  0.00    +0.067 C 
ENDBRANCH  10  13
ENDBRANCH   6  10
ENDBRANCH   1   7
BRANCH   4  18
ATOM     18  C   UNL     1      -5.550   5.574   0.783  0.00  0.00    +0.180 C 
BRANCH  18  19
ATOM     19  N   UNL     1      -4.701   6.639   0.231  0.00  0.00    -0.297 NA
ATOM     20  C   UNL     1      -3.288   6.232   0.217  0.00  0.00    +0.066 C 
ATOM     21  C   UNL     1      -2.447   7.342  -0.418  0.00  0.00    -0.063 C 
ATOM     22  N   UNL     1      -2.610   8.582   0.352  0.00  0.00    +0.384 N 
ATOM     23  C   UNL     1      -4.022   8.988   0.336  0.00  0.00    -0.063 C 
ATOM     24  C   UNL     1      -4.876   7.893   0.978  0.00  0.00    +0.066 C 
ATOM     25  H   UNL     1      -2.316   8.427   1.305  0.00  0.00    -0.081 HD
BRANCH  22  26
ATOM     26  C   UNL     1      -1.789   9.642  -0.248  0.00  0.00    -0.051 C 
BRANCH  26  27
ATOM     27  C   UNL     1      -1.859  10.878   0.611  0.00  0.00    -0.045 C 
ATOM     28  C   UNL     1      -0.745  11.436   1.062  0.00  0.00    +0.002 C 
BRANCH  28  29
ATOM     29  C   UNL     1      -0.814  12.649   1.904  0.00  0.00    -0.025 A 
ATOM     30  C   UNL     1      -2.051  13.206   2.231  0.00  0.00    +0.008 A 
ATOM     31  C   UNL     1      -2.108  14.338   3.018  0.00  0.00    +0.001 A 
ATOM     32  C   UNL     1      -0.943  14.921   3.482  0.00  0.00    +0.000 A 
ATOM     33  C   UNL     1       0.287  14.375   3.161  0.00  0.00    +0.001 A 
ATOM     34  C   UNL     1       0.358  13.239   2.381  0.00  0.00    +0.008 A 
ENDBRANCH  28  29
ENDBRANCH  26  27
ENDBRANCH  22  26
ENDBRANCH  18  19
ENDBRANCH   4  18
TORSDOF 8
