REMARK  Name = ZINC19770161
REMARK  10 active torsions:
REMARK  status: ('A' for Active; 'I' for Inactive)
REMARK    1  A    between atoms: C_1  and  C_2
REMARK    2  A    between atoms: C_3  and  C_30
REMARK    3  A    between atoms: C_4  and  C_21
REMARK    4  A    between atoms: C_10  and  C_15
REMARK    5  A    between atoms: C_24  and  N_27
REMARK    6  A    between atoms: N_27  and  C_28
REMARK    7  A    between atoms: N_27  and  C_29
REMARK    8  A    between atoms: C_30  and  O_32
REMARK    9  A    between atoms: O_32  and  C_33
REMARK   10  A    between atoms: C_33  and  C_34
REMARK                            x       y       z     vdW  Elec       q    Type
REMARK                         _______ _______ _______ _____ _____    ______ ____
ROOT
ATOM      1  C   UNL     1      -4.914   3.945   0.759  0.00  0.00    +0.061 C 
ATOM      2  C   UNL     1      -3.665   3.189   0.385  0.00  0.00    +0.016 C 
ATOM      3  C   UNL     1      -3.567   1.879   0.670  0.00  0.00    +0.065 C 
ATOM      4  C   UNL     1      -2.341   1.093   0.306  0.00  0.00    +0.092 C 
ATOM      5  C   UNL     1      -1.176   2.007   0.023  0.00  0.00    +0.024 C 
ATOM      6  C   UNL     1      -1.375   3.316  -0.238  0.00  0.00    +0.016 C 
ATOM      7  N   UNL     1      -2.639   3.842  -0.233  0.00  0.00    -0.321 N 
ATOM      8  C   UNL     1      -0.216   4.232  -0.546  0.00  0.00    +0.059 C 
ATOM      9  C   UNL     1       1.030   3.752   0.202  0.00  0.00    +0.032 C 
ATOM     10  C   UNL     1       1.329   2.312  -0.227  0.00  0.00    +0.088 C 
ATOM     11  C   UNL     1       0.118   1.460   0.042  0.00  0.00    +0.162 C 
ATOM     12  O   UNL     1       0.262   0.276   0.275  0.00  0.00    -0.292 OA
ATOM     13  H   UNL     1      -2.823   4.803  -0.735  0.00  0.00    +0.152 HD
ENDROOT
BRANCH   9  14
ATOM     14  C   UNL     1       2.200   4.637  -0.145  0.00  0.00    -0.044 A 
ATOM     15  C   UNL     1       2.612   4.755  -1.459  0.00  0.00    +0.004 A 
ATOM     16  C   UNL     1       3.682   5.569  -1.777  0.00  0.00    +0.000 A 
ATOM     17  C   UNL     1       4.347   6.258  -0.780  0.00  0.00    +0.000 A 
ATOM     18  C   UNL     1       3.938   6.136   0.535  0.00  0.00    +0.000 A 
ATOM     19  C   UNL     1       2.865   5.325   0.853  0.00  0.00    +0.004 A 
ENDBRANCH   9  14
BRANCH   4  20
ATOM     20  C   UNL     1      -2.631   0.266  -0.920  0.00  0.00    -0.035 A 
ATOM     21  C   UNL     1      -2.974   0.888  -2.107  0.00  0.00    +0.006 A 
ATOM     22  C   UNL     1      -3.234   0.134  -3.234  0.00  0.00    +0.023 A 
ATOM     23  C   UNL     1      -3.161  -1.252  -3.172  0.00  0.00    +0.029 A 
ATOM     24  C   UNL     1      -2.822  -1.874  -1.977  0.00  0.00    +0.023 A 
ATOM     25  C   UNL     1      -2.558  -1.114  -0.855  0.00  0.00    +0.006 A 
BRANCH  23  26
ATOM     26  N   UNL     1      -3.430  -2.019  -4.309  0.00  0.00    -0.336 N 
ATOM     27  C   UNL     1      -3.477  -3.480  -4.213  0.00  0.00    +0.129 C 
ATOM     28  C   UNL     1      -3.664  -1.361  -5.597  0.00  0.00    +0.129 C 
ENDBRANCH  23  26
ENDBRANCH   4  20
BRANCH   3  29
ATOM     29  C   UNL     1      -4.638   1.230   1.327  0.00  0.00    +0.338 C 
ATOM     30  O   UNL     1      -5.567   1.881   1.766  0.00  0.00    -0.245 OA
BRANCH  29  31
ATOM     31  O   UNL     1      -4.630  -0.113   1.467  0.00  0.00    -0.457 OA
BRANCH  31  32
ATOM     32  C   UNL     1      -5.744  -0.702   2.141  0.00  0.00    +0.268 C 
BRANCH  32  33
ATOM     33  C   UNL     1      -5.561  -2.196   2.202  0.00  0.00    -0.010 A 
ATOM     34  C   UNL     1      -6.054  -2.995   1.187  0.00  0.00    +0.007 A 
ATOM     35  C   UNL     1      -5.883  -4.365   1.241  0.00  0.00    +0.000 A 
ATOM     36  C   UNL     1      -5.226  -4.938   2.314  0.00  0.00    +0.000 A 
ATOM     37  C   UNL     1      -4.737  -4.140   3.331  0.00  0.00    +0.000 A 
ATOM     38  C   UNL     1      -4.904  -2.769   3.275  0.00  0.00    +0.007 A 
ENDBRANCH  32  33
ENDBRANCH  31  32
ENDBRANCH  29  31
ENDBRANCH   3  29
TORSDOF 7
