REMARK  Name = ZINC62832000
REMARK  8 active torsions:
REMARK  status: ('A' for Active; 'I' for Inactive)
REMARK    1  A    between atoms: C_1  and  C_2
REMARK    2  A    between atoms: C_2  and  C_3
REMARK    3  A    between atoms: C_2  and  C_4
REMARK    4  A    between atoms: C_4  and  C_5
REMARK    5  A    between atoms: N_7  and  C_8
REMARK    6  A    between atoms: N_7  and  C_9
REMARK    7  A    between atoms: C_12  and  N_18
REMARK    8  A    between atoms: C_14  and  C_15
REMARK                            x       y       z     vdW  Elec       q    Type
REMARK                         _______ _______ _______ _____ _____    ______ ____
ROOT
ATOM      1  C   UNL     1      -4.045  -0.131  -2.662  0.00  0.00    +0.050 A 
ATOM      2  C   UNL     1      -3.998  -0.969  -3.768  0.00  0.00    +0.026 A 
ATOM      3  C   UNL     1      -4.630  -0.607  -4.939  0.00  0.00    +0.024 A 
ATOM      4  C   UNL     1      -5.320   0.599  -5.024  0.00  0.00    +0.025 A 
ATOM      5  C   UNL     1      -5.377   1.446  -3.931  0.00  0.00    +0.039 A 
ATOM      6  C   UNL     1      -4.744   1.085  -2.737  0.00  0.00    +0.086 A 
ENDROOT
BRANCH   1   9
ATOM      7  C   UNL     1      -2.125  -0.137  -1.266  0.00  0.00    +0.220 C 
ATOM      8  O   UNL     1      -1.528   0.505  -2.104  0.00  0.00    -0.275 OA
ATOM      9  N   UNL     1      -3.406  -0.497  -1.479  0.00  0.00    -0.274 N 
ATOM     10  C   UNL     1      -4.127  -1.274  -0.467  0.00  0.00    +0.138 C 
BRANCH   7  11
ATOM     11  C   UNL     1      -1.433  -0.534   0.013  0.00  0.00    +0.099 C 
BRANCH  11  13
ATOM     12  C   UNL     1      -0.019   1.526   0.010  0.00  0.00    +0.008 C 
ATOM     13  C   UNL     1       0.002  -0.004   0.002  0.00  0.00    -0.008 C 
ATOM     14  C   UNL     1       0.742  -0.511   1.242  0.00  0.00    +0.008 C 
ENDBRANCH  11  13
ENDBRANCH   7  11
ENDBRANCH   1   9
BRANCH   6  15
ATOM     15  C   UNL     1      -4.806   1.976  -1.568  0.00  0.00    +0.388 C 
ATOM     16  O   UNL     1      -5.416   3.034  -1.637  0.00  0.00    -0.241 OA
ATOM     17  O   UNL     1      -4.247   1.659  -0.527  0.00  0.00    -0.241 OA
ENDBRANCH   6  15
BRANCH   4  18
ATOM     18  N   UNL     1      -5.957   0.956  -6.217  0.00  0.00    -0.358 N 
ATOM     19  H   UNL     1      -5.918   0.363  -6.984  0.00  0.00    +0.142 HD
ATOM     20  H   UNL     1      -6.439   1.796  -6.277  0.00  0.00    +0.142 HD
ENDBRANCH   4  18
TORSDOF 5
