REMARK  Name = ZINC09266052
REMARK  3 active torsions:
REMARK  status: ('A' for Active; 'I' for Inactive)
REMARK    1  A    between atoms: C_1  and  C_2
REMARK    2  A    between atoms: C_6  and  N_9
REMARK    3  A    between atoms: C_7  and  C_8
REMARK                            x       y       z     vdW  Elec       q    Type
REMARK                         _______ _______ _______ _____ _____    ______ ____
ROOT
ATOM      1  N   UNL     1       0.253   2.451   1.875  0.00  0.00    -0.210 N 
ATOM      2  C   UNL     1       1.430   2.556   1.249  0.00  0.00    +0.228 C 
ATOM      3  O   UNL     1       2.367   3.227   1.625  0.00  0.00    -0.275 OA
ATOM      4  C   UNL     1       1.411   1.706  -0.002  0.00  0.00    +0.074 C 
ATOM      5  C   UNL     1       1.444   2.620  -1.241  0.00  0.00    -0.054 C 
ATOM      6  C   UNL     1       2.077   3.971  -0.862  0.00  0.00    -0.016 C 
ATOM      7  C   UNL     1       0.901   4.870  -0.431  0.00  0.00    -0.020 C 
ATOM      8  C   UNL     1      -0.353   3.982  -0.557  0.00  0.00    -0.076 C 
ATOM      9  C   UNL     1      -0.700   1.671  -1.231  0.00  0.00    +0.053 C 
ATOM     10  C   UNL     1      -0.013   1.086   0.008  0.00  0.00    +0.089 C 
ATOM     11  C   UNL     1      -0.631   1.651   1.267  0.00  0.00    +0.229 C 
ATOM     12  O   UNL     1      -1.752   1.417   1.663  0.00  0.00    -0.275 OA
ATOM     13  C   UNL     1      -2.159   1.930  -0.978  0.00  0.00    -0.024 A 
ATOM     14  C   UNL     1      -2.839   2.713  -0.072  0.00  0.00    +0.043 A 
ATOM     15  C   UNL     1      -4.224   2.746  -0.085  0.00  0.00    +0.124 A 
ATOM     16  C   UNL     1      -4.920   1.989  -1.012  0.00  0.00    +0.040 A 
ATOM     17  C   UNL     1      -4.242   1.204  -1.921  0.00  0.00    +0.026 A 
ATOM     18  C   UNL     1      -2.850   1.166  -1.913  0.00  0.00    +0.036 A 
ATOM     19  N   UNL     1      -1.951   0.461  -2.719  0.00  0.00    -0.286 N 
ATOM     20  C   UNL     1      -0.670   0.703  -2.383  0.00  0.00    +0.212 C 
ATOM     21  O   UNL     1       0.318   0.233  -2.907  0.00  0.00    -0.277 OA
ATOM     22  F   UNL     1      -4.892   3.514   0.803  0.00  0.00    -0.205 F 
ATOM     23  H   UNL     1      -2.219  -0.134  -3.437  0.00  0.00    +0.155 HD
ATOM     24  N   UNL     1       0.051   2.908  -1.494  0.00  0.00    +0.395 N 
ATOM     25  H   UNL     1      -0.093   3.211  -2.464  0.00  0.00    -0.079 HD
ENDROOT
BRANCH   1  31
ATOM     26  C   UNL     1       0.256   2.535   6.793  0.00  0.00    +0.044 C 
ATOM     27  C   UNL     1      -0.041   3.189   5.468  0.00  0.00    -0.046 A 
ATOM     28  C   UNL     1      -0.596   4.455   5.431  0.00  0.00    +0.004 A 
ATOM     29  C   UNL     1      -0.870   5.057   4.217  0.00  0.00    +0.002 A 
ATOM     30  C   UNL     1      -0.590   4.396   3.037  0.00  0.00    +0.024 A 
ATOM     31  C   UNL     1      -0.033   3.125   3.071  0.00  0.00    +0.047 A 
ATOM     32  C   UNL     1       0.237   2.520   4.291  0.00  0.00    -0.026 A 
ATOM     33  C   UNL     1       0.836   1.139   4.332  0.00  0.00    +0.046 C 
ENDBRANCH   1  31
TORSDOF 1
