REMARK  Name = ZINC21637623
REMARK  8 active torsions:
REMARK  status: ('A' for Active; 'I' for Inactive)
REMARK    1  A    between atoms: C_1  and  C_2
REMARK    2  A    between atoms: C_2  and  O_3
REMARK    3  A    between atoms: O_3  and  C_4
REMARK    4  A    between atoms: C_11  and  C_18
REMARK    5  A    between atoms: C_13  and  O_14
REMARK    6  A    between atoms: C_18  and  S_19
REMARK    7  A    between atoms: S_19  and  C_20
REMARK    8  A    between atoms: C_23  and  C_26
REMARK                            x       y       z     vdW  Elec       q    Type
REMARK                         _______ _______ _______ _____ _____    ______ ____
ROOT
ATOM      1  C   UNL     1      -9.119   0.647   9.623  0.00  0.00    +0.405 C 
ATOM      2  O   UNL     1      -9.662   1.705   9.372  0.00  0.00    -0.226 OA
ATOM      3  N   UNL     1      -7.991   0.298   8.975  0.00  0.00    -0.251 N 
ATOM      4  C   UNL     1      -7.384   1.196   8.097  0.00  0.00    +0.040 A 
ATOM      5  C   UNL     1      -6.728   0.719   6.962  0.00  0.00    +0.024 A 
ATOM      6  C   UNL     1      -6.129   1.586   6.095  0.00  0.00    +0.013 A 
ATOM      7  C   UNL     1      -6.179   2.963   6.341  0.00  0.00    +0.022 A 
ATOM      8  C   UNL     1      -5.539   3.915   5.431  0.00  0.00    -0.020 A 
ATOM      9  C   UNL     1      -5.617   5.238   5.728  0.00  0.00    +0.092 A 
ATOM     10  C   UNL     1      -6.295   5.658   6.891  0.00  0.00    +0.285 A 
ATOM     11  O   UNL     1      -6.874   4.779   7.724  0.00  0.00    -0.425 OA
ATOM     12  C   UNL     1      -6.834   3.451   7.487  0.00  0.00    +0.141 A 
ATOM     13  C   UNL     1      -7.437   2.557   8.359  0.00  0.00    +0.070 A 
ATOM     14  H   UNL     1      -7.548  -0.696   9.138  0.00  0.00    +0.158 HD
ENDROOT
BRANCH  10  15
ATOM     15  O   UNL     1      -6.357   6.847   7.146  0.00  0.00    -0.480 OA
ATOM     16  H   UNL     1      -6.883   7.189   8.049  0.00  0.00    +0.295 HD
ENDBRANCH  10  15
BRANCH   1  17
ATOM     17  O   UNL     1      -9.646  -0.176  10.550  0.00  0.00    -0.450 OA
BRANCH  17  19
ATOM     18  C   UNL     1     -11.307  -0.793  12.220  0.00  0.00    +0.048 C 
ATOM     19  C   UNL     1     -10.862   0.265  11.208  0.00  0.00    +0.230 C 
ENDBRANCH  17  19
ENDBRANCH   1  17
BRANCH   8  20
ATOM     20  C   UNL     1      -4.821   3.440   4.194  0.00  0.00    +0.112 C 
BRANCH  20  21
ATOM     21  S   UNL     1      -3.076   3.135   4.589  0.00  0.00    -0.101 S 
BRANCH  21  22
ATOM     22  C   UNL     1      -2.383   2.593   3.062  0.00  0.00    +0.097 A 
ATOM     23  C   UNL     1      -1.032   2.264   2.996  0.00  0.00    +0.035 A 
ATOM     24  C   UNL     1      -0.501   1.841   1.792  0.00  0.00    +0.016 A 
ATOM     25  C   UNL     1      -1.341   1.760   0.688  0.00  0.00    +0.073 A 
ATOM     26  C   UNL     1      -2.671   2.108   0.824  0.00  0.00    +0.124 A 
ATOM     27  N   UNL     1      -3.152   2.503   1.987  0.00  0.00    -0.248 NA
BRANCH  25  28
ATOM     28  C   UNL     1      -0.806   1.304  -0.644  0.00  0.00    +0.419 C 
ATOM     29  F   UNL     1      -0.929  -0.086  -0.745  0.00  0.00    -0.166 F 
ATOM     30  F   UNL     1       0.542   1.661  -0.752  0.00  0.00    -0.166 F 
ATOM     31  F   UNL     1      -1.534   1.912  -1.673  0.00  0.00    -0.166 F 
ENDBRANCH  25  28
ENDBRANCH  21  22
ENDBRANCH  20  21
ENDBRANCH   8  20
TORSDOF 7
