REMARK  Name = ZINC41005454
REMARK  8 active torsions:
REMARK  status: ('A' for Active; 'I' for Inactive)
REMARK    1  A    between atoms: C_1  and  C_2
REMARK    2  A    between atoms: C_4  and  C_26
REMARK    3  A    between atoms: C_6  and  C_8
REMARK    4  A    between atoms: N_10  and  C_11
REMARK    5  A    between atoms: C_12  and  C_22
REMARK    6  A    between atoms: C_17  and  C_21
REMARK    7  A    between atoms: C_22  and  O_24
REMARK    8  A    between atoms: O_24  and  C_25
REMARK                            x       y       z     vdW  Elec       q    Type
REMARK                         _______ _______ _______ _____ _____    ______ ____
ROOT
ATOM      1  C   UNL     1       0.084  -4.966   3.536  0.00  0.00    +0.087 A 
ATOM      2  C   UNL     1       0.109  -6.345   3.686  0.00  0.00    +0.091 A 
ATOM      3  C   UNL     1       0.120  -6.865   5.043  0.00  0.00    -0.021 A 
ATOM      4  C   UNL     1       0.106  -5.912   6.000  0.00  0.00    -0.004 A 
ATOM      5  S   UNL     1       0.084  -4.383   5.111  0.00  0.00    -0.077 S 
ATOM      6  C   UNL     1       0.114  -6.125   7.482  0.00  0.00    +0.046 C 
ATOM      7  C   UNL     1       0.522  -7.580   7.757  0.00  0.00    -0.009 C 
ATOM      8  C   UNL     1      -0.300  -8.505   6.855  0.00  0.00    +0.008 C 
ATOM      9  C   UNL     1       0.146  -8.344   5.400  0.00  0.00    +0.037 C 
ATOM     10  C   UNL     1       0.252  -7.919   9.225  0.00  0.00    +0.008 C 
ENDROOT
BRANCH   1  13
ATOM     11  C   UNL     1       0.052  -2.890   2.400  0.00  0.00    +0.267 C 
ATOM     12  O   UNL     1       0.049  -2.315   3.470  0.00  0.00    -0.268 OA
ATOM     13  N   UNL     1       0.069  -4.237   2.359  0.00  0.00    -0.274 N 
ATOM     14  H   UNL     1       0.072  -4.697   1.504  0.00  0.00    +0.156 HD
BRANCH  11  20
ATOM     15  C   UNL     1      -0.018   1.503   0.010  0.00  0.00    +0.044 C 
ATOM     16  C   UNL     1       0.002  -0.004   0.002  0.00  0.00    -0.047 A 
ATOM     17  C   UNL     1       0.006  -0.706  -1.193  0.00  0.00    +0.026 A 
ATOM     18  C   UNL     1       0.025  -2.092  -1.167  0.00  0.00    +0.039 A 
ATOM     19  N   UNL     1       0.039  -2.746  -0.026  0.00  0.00    -0.247 NA
ATOM     20  C   UNL     1       0.036  -2.111   1.140  0.00  0.00    +0.126 A 
ATOM     21  C   UNL     1       0.023  -0.719   1.189  0.00  0.00    +0.036 A 
ATOM     22  C   UNL     1       0.029  -2.859  -2.464  0.00  0.00    +0.065 C 
ENDBRANCH  11  20
ENDBRANCH   1  13
BRANCH   2  23
ATOM     23  C   UNL     1       0.122  -7.239   2.526  0.00  0.00    +0.342 C 
ATOM     24  O   UNL     1       1.181  -7.592   2.043  0.00  0.00    -0.245 OA
BRANCH  23  25
ATOM     25  O   UNL     1      -1.040  -7.670   1.994  0.00  0.00    -0.464 OA
ATOM     26  C   UNL     1      -0.953  -8.540   0.864  0.00  0.00    +0.280 C 
ENDBRANCH  23  25
ENDBRANCH   2  23
TORSDOF 4
