REMARK  Name = ZINC40074983
REMARK  6 active torsions:
REMARK  status: ('A' for Active; 'I' for Inactive)
REMARK    1  A    between atoms: C_1  and  C_2
REMARK    2  A    between atoms: C_2  and  C_4
REMARK    3  A    between atoms: C_2  and  O_20
REMARK    4  A    between atoms: C_9  and  C_12
REMARK    5  A    between atoms: O_20  and  C_21
REMARK    6  A    between atoms: C_21  and  C_23
REMARK                            x       y       z     vdW  Elec       q    Type
REMARK                         _______ _______ _______ _____ _____    ______ ____
ROOT
ATOM      1  C   UNL     1       0.002   1.507   0.028  0.00  0.00    +0.062 C 
ATOM      2  C   UNL     1      -0.001  -0.023   0.008  0.00  0.00    +0.259 C 
ENDROOT
BRANCH   2   3
ATOM      3  C   UNL     1       0.713  -0.543   1.229  0.00  0.00    +0.259 C 
ATOM      4  O   UNL     1       1.748  -1.164   1.108  0.00  0.00    -0.271 OA
ATOM      5  N   UNL     1       0.201  -0.317   2.455  0.00  0.00    -0.262 N 
ATOM      6  C   UNL     1       0.859  -0.797   3.581  0.00  0.00    +0.165 A 
ATOM      7  N   UNL     1       0.525  -0.689   4.854  0.00  0.00    -0.225 NA
ATOM      8  C   UNL     1       1.277  -1.212   5.809  0.00  0.00    +0.080 A 
ATOM      9  C   UNL     1       2.422  -1.878   5.473  0.00  0.00    +0.076 A 
ATOM     10  S   UNL     1       2.380  -1.730   3.691  0.00  0.00    -0.060 S 
ATOM     11  H   UNL     1      -0.626   0.179   2.552  0.00  0.00    +0.157 HD
BRANCH   8  12
ATOM     12  C   UNL     1       0.881  -1.078   7.232  0.00  0.00    +0.004 A 
ATOM     13  C   UNL     1       1.679  -1.625   8.235  0.00  0.00    +0.013 A 
ATOM     14  C   UNL     1       1.308  -1.498   9.558  0.00  0.00    +0.042 A 
ATOM     15  C   UNL     1       0.143  -0.827   9.892  0.00  0.00    +0.158 A 
ATOM     16  C   UNL     1      -0.655  -0.280   8.898  0.00  0.00    +0.159 A 
ATOM     17  C   UNL     1      -0.288  -0.398   7.571  0.00  0.00    +0.051 A 
ATOM     18  F   UNL     1      -1.791   0.373   9.228  0.00  0.00    -0.202 F 
ATOM     19  F   UNL     1      -0.217  -0.706  11.188  0.00  0.00    -0.202 F 
ENDBRANCH   8  12
ENDBRANCH   2   3
BRANCH   2  20
ATOM     20  O   UNL     1       0.668  -0.485  -1.168  0.00  0.00    -0.449 OA
BRANCH  20  21
ATOM     21  C   UNL     1      -0.088  -0.673  -2.268  0.00  0.00    +0.337 C 
ATOM     22  O   UNL     1      -1.282  -0.451  -2.230  0.00  0.00    -0.245 OA
BRANCH  21  23
ATOM     23  C   UNL     1       0.534  -1.149  -3.519  0.00  0.00    +0.054 C 
ATOM     24  C   UNL     1       1.901  -1.294  -3.633  0.00  0.00    +0.007 A 
ATOM     25  C   UNL     1       2.789  -0.979  -2.513  0.00  0.00    +0.010 A 
ATOM     26  C   UNL     1       4.126  -1.138  -2.674  0.00  0.00    +0.001 A 
ATOM     27  C   UNL     1       4.668  -1.593  -3.883  0.00  0.00    +0.002 A 
ATOM     28  C   UNL     1       3.904  -1.901  -4.958  0.00  0.00    +0.024 A 
ATOM     29  C   UNL     1       2.499  -1.773  -4.898  0.00  0.00    +0.041 A 
ATOM     30  N   UNL     1       1.758  -2.075  -5.953  0.00  0.00    -0.285 N 
ATOM     31  C   UNL     1       0.434  -1.977  -5.968  0.00  0.00    +0.222 C 
ATOM     32  O   UNL     1      -0.187  -2.271  -6.970  0.00  0.00    -0.275 OA
ATOM     33  C   UNL     1      -0.301  -1.507  -4.733  0.00  0.00    +0.139 C 
ATOM     34  H   UNL     1       2.205  -2.384  -6.757  0.00  0.00    +0.155 HD
ENDBRANCH  21  23
ENDBRANCH  20  21
ENDBRANCH   2  20
TORSDOF 5
