REMARK  Name = ZINC17268829
REMARK  9 active torsions:
REMARK  status: ('A' for Active; 'I' for Inactive)
REMARK    1  A    between atoms: C_1  and  C_2
REMARK    2  A    between atoms: C_2  and  C_3
REMARK    3  A    between atoms: C_3  and  C_5
REMARK    4  A    between atoms: C_3  and  S_6
REMARK    5  A    between atoms: S_6  and  C_7
REMARK    6  A    between atoms: C_18  and  C_20
REMARK    7  A    between atoms: C_23  and  O_28
REMARK    8  A    between atoms: C_24  and  O_26
REMARK    9  A    between atoms: O_26  and  C_27
REMARK                            x       y       z     vdW  Elec       q    Type
REMARK                         _______ _______ _______ _____ _____    ______ ____
ROOT
ATOM      1  C   UNL     1      -1.020   6.118  -1.121  0.00  0.00    +0.171 A 
ATOM      2  N   UNL     1      -2.246   5.527  -1.151  0.00  0.00    -0.302 N 
ATOM      3  H   UNL     1      -3.022   6.036  -1.434  0.00  0.00    +0.171 HD
ATOM      4  C   UNL     1      -2.384   4.234  -0.789  0.00  0.00    +0.258 A 
ATOM      5  O   UNL     1      -3.479   3.695  -0.811  0.00  0.00    -0.267 OA
ATOM      6  C   UNL     1      -1.247   3.522  -0.388  0.00  0.00    +0.069 A 
ATOM      7  C   UNL     1      -0.023   4.169  -0.379  0.00  0.00    +0.135 A 
ATOM      8  N   UNL     1       0.054   5.452  -0.746  0.00  0.00    -0.208 NA
ATOM      9  N   UNL     1       1.110   3.481   0.008  0.00  0.00    -0.302 N 
ATOM     10  C   UNL     1       1.130   2.113   0.003  0.00  0.00    +0.017 C 
ATOM     11  C   UNL     1      -0.017   1.402   0.010  0.00  0.00    +0.024 C 
ATOM     12  C   UNL     1      -1.360   2.087   0.033  0.00  0.00    +0.093 C 
ATOM     13  C   UNL     1       0.002  -0.004   0.002  0.00  0.00    +0.162 C 
ATOM     14  O   UNL     1      -1.049  -0.614  -0.016  0.00  0.00    -0.292 OA
ATOM     15  C   UNL     1       1.298  -0.767   0.015  0.00  0.00    +0.080 C 
ATOM     16  C   UNL     1       2.368   0.079   0.713  0.00  0.00    +0.014 C 
ATOM     17  C   UNL     1       2.472   1.421  -0.014  0.00  0.00    +0.051 C 
ATOM     18  H   UNL     1       1.899   3.973   0.286  0.00  0.00    +0.153 HD
ENDROOT
BRANCH  12  19
ATOM     19  C   UNL     1      -1.923   2.024   1.429  0.00  0.00    -0.032 A 
ATOM     20  C   UNL     1      -1.230   2.598   2.479  0.00  0.00    +0.008 A 
ATOM     21  C   UNL     1      -1.742   2.544   3.761  0.00  0.00    +0.049 A 
ATOM     22  C   UNL     1      -2.952   1.911   3.998  0.00  0.00    +0.158 A 
ATOM     23  C   UNL     1      -3.649   1.333   2.942  0.00  0.00    +0.162 A 
ATOM     24  C   UNL     1      -3.133   1.396   1.658  0.00  0.00    +0.054 A 
BRANCH  23  25
ATOM     25  O   UNL     1      -4.837   0.711   3.169  0.00  0.00    -0.491 OA
ATOM     26  C   UNL     1      -5.497   0.140   2.038  0.00  0.00    +0.277 C 
ENDBRANCH  23  25
BRANCH  22  27
ATOM     27  O   UNL     1      -3.457   1.857   5.259  0.00  0.00    -0.503 OA
ATOM     28  H   UNL     1      -4.028   2.604   5.487  0.00  0.00    +0.292 HD
ENDBRANCH  22  27
ENDBRANCH  12  19
BRANCH   1  29
ATOM     29  S   UNL     1      -0.865   7.808  -1.595  0.00  0.00    -0.085 S 
BRANCH  29  30
ATOM     30  C   UNL     1       0.916   8.037  -1.365  0.00  0.00    +0.051 C 
ATOM     31  C   UNL     1       1.263   7.887   0.117  0.00  0.00    +0.019 C 
BRANCH  30  33
ATOM     32  C   UNL     1       1.085   9.542  -3.352  0.00  0.00    +0.005 C 
ATOM     33  C   UNL     1       1.316   9.434  -1.844  0.00  0.00    +0.011 C 
ENDBRANCH  30  33
ENDBRANCH  29  30
ENDBRANCH   1  29
TORSDOF 6
