REMARK  Name = ZINC49089003
REMARK  8 active torsions:
REMARK  status: ('A' for Active; 'I' for Inactive)
REMARK    1  A    between atoms: C_4  and  C_7
REMARK    2  A    between atoms: C_7  and  C_9
REMARK    3  A    between atoms: C_7  and  O_19
REMARK    4  A    between atoms: O_19  and  C_20
REMARK    5  A    between atoms: C_20  and  C_21
REMARK    6  A    between atoms: C_21  and  C_23
REMARK    7  A    between atoms: C_21  and  O_36
REMARK    8  A    between atoms: C_23  and  N_24
REMARK                            x       y       z     vdW  Elec       q    Type
REMARK                         _______ _______ _______ _____ _____    ______ ____
ROOT
ATOM      1  O   UNL     1       3.581  -1.955   0.697  0.00  0.00    -0.365 OA
ENDROOT
BRANCH   1   2
ATOM      2  C   UNL     1       3.685  -0.761  -0.082  0.00  0.00    +0.179 C 
BRANCH   2   3
ATOM      3  C   UNL     1       4.063  -1.115  -1.497  0.00  0.00    -0.007 A 
ATOM      4  C   UNL     1       3.761  -2.344  -1.999  0.00  0.00    +0.007 A 
ATOM      5  C   UNL     1       4.103  -2.689  -3.304  0.00  0.00    +0.001 A 
ATOM      6  C   UNL     1       4.749  -1.808  -4.116  0.00  0.00    +0.008 A 
ATOM      7  C   UNL     1       5.077  -0.530  -3.633  0.00  0.00    -0.018 A 
ATOM      8  C   UNL     1       4.724  -0.176  -2.307  0.00  0.00    -0.012 A 
ATOM      9  C   UNL     1       5.047   1.104  -1.826  0.00  0.00    +0.009 A 
ATOM     10  C   UNL     1       5.688   1.987  -2.640  0.00  0.00    +0.001 A 
ATOM     11  C   UNL     1       6.029   1.642  -3.946  0.00  0.00    +0.001 A 
ATOM     12  C   UNL     1       5.744   0.407  -4.442  0.00  0.00    +0.008 A 
ENDBRANCH   2   3
BRANCH   2  16
ATOM     13  C   UNL     1      -0.072   1.272  -0.080  0.00  0.00    +0.000 A 
ATOM     14  C   UNL     1       1.105   1.996  -0.086  0.00  0.00    +0.000 A 
ATOM     15  C   UNL     1       2.321   1.338  -0.086  0.00  0.00    +0.006 A 
ATOM     16  C   UNL     1       2.359  -0.044  -0.080  0.00  0.00    -0.014 A 
ATOM     17  C   UNL     1       1.182  -0.768  -0.074  0.00  0.00    +0.006 A 
ATOM     18  C   UNL     1      -0.034  -0.110  -0.075  0.00  0.00    +0.000 A 
ENDBRANCH   2  16
ENDBRANCH   1   2
BRANCH   1  19
ATOM     19  C   UNL     1       3.899  -1.777   2.079  0.00  0.00    +0.193 C 
BRANCH  19  20
ATOM     20  C   UNL     1       3.755  -3.113   2.811  0.00  0.00    +0.154 C 
BRANCH  20  21
ATOM     21  O   UNL     1       4.728  -4.035   2.315  0.00  0.00    -0.388 OA
ATOM     22  H   UNL     1       5.642  -3.743   2.431  0.00  0.00    +0.210 HD
ENDBRANCH  20  21
BRANCH  20  23
ATOM     23  C   UNL     1       3.974  -2.899   4.310  0.00  0.00    +0.118 C 
BRANCH  23  24
ATOM     24  N   UNL     1       3.835  -4.181   5.013  0.00  0.00    -0.297 NA
ATOM     25  C   UNL     1       2.459  -4.686   4.921  0.00  0.00    +0.103 C 
ATOM     26  C   UNL     1       2.398  -6.101   5.505  0.00  0.00    +0.122 C 
ATOM     27  N   UNL     1       2.960  -6.071   6.864  0.00  0.00    -0.314 N 
ATOM     28  C   UNL     1       4.281  -5.454   7.057  0.00  0.00    +0.122 C 
ATOM     29  C   UNL     1       4.268  -4.064   6.412  0.00  0.00    +0.103 C 
ATOM     30  C   UNL     1       2.261  -6.611   7.938  0.00  0.00    +0.099 A 
ATOM     31  C   UNL     1       0.965  -7.080   7.751  0.00  0.00    +0.042 A 
ATOM     32  C   UNL     1       0.281  -7.615   8.828  0.00  0.00    +0.005 A 
ATOM     33  C   UNL     1       0.919  -7.663  10.060  0.00  0.00    +0.018 A 
ATOM     34  C   UNL     1       2.207  -7.180  10.174  0.00  0.00    +0.084 A 
ATOM     35  N   UNL     1       2.837  -6.679   9.128  0.00  0.00    -0.350 N 
ATOM     36  H   UNL     1       3.744  -6.350   9.234  0.00  0.00    +0.166 HD
ENDBRANCH  23  24
ENDBRANCH  20  23
ENDBRANCH  19  20
ENDBRANCH   1  19
TORSDOF 8
