REMARK  Name = ZINC35682821
REMARK  10 active torsions:
REMARK  status: ('A' for Active; 'I' for Inactive)
REMARK    1  A    between atoms: C_1  and  C_2
REMARK    2  A    between atoms: C_6  and  N_9
REMARK    3  A    between atoms: C_7  and  C_8
REMARK    4  A    between atoms: N_9  and  C_10
REMARK    5  A    between atoms: C_10  and  O_31
REMARK    6  A    between atoms: C_16  and  C_21
REMARK    7  A    between atoms: C_21  and  C_22
REMARK    8  A    between atoms: C_25  and  C_28
REMARK    9  A    between atoms: C_28  and  C_29
REMARK   10  A    between atoms: C_28  and  C_30
REMARK                            x       y       z     vdW  Elec       q    Type
REMARK                         _______ _______ _______ _____ _____    ______ ____
ROOT
ATOM      1  C   UNL     1      -0.040  -4.259   2.382  0.00  0.00    +0.226 C 
ATOM      2  C   UNL     1      -0.129  -4.761   3.835  0.00  0.00    +0.155 C 
ATOM      3  S   UNL     1       0.003  -6.576   3.757  0.00  0.00    -0.078 S 
ATOM      4  C   UNL     1      -1.048  -6.972   2.393  0.00  0.00    +0.210 A 
ATOM      5  N   UNL     1      -1.471  -8.221   2.255  0.00  0.00    -0.122 NA
ATOM      6  N   UNL     1      -2.189  -8.599   1.261  0.00  0.00    -0.146 NA
ATOM      7  C   UNL     1      -2.513  -7.760   0.304  0.00  0.00    +0.134 A 
ATOM      8  C   UNL     1      -2.092  -6.419   0.389  0.00  0.00    +0.294 A 
ATOM      9  O   UNL     1      -2.330  -5.634  -0.514  0.00  0.00    -0.264 OA
ATOM     10  N   UNL     1      -1.415  -6.016   1.500  0.00  0.00    -0.200 N 
ATOM     11  N   UNL     1      -1.231  -4.684   1.659  0.00  0.00    -0.233 N 
ATOM     12  H   UNL     1      -2.058  -4.247   2.037  0.00  0.00    +0.171 HD
ENDROOT
BRANCH   1  13
ATOM     13  N   UNL     1       0.043  -2.796   2.373  0.00  0.00    -0.299 N 
ATOM     14  H   UNL     1       0.095  -2.308   3.210  0.00  0.00    +0.150 HD
BRANCH  13  20
ATOM     15  C   UNL     1       0.452   1.445  -0.076  0.00  0.00    +0.044 C 
ATOM     16  C   UNL     1       0.242  -0.047  -0.057  0.00  0.00    -0.046 A 
ATOM     17  C   UNL     1       0.052  -0.733  -1.243  0.00  0.00    +0.004 A 
ATOM     18  C   UNL     1      -0.141  -2.102  -1.231  0.00  0.00    +0.002 A 
ATOM     19  C   UNL     1      -0.145  -2.789  -0.033  0.00  0.00    +0.023 A 
ATOM     20  C   UNL     1       0.046  -2.104   1.160  0.00  0.00    +0.034 A 
ATOM     21  C   UNL     1       0.245  -0.729   1.143  0.00  0.00    -0.027 A 
ATOM     22  C   UNL     1       0.458   0.018   2.435  0.00  0.00    +0.046 C 
ENDBRANCH  13  20
ENDBRANCH   1  13
BRANCH   1  23
ATOM     23  O   UNL     1       1.121  -4.807   1.755  0.00  0.00    -0.355 OA
ATOM     24  H   UNL     1       1.286  -4.466   0.866  0.00  0.00    +0.214 HD
ENDBRANCH   1  23
BRANCH   7  25
ATOM     25  C   UNL     1      -3.327  -8.229  -0.874  0.00  0.00    +0.098 C 
BRANCH  25  26
ATOM     26  C   UNL     1      -3.641  -9.694  -0.716  0.00  0.00    -0.041 A 
ATOM     27  C   UNL     1      -2.776 -10.645  -1.224  0.00  0.00    +0.004 A 
ATOM     28  C   UNL     1      -3.063 -11.989  -1.080  0.00  0.00    +0.004 A 
ATOM     29  C   UNL     1      -4.216 -12.383  -0.427  0.00  0.00    -0.045 A 
ATOM     30  C   UNL     1      -5.082 -11.433   0.082  0.00  0.00    +0.004 A 
ATOM     31  C   UNL     1      -4.792 -10.088  -0.059  0.00  0.00    +0.004 A 
BRANCH  29  32
ATOM     32  C   UNL     1      -4.531 -13.849  -0.271  0.00  0.00    +0.013 C 
ATOM     33  C   UNL     1      -4.625 -14.194   1.216  0.00  0.00    +0.012 C 
ATOM     34  C   UNL     1      -5.865 -14.160  -0.952  0.00  0.00    +0.012 C 
ENDBRANCH  29  32
ENDBRANCH  25  26
ENDBRANCH   7  25
TORSDOF 6
