REMARK  Name = ZINC39710333
REMARK  13 active torsions:
REMARK  status: ('A' for Active; 'I' for Inactive)
REMARK    1  A    between atoms: C_1  and  C_2
REMARK    2  A    between atoms: C_9  and  C_14
REMARK    3  A    between atoms: C_14  and  C_16
REMARK    4  A    between atoms: C_14  and  N_26
REMARK    5  A    between atoms: N_21  and  C_22
REMARK    6  A    between atoms: C_22  and  C_23
REMARK    7  A    between atoms: C_22  and  C_24
REMARK    8  A    between atoms: C_22  and  C_25
REMARK    9  A    between atoms: N_26  and  C_27
REMARK   10  A    between atoms: N_26  and  C_35
REMARK   11  A    between atoms: C_27  and  C_28
REMARK   12  A    between atoms: C_28  and  C_29
REMARK   13  A    between atoms: C_35  and  C_36
REMARK                            x       y       z     vdW  Elec       q    Type
REMARK                         _______ _______ _______ _____ _____    ______ ____
ROOT
ATOM      1  C   UNL     1       1.427  -4.227   2.715  0.00  0.00    +0.115 C 
ENDROOT
BRANCH   1  10
ATOM      2  C   UNL     1      -2.573   1.615   1.782  0.00  0.00    +0.044 C 
ATOM      3  C   UNL     1      -1.877   0.369   1.298  0.00  0.00    -0.050 A 
ATOM      4  C   UNL     1      -1.546   0.252  -0.052  0.00  0.00    +0.005 A 
ATOM      5  C   UNL     1      -0.918  -0.840  -0.560  0.00  0.00    +0.024 A 
ATOM      6  C   UNL     1      -0.572  -1.919   0.274  0.00  0.00    +0.040 A 
ATOM      7  N   UNL     1       0.044  -2.985  -0.236  0.00  0.00    -0.284 N 
ATOM      8  C   UNL     1       0.396  -4.032   0.491  0.00  0.00    +0.226 C 
ATOM      9  O   UNL     1       0.956  -4.977  -0.031  0.00  0.00    -0.275 OA
ATOM     10  C   UNL     1       0.101  -4.049   1.974  0.00  0.00    +0.119 C 
ATOM     11  C   UNL     1      -0.599  -2.838   2.559  0.00  0.00    -0.003 C 
ATOM     12  C   UNL     1      -0.911  -1.823   1.705  0.00  0.00    -0.007 A 
ATOM     13  C   UNL     1      -1.582  -0.615   2.187  0.00  0.00    +0.012 A 
ATOM     14  H   UNL     1       0.242  -2.994  -1.185  0.00  0.00    +0.155 HD
ENDBRANCH   1  10
BRANCH   1  15
ATOM     15  C   UNL     1       2.011  -5.604   2.392  0.00  0.00    +0.236 C 
ATOM     16  N   UNL     1       1.089  -6.665   2.817  0.00  0.00    -0.148 NA
ATOM     17  N   UNL     1       1.649  -7.365   3.663  0.00  0.00    -0.069 NA
ATOM     18  N   UNL     1       2.948  -6.942   3.943  0.00  0.00    -0.179 N 
ATOM     19  N   UNL     1       3.240  -5.841   3.178  0.00  0.00    -0.179 NA
ATOM     20  H   UNL     1       3.550  -7.361   4.578  0.00  0.00    +0.191 HD
BRANCH  19  21
ATOM     21  C   UNL     1       4.387  -6.098   2.296  0.00  0.00    +0.035 C 
ATOM     22  C   UNL     1       4.612  -4.890   1.386  0.00  0.00    +0.029 C 
ATOM     23  C   UNL     1       5.638  -6.338   3.144  0.00  0.00    +0.029 C 
ATOM     24  C   UNL     1       4.106  -7.336   1.442  0.00  0.00    +0.029 C 
ENDBRANCH  19  21
ENDBRANCH   1  15
BRANCH   1  25
ATOM     25  N   UNL     1       1.198  -4.120   4.162  0.00  0.00    -0.290 NA
BRANCH  25  26
ATOM     26  C   UNL     1       2.461  -4.230   4.904  0.00  0.00    +0.090 C 
BRANCH  26  27
ATOM     27  C   UNL     1       2.356  -3.436   6.208  0.00  0.00    +0.050 C 
BRANCH  27  28
ATOM     28  C   UNL     1       3.696  -3.424   6.898  0.00  0.00    -0.046 A 
ATOM     29  C   UNL     1       4.019  -4.423   7.797  0.00  0.00    +0.003 A 
ATOM     30  C   UNL     1       5.248  -4.413   8.430  0.00  0.00    +0.000 A 
ATOM     31  C   UNL     1       6.154  -3.403   8.163  0.00  0.00    +0.000 A 
ATOM     32  C   UNL     1       5.831  -2.404   7.264  0.00  0.00    +0.000 A 
ATOM     33  C   UNL     1       4.604  -2.417   6.628  0.00  0.00    +0.003 A 
ENDBRANCH  27  28
ENDBRANCH  26  27
ENDBRANCH  25  26
BRANCH  25  34
ATOM     34  C   UNL     1       0.231  -5.128   4.618  0.00  0.00    +0.127 C 
BRANCH  34  35
ATOM     35  C   UNL     1      -0.323  -4.722   5.960  0.00  0.00    +0.004 A 
ATOM     36  C   UNL     1      -1.313  -3.841   6.244  0.00  0.00    +0.012 A 
ATOM     37  C   UNL     1      -1.658  -3.624   7.564  0.00  0.00    +0.008 A 
ATOM     38  C   UNL     1      -0.997  -4.298   8.536  0.00  0.00    +0.045 A 
ATOM     39  S   UNL     1       0.151  -5.283   7.587  0.00  0.00    -0.100 S 
ENDBRANCH  34  35
ENDBRANCH  25  34
ENDBRANCH   1  25
TORSDOF 9
