REMARK  Name = ZINC10645918
REMARK  11 active torsions:
REMARK  status: ('A' for Active; 'I' for Inactive)
REMARK    1  A    between atoms: C_1  and  C_2
REMARK    2  A    between atoms: C_7  and  O_8
REMARK    3  A    between atoms: O_8  and  C_9
REMARK    4  A    between atoms: C_9  and  C_10
REMARK    5  A    between atoms: C_13  and  S_21
REMARK    6  A    between atoms: N_14  and  C_15
REMARK    7  A    between atoms: S_21  and  C_22
REMARK    8  A    between atoms: C_22  and  C_24
REMARK    9  A    between atoms: C_22  and  C_25
REMARK   10  A    between atoms: N_27  and  C_28
REMARK   11  A    between atoms: C_30  and  C_33
REMARK                            x       y       z     vdW  Elec       q    Type
REMARK                         _______ _______ _______ _____ _____    ______ ____
ROOT
ATOM      1  C   UNL     1      -1.397  -4.522   0.868  0.00  0.00    +0.176 A 
ATOM      2  N   UNL     1      -0.208  -4.209   0.436  0.00  0.00    -0.130 NA
ATOM      3  N   UNL     1      -0.110  -2.936   0.294  0.00  0.00    -0.122 NA
ATOM      4  C   UNL     1      -1.242  -2.360   0.629  0.00  0.00    +0.197 A 
ATOM      5  N   UNL     1      -2.099  -3.354   1.012  0.00  0.00    -0.271 N 
ENDROOT
BRANCH   5   6
ATOM      6  C   UNL     1      -3.421  -3.209   1.457  0.00  0.00    +0.050 A 
ATOM      7  C   UNL     1      -3.759  -3.556   2.758  0.00  0.00    +0.026 A 
ATOM      8  C   UNL     1      -5.061  -3.406   3.195  0.00  0.00    +0.002 A 
ATOM      9  C   UNL     1      -6.029  -2.923   2.335  0.00  0.00    +0.000 A 
ATOM     10  C   UNL     1      -5.696  -2.582   1.036  0.00  0.00    +0.002 A 
ATOM     11  C   UNL     1      -4.395  -2.724   0.596  0.00  0.00    +0.026 A 
ENDBRANCH   5   6
BRANCH   1  12
ATOM     12  C   UNL     1      -1.905  -5.911   1.160  0.00  0.00    +0.305 C 
BRANCH  12  13
ATOM     13  O   UNL     1      -1.632  -6.240   2.524  0.00  0.00    -0.484 OA
BRANCH  13  20
ATOM     14  C   UNL     1      -1.104  -6.910   5.217  0.00  0.00    +0.047 C 
ATOM     15  C   UNL     1      -1.796  -7.852   4.266  0.00  0.00    -0.009 A 
ATOM     16  C   UNL     1      -2.200  -9.100   4.700  0.00  0.00    +0.007 A 
ATOM     17  C   UNL     1      -2.835  -9.964   3.828  0.00  0.00    +0.000 A 
ATOM     18  C   UNL     1      -3.069  -9.583   2.520  0.00  0.00    +0.004 A 
ATOM     19  C   UNL     1      -2.672  -8.334   2.082  0.00  0.00    +0.046 A 
ATOM     20  C   UNL     1      -2.029  -7.467   2.954  0.00  0.00    +0.124 A 
ENDBRANCH  13  20
ENDBRANCH  12  13
ENDBRANCH   1  12
BRANCH   4  21
ATOM     21  S   UNL     1      -1.587  -0.632   0.598  0.00  0.00    -0.073 S 
BRANCH  21  22
ATOM     22  C   UNL     1       0.002  -0.004   0.002  0.00  0.00    +0.137 C 
ATOM     23  C   UNL     1       0.246  -0.503  -1.424  0.00  0.00    +0.029 C 
BRANCH  22  24
ATOM     24  C   UNL     1      -0.018   1.503   0.010  0.00  0.00    +0.233 C 
ATOM     25  O   UNL     1      -1.077   2.095   0.018  0.00  0.00    -0.274 OA
ATOM     26  N   UNL     1       1.139   2.192   0.003  0.00  0.00    -0.253 N 
ATOM     27  H   UNL     1       1.986   1.719  -0.008  0.00  0.00    +0.158 HD
BRANCH  26  28
ATOM     28  C   UNL     1       1.121   3.580   0.011  0.00  0.00    +0.224 A 
ATOM     29  C   UNL     1       2.201   4.414   0.005  0.00  0.00    +0.092 A 
ATOM     30  C   UNL     1       1.634   5.704   0.017  0.00  0.00    +0.082 A 
ATOM     31  N   UNL     1       0.341   5.540   0.028  0.00  0.00    -0.081 NA
ATOM     32  O   UNL     1       0.036   4.371   0.019  0.00  0.00    -0.339 OA
ATOM     33  C   UNL     1       2.377   7.015   0.016  0.00  0.00    +0.069 C 
ENDBRANCH  26  28
ENDBRANCH  22  24
ENDBRANCH  21  22
ENDBRANCH   4  21
TORSDOF 8
