REMARK  Name = ZINC02071242
REMARK  15 active torsions:
REMARK  status: ('A' for Active; 'I' for Inactive)
REMARK    1  A    between atoms: C_1  and  C_2
REMARK    2  A    between atoms: C_2  and  C_3
REMARK    3  A    between atoms: C_3  and  C_5
REMARK    4  A    between atoms: C_3  and  S_10
REMARK    5  A    between atoms: C_5  and  O_7
REMARK    6  A    between atoms: O_7  and  C_8
REMARK    7  A    between atoms: C_8  and  C_9
REMARK    8  A    between atoms: S_10  and  C_11
REMARK    9  A    between atoms: N_15  and  C_16
REMARK   10  A    between atoms: C_16  and  C_17
REMARK   11  A    between atoms: C_17  and  C_19
REMARK   12  A    between atoms: C_17  and  O_31
REMARK   13  A    between atoms: C_19  and  O_20
REMARK   14  A    between atoms: O_20  and  C_21
REMARK   15  A    between atoms: N_38  and  C_39
REMARK                            x       y       z     vdW  Elec       q    Type
REMARK                         _______ _______ _______ _____ _____    ______ ____
ROOT
ATOM      1  C   UNL     1      -4.553  10.236   1.475  0.00  0.00    +0.172 A 
ATOM      2  N   UNL     1      -4.523  11.530   1.223  0.00  0.00    -0.204 NA
ATOM      3  C   UNL     1      -4.612  11.739  -0.091  0.00  0.00    +0.169 A 
ATOM      4  C   UNL     1      -4.698  10.496  -0.710  0.00  0.00    +0.152 A 
ATOM      5  N   UNL     1      -4.656   9.550   0.305  0.00  0.00    -0.311 N 
ATOM      6  C   UNL     1      -4.802  10.433  -2.111  0.00  0.00    +0.280 A 
ATOM      7  O   UNL     1      -4.879   9.355  -2.674  0.00  0.00    -0.265 OA
ATOM      8  N   UNL     1      -4.815  11.578  -2.825  0.00  0.00    -0.273 N 
ATOM      9  H   UNL     1      -4.888  11.536  -3.821  0.00  0.00    +0.173 HD
ATOM     10  C   UNL     1      -4.731  12.774  -2.217  0.00  0.00    +0.331 A 
ATOM     11  O   UNL     1      -4.747  13.785  -2.892  0.00  0.00    -0.246 OA
ATOM     12  N   UNL     1      -4.630  12.880  -0.878  0.00  0.00    -0.280 N 
ATOM     13  C   UNL     1      -4.541  14.202  -0.254  0.00  0.00    +0.155 C 
ENDROOT
BRANCH   1  14
ATOM     14  S   UNL     1      -4.471   9.509   3.078  0.00  0.00    -0.073 S 
BRANCH  14  15
ATOM     15  C   UNL     1      -4.205  10.991   4.082  0.00  0.00    +0.162 C 
BRANCH  15  17
ATOM     16  C   UNL     1      -2.553   9.839   5.561  0.00  0.00    +0.005 C 
ATOM     17  C   UNL     1      -3.890  10.582   5.523  0.00  0.00    +0.022 C 
ENDBRANCH  15  17
BRANCH  15  18
ATOM     18  C   UNL     1      -5.450  11.841   4.063  0.00  0.00    +0.321 C 
ATOM     19  O   UNL     1      -6.525  11.332   3.848  0.00  0.00    -0.250 OA
BRANCH  18  20
ATOM     20  O   UNL     1      -5.364  13.162   4.283  0.00  0.00    -0.464 OA
BRANCH  20  21
ATOM     21  C   UNL     1      -6.604  13.918   4.249  0.00  0.00    +0.229 C 
ATOM     22  C   UNL     1      -6.308  15.394   4.520  0.00  0.00    +0.048 C 
ENDBRANCH  20  21
ENDBRANCH  18  20
ENDBRANCH  15  18
ENDBRANCH  14  15
ENDBRANCH   1  14
BRANCH   5  23
ATOM     23  C   UNL     1      -4.716   8.095   0.147  0.00  0.00    +0.159 C 
BRANCH  23  24
ATOM     24  C   UNL     1      -3.299   7.540  -0.013  0.00  0.00    +0.171 C 
BRANCH  24  25
ATOM     25  O   UNL     1      -2.730   8.030  -1.229  0.00  0.00    -0.387 OA
ATOM     26  H   UNL     1      -3.225   7.782  -2.022  0.00  0.00    +0.210 HD
ENDBRANCH  24  25
BRANCH  24  27
ATOM     27  C   UNL     1      -3.351   6.012  -0.053  0.00  0.00    +0.262 C 
BRANCH  27  28
ATOM     28  O   UNL     1      -2.021   5.490  -0.085  0.00  0.00    -0.489 OA
BRANCH  28  29
ATOM     29  C   UNL     1      -1.889   4.139  -0.123  0.00  0.00    +0.128 A 
ATOM     30  C   UNL     1      -2.997   3.340  -0.130  0.00  0.00    +0.046 A 
ATOM     31  C   UNL     1      -2.878   1.953  -0.169  0.00  0.00    +0.004 A 
ATOM     32  C   UNL     1      -1.656   1.353  -0.202  0.00  0.00    +0.009 A 
ATOM     33  C   UNL     1      -0.492   2.140  -0.201  0.00  0.00    -0.014 A 
ATOM     34  C   UNL     1      -0.608   3.552  -0.156  0.00  0.00    +0.024 A 
ATOM     35  C   UNL     1       0.556   4.338  -0.150  0.00  0.00    +0.012 A 
ATOM     36  C   UNL     1       1.776   3.736  -0.182  0.00  0.00    +0.001 A 
ATOM     37  C   UNL     1       1.890   2.348  -0.222  0.00  0.00    +0.001 A 
ATOM     38  C   UNL     1       0.785   1.554  -0.229  0.00  0.00    +0.008 A 
ENDBRANCH  28  29
ENDBRANCH  27  28
ENDBRANCH  24  27
ENDBRANCH  23  24
ENDBRANCH   5  23
TORSDOF 12
