REMARK  Name = ZINC38827306
REMARK  11 active torsions:
REMARK  status: ('A' for Active; 'I' for Inactive)
REMARK    1  A    between atoms: C_1  and  O_2
REMARK    2  A    between atoms: O_2  and  C_3
REMARK    3  A    between atoms: C_6  and  C_11
REMARK    4  A    between atoms: C_8  and  O_9
REMARK    5  A    between atoms: O_9  and  C_10
REMARK    6  A    between atoms: C_11  and  C_12
REMARK    7  A    between atoms: C_12  and  N_13
REMARK    8  A    between atoms: C_17  and  C_22
REMARK    9  A    between atoms: C_18  and  C_20
REMARK   10  A    between atoms: C_24  and  C_29
REMARK   11  A    between atoms: C_26  and  N_28
REMARK                            x       y       z     vdW  Elec       q    Type
REMARK                         _______ _______ _______ _____ _____    ______ ____
ROOT
ATOM      1  N   UNL     1       2.253  -3.463   6.558  0.00  0.00    -0.327 N 
ATOM      2  C   UNL     1       2.380  -4.833   6.710  0.00  0.00    +0.144 A 
ATOM      3  C   UNL     1       3.072  -5.161   7.879  0.00  0.00    +0.093 A 
ATOM      4  N   UNL     1       3.294  -6.417   8.202  0.00  0.00    -0.234 NA
ATOM      5  C   UNL     1       2.859  -7.398   7.413  0.00  0.00    +0.176 A 
ATOM      6  C   UNL     1       2.162  -7.081   6.235  0.00  0.00    +0.178 A 
ATOM      7  N   UNL     1       1.942  -5.811   5.917  0.00  0.00    -0.217 NA
ATOM      8  C   UNL     1       3.448  -3.876   8.584  0.00  0.00    +0.109 C 
ATOM      9  C   UNL     1       2.894  -2.765   7.676  0.00  0.00    +0.031 C 
ENDROOT
BRANCH   8  10
ATOM     10  C   UNL     1       4.946  -3.759   8.700  0.00  0.00    +0.119 A 
ATOM     11  N   UNL     1       5.557  -4.344   9.764  0.00  0.00    -0.310 N 
ATOM     12  H   UNL     1       5.026  -4.820  10.421  0.00  0.00    +0.170 HD
ATOM     13  C   UNL     1       6.900  -4.268   9.914  0.00  0.00    +0.259 A 
ATOM     14  O   UNL     1       7.461  -4.787  10.861  0.00  0.00    -0.267 OA
ATOM     15  C   UNL     1       7.656  -3.534   8.888  0.00  0.00    +0.065 A 
ATOM     16  C   UNL     1       9.041  -3.397   8.950  0.00  0.00    +0.015 A 
ATOM     17  C   UNL     1       9.699  -2.698   7.961  0.00  0.00    +0.001 A 
ATOM     18  C   UNL     1       8.993  -2.131   6.908  0.00  0.00    +0.002 A 
ATOM     19  C   UNL     1       7.624  -2.255   6.829  0.00  0.00    +0.028 A 
ATOM     20  C   UNL     1       6.935  -2.959   7.818  0.00  0.00    +0.078 A 
ATOM     21  N   UNL     1       5.587  -3.110   7.777  0.00  0.00    -0.233 NA
ENDBRANCH   8  10
BRANCH   9  22
ATOM     22  N   UNL     1       1.907  -1.960   8.406  0.00  0.00    +0.391 N 
ATOM     23  H   UNL     1       1.169  -2.558   8.745  0.00  0.00    -0.087 HD
ATOM     24  H   UNL     1       2.356  -1.504   9.187  0.00  0.00    -0.087 HD
ATOM     25  H   UNL     1       1.518  -1.263   7.788  0.00  0.00    -0.087 HD
ENDBRANCH   9  22
BRANCH   6  26
ATOM     26  C   UNL     1       1.688  -8.127   5.378  0.00  0.00    +0.122 C 
ATOM     27  N   UNL     1       1.313  -8.956   4.699  0.00  0.00    -0.189 NA
ENDBRANCH   6  26
BRANCH   5  28
ATOM     28  C   UNL     1       3.101  -8.766   7.763  0.00  0.00    +0.122 C 
ATOM     29  N   UNL     1       3.292  -9.851   8.041  0.00  0.00    -0.189 NA
ENDBRANCH   5  28
BRANCH   1  30
ATOM     30  C   UNL     1       1.580  -2.804   5.436  0.00  0.00    +0.109 C 
BRANCH  30  31
ATOM     31  C   UNL     1       2.590  -2.548   4.315  0.00  0.00    +0.054 C 
BRANCH  31  35
ATOM     32  C   UNL     1       0.626  -0.619   1.042  0.00  0.00    +0.161 A 
ATOM     33  C   UNL     1       1.202   0.137   2.051  0.00  0.00    +0.049 A 
ATOM     34  C   UNL     1       1.836  -0.490   3.108  0.00  0.00    +0.007 A 
ATOM     35  C   UNL     1       1.897  -1.870   3.161  0.00  0.00    -0.042 A 
ATOM     36  C   UNL     1       1.325  -2.630   2.158  0.00  0.00    +0.053 A 
ATOM     37  C   UNL     1       0.683  -2.008   1.099  0.00  0.00    +0.162 A 
BRANCH  32  39
ATOM     38  C   UNL     1      -0.017   1.425   0.010  0.00  0.00    +0.277 C 
ATOM     39  O   UNL     1       0.002  -0.004   0.002  0.00  0.00    -0.491 OA
ENDBRANCH  32  39
BRANCH  37  40
ATOM     40  O   UNL     1       0.115  -2.754   0.114  0.00  0.00    -0.491 OA
ATOM     41  C   UNL     1       0.211  -4.174   0.238  0.00  0.00    +0.277 C 
ENDBRANCH  37  40
ENDBRANCH  31  35
ENDBRANCH  30  31
ENDBRANCH   1  30
TORSDOF 9
