REMARK  Name = ZINC34900841
REMARK  4 active torsions:
REMARK  status: ('A' for Active; 'I' for Inactive)
REMARK    1  A    between atoms: N_9  and  C_10
REMARK    2  A    between atoms: C_20  and  C_23
REMARK    3  A    between atoms: N_25  and  C_26
REMARK    4  A    between atoms: C_26  and  C_27
REMARK                            x       y       z     vdW  Elec       q    Type
REMARK                         _______ _______ _______ _____ _____    ______ ____
ROOT
ATOM      1  C   UNL     1       0.416   1.623  -0.734  0.00  0.00    +0.002 A 
ATOM      2  C   UNL     1       0.392   1.620   0.653  0.00  0.00    +0.002 A 
ATOM      3  C   UNL     1       1.055   0.639   1.361  0.00  0.00    +0.028 A 
ATOM      4  C   UNL     1       1.751  -0.350   0.684  0.00  0.00    +0.068 A 
ATOM      5  C   UNL     1       1.779  -0.352  -0.721  0.00  0.00    +0.065 A 
ATOM      6  C   UNL     1       1.102   0.648  -1.423  0.00  0.00    +0.028 A 
ATOM      7  N   UNL     1       2.524  -1.422  -1.104  0.00  0.00    -0.327 N 
ATOM      8  C   UNL     1       2.948  -2.065  -0.045  0.00  0.00    +0.177 A 
ATOM      9  N   UNL     1       2.498  -1.445   1.085  0.00  0.00    -0.310 N 
ATOM     10  N   UNL     1       3.731  -3.200  -0.069  0.00  0.00    -0.302 N 
ATOM     11  C   UNL     1       5.194  -3.098  -0.157  0.00  0.00    +0.108 C 
ATOM     12  C   UNL     1       5.677  -3.946  -1.338  0.00  0.00    +0.020 C 
ATOM     13  C   UNL     1       5.155  -5.376  -1.181  0.00  0.00    +0.016 C 
ATOM     14  C   UNL     1       3.624  -5.366  -1.187  0.00  0.00    +0.092 C 
ATOM     15  C   UNL     1       3.119  -4.534   0.001  0.00  0.00    +0.120 C 
ATOM     16  H   UNL     1       2.713  -1.671  -2.023  0.00  0.00    +0.169 HD
ENDROOT
BRANCH   9  17
ATOM     17  C   UNL     1       2.759  -1.860   2.466  0.00  0.00    +0.090 C 
ATOM     18  C   UNL     1       1.433  -2.157   3.168  0.00  0.00    +0.025 C 
ATOM     19  C   UNL     1       1.705  -2.590   4.610  0.00  0.00    +0.002 C 
ATOM     20  C   UNL     1       2.435  -1.468   5.351  0.00  0.00    +0.000 C 
ATOM     21  C   UNL     1       3.761  -1.171   4.648  0.00  0.00    +0.002 C 
ATOM     22  C   UNL     1       3.489  -0.738   3.207  0.00  0.00    +0.025 C 
ENDBRANCH   9  17
BRANCH  14  23
ATOM     23  C   UNL     1       3.111  -6.778  -1.065  0.00  0.00    +0.218 C 
ATOM     24  O   UNL     1       2.408  -7.089  -0.128  0.00  0.00    -0.275 OA
ATOM     25  N   UNL     1       3.434  -7.695  -1.999  0.00  0.00    -0.309 N 
ATOM     26  H   UNL     1       3.997  -7.446  -2.749  0.00  0.00    +0.149 HD
BRANCH  25  27
ATOM     27  C   UNL     1       2.936  -9.067  -1.881  0.00  0.00    +0.159 C 
BRANCH  27  28
ATOM     28  C   UNL     1       3.437  -9.886  -3.042  0.00  0.00    +0.058 A 
ATOM     29  C   UNL     1       4.584 -10.644  -2.900  0.00  0.00    +0.025 A 
ATOM     30  C   UNL     1       5.037 -11.393  -3.974  0.00  0.00    +0.003 A 
ATOM     31  C   UNL     1       4.316 -11.352  -5.158  0.00  0.00    +0.020 A 
ATOM     32  C   UNL     1       3.178 -10.570  -5.227  0.00  0.00    +0.111 A 
ATOM     33  N   UNL     1       2.774  -9.874  -4.182  0.00  0.00    -0.258 NA
ENDBRANCH  27  28
ENDBRANCH  25  27
ENDBRANCH  14  23
TORSDOF 4
