REMARK  Name = ZINC34683687
REMARK  9 active torsions:
REMARK  status: ('A' for Active; 'I' for Inactive)
REMARK    1  A    between atoms: C_1  and  C_2
REMARK    2  A    between atoms: C_2  and  C_3
REMARK    3  A    between atoms: C_2  and  C_4
REMARK    4  A    between atoms: C_7  and  C_10
REMARK    5  A    between atoms: C_10  and  N_11
REMARK    6  A    between atoms: C_14  and  N_17
REMARK    7  A    between atoms: N_17  and  C_18
REMARK    8  A    between atoms: N_17  and  S_25
REMARK    9  A    between atoms: S_25  and  C_28
REMARK                            x       y       z     vdW  Elec       q    Type
REMARK                         _______ _______ _______ _____ _____    ______ ____
ROOT
ATOM      1  N   UNL     1      -6.832  -1.659  -1.078  0.00  0.00    +0.382 N 
ATOM      2  C   UNL     1      -6.563  -0.480  -0.247  0.00  0.00    -0.077 C 
ATOM      3  C   UNL     1      -7.247   0.746  -0.857  0.00  0.00    +0.006 C 
ATOM      4  C   UNL     1      -8.758   0.500  -0.922  0.00  0.00    +0.095 C 
ATOM      5  C   UNL     1      -9.023  -0.774  -1.729  0.00  0.00    +0.006 C 
ATOM      6  C   UNL     1      -8.273  -1.944  -1.087  0.00  0.00    -0.077 C 
ATOM      7  H   UNL     1      -6.519  -1.483  -2.021  0.00  0.00    -0.081 HD
ENDROOT
BRANCH   1   8
ATOM      8  C   UNL     1      -6.110  -2.816  -0.532  0.00  0.00    -0.043 C 
BRANCH   8  12
ATOM      9  C   UNL     1      -1.903  -2.137  -0.823  0.00  0.00    -0.045 A 
ATOM     10  C   UNL     1      -2.591  -1.739   0.308  0.00  0.00    +0.004 A 
ATOM     11  C   UNL     1      -3.952  -1.959   0.402  0.00  0.00    +0.002 A 
ATOM     12  C   UNL     1      -4.626  -2.576  -0.635  0.00  0.00    -0.064 A 
ATOM     13  C   UNL     1      -3.938  -2.973  -1.767  0.00  0.00    +0.002 A 
ATOM     14  C   UNL     1      -2.578  -2.750  -1.863  0.00  0.00    +0.004 A 
BRANCH   9  16
ATOM     15  C   UNL     1      -0.136  -0.398  -0.824  0.00  0.00    +0.012 C 
ATOM     16  C   UNL     1      -0.418  -1.898  -0.926  0.00  0.00    +0.013 C 
ATOM     17  C   UNL     1       0.296  -2.630   0.212  0.00  0.00    +0.012 C 
ENDBRANCH   9  16
ENDBRANCH   8  12
ENDBRANCH   1   8
BRANCH   4  18
ATOM     18  N   UNL     1      -9.411   1.637  -1.575  0.00  0.00    -0.200 N 
BRANCH  18  19
ATOM     19  C   UNL     1      -9.139   1.925  -2.916  0.00  0.00    +0.052 A 
ATOM     20  C   UNL     1      -7.912   2.466  -3.276  0.00  0.00    +0.027 A 
ATOM     21  C   UNL     1      -7.646   2.749  -4.601  0.00  0.00    +0.040 A 
ATOM     22  C   UNL     1      -8.601   2.494  -5.571  0.00  0.00    +0.124 A 
ATOM     23  C   UNL     1      -9.825   1.954  -5.213  0.00  0.00    +0.040 A 
ATOM     24  C   UNL     1     -10.094   1.664  -3.890  0.00  0.00    +0.027 A 
ATOM     25  F   UNL     1      -8.339   2.771  -6.866  0.00  0.00    -0.205 F 
ENDBRANCH  18  19
BRANCH  18  26
ATOM     26  S   UNL     1     -10.471   2.583  -0.723  0.00  0.00    +0.075 S 
ATOM     27  O   UNL     1     -11.244   3.291  -1.683  0.00  0.00    -0.150 OA
ATOM     28  O   UNL     1     -11.060   1.746   0.262  0.00  0.00    -0.150 OA
BRANCH  26  29
ATOM     29  C   UNL     1      -9.518   3.786   0.142  0.00  0.00    +0.109 A 
ATOM     30  C   UNL     1      -9.050   3.513   1.414  0.00  0.00    +0.029 A 
ATOM     31  C   UNL     1      -8.302   4.456   2.093  0.00  0.00    +0.002 A 
ATOM     32  C   UNL     1      -8.021   5.673   1.499  0.00  0.00    +0.000 A 
ATOM     33  C   UNL     1      -8.488   5.945   0.227  0.00  0.00    +0.002 A 
ATOM     34  C   UNL     1      -9.232   5.000  -0.454  0.00  0.00    +0.029 A 
ENDBRANCH  26  29
ENDBRANCH  18  26
ENDBRANCH   4  18
TORSDOF 7
