REMARK  Name = ZINC17169474
REMARK  6 active torsions:
REMARK  status: ('A' for Active; 'I' for Inactive)
REMARK    1  A    between atoms: C_6  and  N_7
REMARK    2  A    between atoms: C_10  and  S_17
REMARK    3  A    between atoms: S_17  and  C_18
REMARK    4  A    between atoms: C_18  and  C_19
REMARK    5  A    between atoms: N_21  and  C_22
REMARK    6  A    between atoms: C_22  and  C_23
REMARK                            x       y       z     vdW  Elec       q    Type
REMARK                         _______ _______ _______ _____ _____    ______ ____
ROOT
ATOM      1  N   UNL     1      -1.201  -0.722   0.010  0.00  0.00    -0.214 N 
ATOM      2  C   UNL     1      -1.428  -1.910  -0.624  0.00  0.00    +0.171 A 
ATOM      3  N   UNL     1      -0.693  -2.719  -1.383  0.00  0.00    -0.202 NA
ATOM      4  C   UNL     1      -1.207  -3.837  -1.870  0.00  0.00    +0.194 A 
ATOM      5  N   UNL     1      -2.462  -4.206  -1.632  0.00  0.00    -0.183 NA
ATOM      6  C   UNL     1      -3.266  -3.462  -0.887  0.00  0.00    +0.285 A 
ATOM      7  O   UNL     1      -4.542  -3.847  -0.650  0.00  0.00    -0.265 OA
ATOM      8  C   UNL     1      -2.764  -2.264  -0.347  0.00  0.00    +0.105 A 
ATOM      9  C   UNL     1      -3.301  -1.242   0.468  0.00  0.00    +0.150 A 
ATOM     10  N   UNL     1      -2.376  -0.349   0.675  0.00  0.00    -0.172 NA
ENDROOT
BRANCH   1  16
ATOM     11  C   UNL     1      -0.017   1.385   0.010  0.00  0.00    +0.029 A 
ATOM     12  C   UNL     1       1.170   2.090   0.002  0.00  0.00    +0.022 A 
ATOM     13  C   UNL     1       2.378   1.414  -0.013  0.00  0.00    +0.041 A 
ATOM     14  C   UNL     1       2.400   0.031  -0.021  0.00  0.00    +0.022 A 
ATOM     15  C   UNL     1       1.215  -0.680  -0.014  0.00  0.00    +0.029 A 
ATOM     16  C   UNL     1       0.002  -0.004   0.002  0.00  0.00    +0.068 A 
ATOM     17 CL   UNL     1       3.869   2.304  -0.024  0.00  0.00    -0.084 Cl
ENDBRANCH   1  16
BRANCH   4  18
ATOM     18  S   UNL     1      -0.192  -4.873  -2.870  0.00  0.00    -0.077 S 
BRANCH  18  19
ATOM     19  C   UNL     1      -1.277  -6.259  -3.309  0.00  0.00    +0.173 C 
BRANCH  19  20
ATOM     20  C   UNL     1      -0.522  -7.233  -4.176  0.00  0.00    +0.224 C 
ATOM     21  O   UNL     1       0.634  -7.014  -4.469  0.00  0.00    -0.275 OA
ATOM     22  N   UNL     1      -1.132  -8.348  -4.625  0.00  0.00    -0.311 N 
ATOM     23  H   UNL     1      -2.057  -8.523  -4.391  0.00  0.00    +0.149 HD
BRANCH  22  24
ATOM     24  C   UNL     1      -0.398  -9.295  -5.468  0.00  0.00    +0.139 C 
BRANCH  24  25
ATOM     25  C   UNL     1      -1.299 -10.447  -5.832  0.00  0.00    -0.027 A 
ATOM     26  C   UNL     1      -1.356 -11.562  -5.018  0.00  0.00    +0.009 A 
ATOM     27  C   UNL     1      -2.182 -12.621  -5.348  0.00  0.00    +0.050 A 
ATOM     28  C   UNL     1      -2.955 -12.566  -6.497  0.00  0.00    +0.166 A 
ATOM     29  C   UNL     1      -2.897 -11.442  -7.317  0.00  0.00    +0.167 A 
ATOM     30  C   UNL     1      -2.072 -10.382  -6.977  0.00  0.00    +0.054 A 
ATOM     31  O   UNL     1      -3.741 -11.629  -8.373  0.00  0.00    -0.453 OA
ATOM     32  C   UNL     1      -4.006 -13.044  -8.408  0.00  0.00    +0.466 C 
ATOM     33  O   UNL     1      -3.835 -13.457  -7.039  0.00  0.00    -0.453 OA
ENDBRANCH  24  25
ENDBRANCH  22  24
ENDBRANCH  19  20
ENDBRANCH  18  19
ENDBRANCH   4  18
TORSDOF 6
