REMARK  Name = ZINC64870161
REMARK  5 active torsions:
REMARK  status: ('A' for Active; 'I' for Inactive)
REMARK    1  A    between atoms: C_1  and  O_2
REMARK    2  A    between atoms: O_2  and  C_3
REMARK    3  A    between atoms: C_6  and  N_9
REMARK    4  A    between atoms: C_15  and  C_22
REMARK    5  A    between atoms: C_25  and  C_29
REMARK                            x       y       z     vdW  Elec       q    Type
REMARK                         _______ _______ _______ _____ _____    ______ ____
ROOT
ATOM      1  N   UNL     1       2.539  -2.454  -4.260  0.00  0.00    -0.229 N 
ATOM      2  C   UNL     1       2.587  -3.803  -4.314  0.00  0.00    +0.269 A 
ATOM      3  O   UNL     1       2.101  -4.481  -3.429  0.00  0.00    -0.266 OA
ATOM      4  C   UNL     1       3.242  -4.432  -5.475  0.00  0.00    +0.063 A 
ATOM      5  C   UNL     1       3.331  -5.816  -5.604  0.00  0.00    +0.016 A 
ATOM      6  C   UNL     1       3.954  -6.356  -6.710  0.00  0.00    +0.008 A 
ATOM      7  C   UNL     1       4.489  -5.530  -7.687  0.00  0.00    -0.000 A 
ATOM      8  C   UNL     1       4.407  -4.157  -7.571  0.00  0.00    +0.034 A 
ATOM      9  C   UNL     1       3.784  -3.596  -6.466  0.00  0.00    +0.056 A 
ATOM     10  N   UNL     1       3.680  -2.222  -6.311  0.00  0.00    -0.307 N 
ATOM     11  H   UNL     1       4.049  -1.632  -6.987  0.00  0.00    +0.170 HD
ATOM     12  C   UNL     1       3.067  -1.698  -5.235  0.00  0.00    +0.334 A 
ATOM     13  O   UNL     1       2.993  -0.489  -5.138  0.00  0.00    -0.246 OA
ENDROOT
BRANCH   7  14
ATOM     14  C   UNL     1       5.166  -6.138  -8.889  0.00  0.00    +0.242 C 
ATOM     15  N   UNL     1       6.527  -5.575  -9.037  0.00  0.00    -0.265 NA
ATOM     16  C   UNL     1       6.704  -5.442 -10.509  0.00  0.00    +0.180 C 
ATOM     17  N   UNL     1       5.342  -5.045 -10.955  0.00  0.00    -0.177 NA
ATOM     18  O   UNL     1       4.434  -5.812 -10.079  0.00  0.00    -0.274 OA
ATOM     19  H   UNL     1       6.598  -4.677  -8.582  0.00  0.00    +0.127 HD
ATOM     20  H   UNL     1       5.201  -4.052 -10.844  0.00  0.00    +0.156 HD
BRANCH  16  21
ATOM     21  C   UNL     1       7.714  -4.372 -10.833  0.00  0.00    -0.013 A 
ATOM     22  C   UNL     1       8.750  -4.111  -9.956  0.00  0.00    +0.006 A 
ATOM     23  C   UNL     1       9.677  -3.129 -10.253  0.00  0.00    +0.001 A 
ATOM     24  C   UNL     1       9.567  -2.407 -11.427  0.00  0.00    +0.015 A 
ATOM     25  C   UNL     1       8.530  -2.668 -12.305  0.00  0.00    +0.018 A 
ATOM     26  C   UNL     1       7.606  -3.655 -12.010  0.00  0.00    +0.021 A 
ATOM     27 BR   UNL     1       8.379  -1.681 -13.911  0.00  0.00    -0.050 Br
ENDBRANCH  16  21
ENDBRANCH   7  14
BRANCH   1  31
ATOM     28  C   UNL     1       0.699  -0.604  -1.005  0.00  0.00    +0.120 A 
ATOM     29  C   UNL     1      -0.034  -0.886  -2.148  0.00  0.00    +0.047 A 
ATOM     30  C   UNL     1       0.574  -1.498  -3.226  0.00  0.00    +0.030 A 
ATOM     31  C   UNL     1       1.921  -1.832  -3.165  0.00  0.00    +0.055 A 
ATOM     32  C   UNL     1       2.654  -1.549  -2.021  0.00  0.00    +0.030 A 
ATOM     33  C   UNL     1       2.046  -0.932  -0.946  0.00  0.00    +0.047 A 
BRANCH  28  35
ATOM     34  C   UNL     1      -1.290   0.309  -0.074  0.00  0.00    +0.277 C 
ATOM     35  O   UNL     1       0.100  -0.001   0.055  0.00  0.00    -0.495 OA
ENDBRANCH  28  35
ENDBRANCH   1  31
TORSDOF 4
