REMARK  Name = ZINC34756094
REMARK  6 active torsions:
REMARK  status: ('A' for Active; 'I' for Inactive)
REMARK    1  A    between atoms: C_1  and  C_2
REMARK    2  A    between atoms: C_2  and  C_4
REMARK    3  A    between atoms: C_4  and  S_5
REMARK    4  A    between atoms: S_5  and  C_6
REMARK    5  A    between atoms: N_22  and  C_25
REMARK    6  A    between atoms: C_25  and  C_26
REMARK                            x       y       z     vdW  Elec       q    Type
REMARK                         _______ _______ _______ _____ _____    ______ ____
ROOT
ATOM      1  C   UNL     1      -1.175  -3.208  -3.746  0.00  0.00    +0.191 A 
ATOM      2  N   UNL     1      -2.243  -3.294  -4.530  0.00  0.00    -0.206 NA
ATOM      3  C   UNL     1      -2.497  -2.400  -5.471  0.00  0.00    +0.134 A 
ATOM      4  C   UNL     1      -1.602  -1.309  -5.655  0.00  0.00    +0.051 A 
ATOM      5  C   UNL     1      -1.680  -0.214  -6.625  0.00  0.00    -0.025 A 
ATOM      6  C   UNL     1      -0.694   0.704  -6.592  0.00  0.00    -0.004 A 
ATOM      7  S   UNL     1       0.386   0.176  -5.288  0.00  0.00    -0.073 S 
ATOM      8  C   UNL     1      -0.492  -1.282  -4.788  0.00  0.00    +0.115 A 
ATOM      9  N   UNL     1      -0.309  -2.210  -3.869  0.00  0.00    -0.215 NA
ATOM     10  C   UNL     1      -0.545   1.908  -7.471  0.00  0.00    +0.043 C 
ATOM     11  C   UNL     1      -1.487   1.751  -8.672  0.00  0.00    +0.005 C 
ATOM     12  C   UNL     1      -2.870   1.336  -8.161  0.00  0.00    +0.005 C 
ATOM     13  C   UNL     1      -2.819  -0.099  -7.635  0.00  0.00    +0.037 C 
ATOM     14  N   UNL     1      -3.621  -2.525  -6.268  0.00  0.00    -0.318 N 
ATOM     15  C   UNL     1      -3.545  -3.175  -7.586  0.00  0.00    +0.088 C 
ATOM     16  C   UNL     1      -4.653  -4.230  -7.671  0.00  0.00    -0.059 C 
ATOM     17  N   UNL     1      -5.948  -3.603  -7.377  0.00  0.00    +0.387 N 
ATOM     18  C   UNL     1      -5.968  -3.121  -5.990  0.00  0.00    -0.059 C 
ATOM     19  C   UNL     1      -4.926  -2.016  -5.820  0.00  0.00    +0.088 C 
ATOM     20  H   UNL     1      -6.094  -2.827  -8.004  0.00  0.00    -0.081 HD
ENDROOT
BRANCH   1  21
ATOM     21  S   UNL     1      -0.905  -4.439  -2.515  0.00  0.00    -0.082 S 
BRANCH  21  22
ATOM     22  C   UNL     1       0.631  -3.919  -1.702  0.00  0.00    +0.107 C 
BRANCH  22  24
ATOM     23  C   UNL     1       0.211  -4.891   0.684  0.00  0.00    +0.039 C 
ATOM     24  C   UNL     1       0.980  -4.900  -0.613  0.00  0.00    -0.069 C 
ATOM     25  C   UNL     1       1.951  -5.760  -0.792  0.00  0.00    +0.008 C 
ENDBRANCH  22  24
ENDBRANCH  21  22
ENDBRANCH   1  21
BRANCH  17  26
ATOM     26  C   UNL     1      -7.021  -4.589  -7.566  0.00  0.00    +0.019 C 
BRANCH  26  27
ATOM     27  C   UNL     1      -8.358  -3.918  -7.385  0.00  0.00    +0.199 C 
ATOM     28  O   UNL     1      -8.412  -2.734  -7.125  0.00  0.00    -0.278 OA
ATOM     29  N   UNL     1      -9.493  -4.632  -7.513  0.00  0.00    -0.299 N 
ATOM     30  C   UNL     1      -9.453  -6.070  -7.822  0.00  0.00    +0.136 C 
ATOM     31  C   UNL     1     -10.339  -6.807  -6.812  0.00  0.00    +0.179 C 
ATOM     32  O   UNL     1     -11.632  -6.199  -6.787  0.00  0.00    -0.377 OA
ATOM     33  C   UNL     1     -11.630  -4.835  -6.359  0.00  0.00    +0.179 C 
ATOM     34  C   UNL     1     -10.810  -3.998  -7.341  0.00  0.00    +0.136 C 
ENDBRANCH  26  27
ENDBRANCH  17  26
TORSDOF 5
