REMARK  Name = ZINC48280169
REMARK  12 active torsions:
REMARK  status: ('A' for Active; 'I' for Inactive)
REMARK    1  A    between atoms: C_1  and  C_2
REMARK    2  A    between atoms: N_5  and  C_11
REMARK    3  A    between atoms: C_7  and  C_10
REMARK    4  A    between atoms: C_16  and  N_17
REMARK    5  A    between atoms: N_20  and  C_21
REMARK    6  A    between atoms: N_20  and  C_29
REMARK    7  A    between atoms: C_21  and  C_22
REMARK    8  A    between atoms: C_22  and  C_23
REMARK    9  A    between atoms: C_29  and  C_30
REMARK   10  A    between atoms: C_30  and  N_31
REMARK   11  A    between atoms: N_31  and  C_32
REMARK   12  A    between atoms: N_31  and  C_33
REMARK                            x       y       z     vdW  Elec       q    Type
REMARK                         _______ _______ _______ _____ _____    ______ ____
ROOT
ATOM      1  N   UNL     1      -4.019  -2.731   0.810  0.00  0.00    -0.268 N 
ATOM      2  C   UNL     1      -5.316  -3.004   1.052  0.00  0.00    +0.306 C 
ATOM      3  O   UNL     1      -5.930  -3.746   0.310  0.00  0.00    -0.252 OA
ATOM      4  N   UNL     1      -5.934  -2.455   2.117  0.00  0.00    -0.287 N 
ATOM      5  H   UNL     1      -3.507  -2.206   1.445  0.00  0.00    +0.156 HD
ENDROOT
BRANCH   1  11
ATOM      6  C   UNL     1      -2.027  -3.389  -0.403  0.00  0.00    +0.051 A 
ATOM      7  C   UNL     1      -1.431  -3.865  -1.561  0.00  0.00    +0.025 A 
ATOM      8  C   UNL     1      -2.205  -4.150  -2.670  0.00  0.00    +0.002 A 
ATOM      9  C   UNL     1      -3.574  -3.962  -2.629  0.00  0.00    +0.002 A 
ATOM     10  C   UNL     1      -4.177  -3.488  -1.479  0.00  0.00    +0.025 A 
ATOM     11  C   UNL     1      -3.409  -3.206  -0.360  0.00  0.00    +0.056 A 
BRANCH   6  15
ATOM     12  C   UNL     1       1.398  -0.549   1.623  0.00  0.00    +0.039 C 
ATOM     13  C   UNL     1       0.820  -1.906   1.218  0.00  0.00    +0.133 C 
ATOM     14  C   UNL     1      -0.678  -1.758   0.924  0.00  0.00    +0.136 C 
ATOM     15  N   UNL     1      -1.246  -3.100   0.721  0.00  0.00    -0.324 N 
ATOM     16  C   UNL     1      -0.968  -4.129   1.736  0.00  0.00    +0.136 C 
ATOM     17  C   UNL     1       0.543  -4.162   1.990  0.00  0.00    +0.133 C 
ATOM     18  O   UNL     1       1.000  -2.840   2.285  0.00  0.00    -0.371 OA
ATOM     19  C   UNL     1       1.260  -4.684   0.744  0.00  0.00    +0.039 C 
ENDBRANCH   6  15
ENDBRANCH   1  11
BRANCH   4  20
ATOM     20  C   UNL     1      -7.344  -2.752   2.380  0.00  0.00    +0.114 C 
BRANCH  20  21
ATOM     21  C   UNL     1      -7.446  -3.986   3.280  0.00  0.00    +0.054 C 
BRANCH  21  22
ATOM     22  C   UNL     1      -8.897  -4.291   3.550  0.00  0.00    -0.046 A 
ATOM     23  C   UNL     1      -9.531  -3.724   4.639  0.00  0.00    +0.004 A 
ATOM     24  C   UNL     1     -10.862  -4.004   4.887  0.00  0.00    +0.000 A 
ATOM     25  C   UNL     1     -11.558  -4.852   4.046  0.00  0.00    +0.000 A 
ATOM     26  C   UNL     1     -10.924  -5.419   2.957  0.00  0.00    +0.000 A 
ATOM     27  C   UNL     1      -9.595  -5.135   2.706  0.00  0.00    +0.004 A 
ENDBRANCH  21  22
ENDBRANCH  20  21
ENDBRANCH   4  20
BRANCH   4  28
ATOM     28  C   UNL     1      -5.194  -1.561   3.012  0.00  0.00    +0.091 C 
BRANCH  28  29
ATOM     29  C   UNL     1      -5.325  -0.120   2.515  0.00  0.00    -0.060 C 
BRANCH  29  30
ATOM     30  N   UNL     1      -4.584   0.776   3.412  0.00  0.00    +0.377 N 
ATOM     31  C   UNL     1      -4.610   2.142   2.871  0.00  0.00    -0.097 C 
ATOM     32  C   UNL     1      -5.208   0.765   4.742  0.00  0.00    -0.097 C 
ATOM     33  H   UNL     1      -3.628   0.462   3.487  0.00  0.00    -0.083 HD
ENDBRANCH  29  30
ENDBRANCH  28  29
ENDBRANCH   4  28
TORSDOF 8
