REMARK  Name = ZINC39599593
REMARK  10 active torsions:
REMARK  status: ('A' for Active; 'I' for Inactive)
REMARK    1  A    between atoms: C_1  and  C_2
REMARK    2  A    between atoms: C_7  and  O_8
REMARK    3  A    between atoms: O_8  and  C_9
REMARK    4  A    between atoms: C_9  and  C_10
REMARK    5  A    between atoms: C_10  and  O_12
REMARK    6  A    between atoms: O_12  and  C_13
REMARK    7  A    between atoms: C_13  and  C_15
REMARK    8  A    between atoms: C_13  and  C_21
REMARK    9  A    between atoms: N_23  and  C_24
REMARK   10  A    between atoms: C_27  and  N_31
REMARK                            x       y       z     vdW  Elec       q    Type
REMARK                         _______ _______ _______ _____ _____    ______ ____
ROOT
ATOM      1  C   UNL     1       0.080   0.484   7.111  0.00  0.00    +0.292 C 
ENDROOT
BRANCH   1   2
ATOM      2  C   UNL     1       1.498   0.822   7.490  0.00  0.00    +0.002 A 
ATOM      3  C   UNL     1       2.487  -0.140   7.395  0.00  0.00    +0.008 A 
ATOM      4  C   UNL     1       3.788   0.170   7.743  0.00  0.00    +0.000 A 
ATOM      5  C   UNL     1       4.101   1.442   8.186  0.00  0.00    +0.000 A 
ATOM      6  C   UNL     1       3.113   2.404   8.280  0.00  0.00    +0.000 A 
ATOM      7  C   UNL     1       1.812   2.095   7.928  0.00  0.00    +0.008 A 
ENDBRANCH   1   2
BRANCH   1   8
ATOM      8  C   UNL     1      -0.621  -0.139   8.291  0.00  0.00    +0.263 C 
ATOM      9  O   UNL     1      -0.991  -1.292   8.237  0.00  0.00    -0.271 OA
ATOM     10  N   UNL     1      -0.837   0.587   9.406  0.00  0.00    -0.281 N 
ATOM     11  H   UNL     1      -0.484   1.488   9.474  0.00  0.00    +0.155 HD
BRANCH  10  12
ATOM     12  C   UNL     1      -1.570   0.040  10.465  0.00  0.00    +0.048 A 
ATOM     13  C   UNL     1      -1.473  -1.315  10.752  0.00  0.00    +0.026 A 
ATOM     14  C   UNL     1      -2.198  -1.851  11.799  0.00  0.00    +0.034 A 
ATOM     15  C   UNL     1      -3.020  -1.041  12.560  0.00  0.00    +0.127 A 
ATOM     16  C   UNL     1      -3.119   0.309  12.278  0.00  0.00    +0.049 A 
ATOM     17  C   UNL     1      -2.392   0.854  11.236  0.00  0.00    +0.041 A 
ATOM     18 BR   UNL     1      -2.522   2.701  10.855  0.00  0.00    -0.048 Br
BRANCH  15  19
ATOM     19  N   UNL     1      -3.795  -1.619  13.680  0.00  0.00    +0.056 N 
ATOM     20  O   UNL     1      -3.710  -2.800  13.928  0.00  0.00    -0.126 OA
ATOM     21  O   UNL     1      -4.514  -0.912  14.347  0.00  0.00    -0.126 OA
ENDBRANCH  15  19
ENDBRANCH  10  12
ENDBRANCH   1   8
BRANCH   1  22
ATOM     22  O   UNL     1       0.085  -0.439   6.019  0.00  0.00    -0.445 OA
BRANCH  22  23
ATOM     23  C   UNL     1       0.077   0.081   4.782  0.00  0.00    +0.346 C 
ATOM     24  O   UNL     1       0.065   1.280   4.630  0.00  0.00    -0.247 OA
BRANCH  23  25
ATOM     25  C   UNL     1       0.082  -0.830   3.582  0.00  0.00    +0.349 C 
BRANCH  25  26
ATOM     26  O   UNL     1       0.071  -0.045   2.387  0.00  0.00    -0.481 OA
BRANCH  26  33
ATOM     27  C   UNL     1       0.049   1.488   0.015  0.00  0.00    +0.047 C 
ATOM     28  C   UNL     1       0.064  -0.019   0.009  0.00  0.00    -0.009 A 
ATOM     29  C   UNL     1       0.073  -0.705  -1.190  0.00  0.00    +0.007 A 
ATOM     30  C   UNL     1       0.086  -2.088  -1.197  0.00  0.00    +0.000 A 
ATOM     31  C   UNL     1       0.091  -2.787  -0.004  0.00  0.00    +0.004 A 
ATOM     32  C   UNL     1       0.082  -2.105   1.198  0.00  0.00    +0.046 A 
ATOM     33  C   UNL     1       0.074  -0.718   1.207  0.00  0.00    +0.124 A 
ENDBRANCH  26  33
ENDBRANCH  25  26
ENDBRANCH  23  25
ENDBRANCH  22  23
ENDBRANCH   1  22
TORSDOF 9
