REMARK  Name = ZINC12329689
REMARK  10 active torsions:
REMARK  status: ('A' for Active; 'I' for Inactive)
REMARK    1  A    between atoms: C_1  and  O_2
REMARK    2  A    between atoms: O_2  and  C_3
REMARK    3  A    between atoms: C_6  and  C_11
REMARK    4  A    between atoms: C_8  and  O_9
REMARK    5  A    between atoms: O_9  and  C_10
REMARK    6  A    between atoms: C_11  and  C_13
REMARK    7  A    between atoms: C_11  and  O_31
REMARK    8  A    between atoms: C_13  and  N_59
REMARK    9  A    between atoms: C_20  and  O_30
REMARK   10  A    between atoms: C_24  and  O_29
REMARK                            x       y       z     vdW  Elec       q    Type
REMARK                         _______ _______ _______ _____ _____    ______ ____
ROOT
ATOM      1  C   UNL     1       1.412   1.734   2.375  0.00  0.00    -0.075 C 
ATOM      2  C   UNL     1       2.140   1.086   3.556  0.00  0.00    +0.029 C 
ATOM      3  C   UNL     1       1.558   1.622   4.865  0.00  0.00    +0.110 C 
ATOM      4  C   UNL     1       0.054   1.341   4.905  0.00  0.00    +0.029 C 
ATOM      5  C   UNL     1      -0.612   1.983   3.686  0.00  0.00    -0.075 C 
ATOM      6  C   UNL     1       2.240   0.931   6.051  0.00  0.00    +0.084 C 
ATOM      7  C   UNL     1       1.561   1.403   7.339  0.00  0.00    +0.152 C 
ATOM      8  C   UNL     1       1.433   2.905   7.327  0.00  0.00    +0.026 A 
ATOM      9  C   UNL     1       1.192   3.561   8.522  0.00  0.00    +0.055 A 
ATOM     10  C   UNL     1       1.057   4.940   8.548  0.00  0.00    +0.117 A 
ATOM     11  C   UNL     1       1.164   5.666   7.371  0.00  0.00    +0.049 A 
ATOM     12  C   UNL     1       1.407   5.014   6.180  0.00  0.00    +0.049 A 
ATOM     13  C   UNL     1       1.545   3.630   6.154  0.00  0.00    +0.127 A 
ATOM     14  O   UNL     1       1.790   3.026   4.960  0.00  0.00    -0.485 OA
ATOM     15  N   UNL     1      -0.027   1.401   2.459  0.00  0.00    +0.382 N 
ATOM     16  H   UNL     1      -0.131   0.381   2.491  0.00  0.00    -0.082 HD
ENDROOT
BRANCH  10  17
ATOM     17  O   UNL     1       0.819   5.579   9.724  0.00  0.00    -0.507 OA
ATOM     18  H   UNL     1       1.621   5.847  10.195  0.00  0.00    +0.292 HD
ENDBRANCH  10  17
BRANCH   7  19
ATOM     19  O   UNL     1       2.346   1.001   8.463  0.00  0.00    -0.387 OA
ATOM     20  H   UNL     1       1.974   1.263   9.316  0.00  0.00    +0.210 HD
ENDBRANCH   7  19
BRANCH  15  21
ATOM     21  C   UNL     1      -0.733   1.918   1.269  0.00  0.00    -0.042 C 
BRANCH  21  22
ATOM     22  C   UNL     1      -0.034   1.401   0.010  0.00  0.00    +0.128 C 
BRANCH  22  26
ATOM     23  C   UNL     1      -2.155   2.744  -3.452  0.00  0.00    +0.162 A 
ATOM     24  C   UNL     1      -2.614   1.649  -2.736  0.00  0.00    +0.050 A 
ATOM     25  C   UNL     1      -1.926   1.218  -1.617  0.00  0.00    +0.010 A 
ATOM     26  C   UNL     1      -0.780   1.875  -1.210  0.00  0.00    -0.017 A 
ATOM     27  C   UNL     1      -0.321   2.971  -1.917  0.00  0.00    +0.055 A 
ATOM     28  C   UNL     1      -1.003   3.406  -3.042  0.00  0.00    +0.162 A 
BRANCH  23  30
ATOM     29  C   UNL     1      -4.007   2.441  -4.914  0.00  0.00    +0.277 C 
ATOM     30  O   UNL     1      -2.831   3.170  -4.553  0.00  0.00    -0.491 OA
ENDBRANCH  23  30
BRANCH  28  31
ATOM     31  O   UNL     1      -0.549   4.481  -3.741  0.00  0.00    -0.491 OA
ATOM     32  C   UNL     1       0.640   5.112  -3.262  0.00  0.00    +0.277 C 
ENDBRANCH  28  31
ENDBRANCH  22  26
BRANCH  22  33
ATOM     33  O   UNL     1      -0.013  -0.028   0.030  0.00  0.00    -0.389 OA
ATOM     34  H   UNL     1      -0.890  -0.434   0.056  0.00  0.00    +0.210 HD
ENDBRANCH  22  33
ENDBRANCH  21  22
ENDBRANCH  15  21
TORSDOF 8
