REMARK  Name = ZINC01283454
REMARK  9 active torsions:
REMARK  status: ('A' for Active; 'I' for Inactive)
REMARK    1  A    between atoms: C_1  and  C_2
REMARK    2  A    between atoms: C_2  and  O_3
REMARK    3  A    between atoms: O_3  and  C_4
REMARK    4  A    between atoms: C_4  and  C_6
REMARK    5  A    between atoms: C_7  and  C_30
REMARK    6  A    between atoms: C_11  and  S_21
REMARK    7  A    between atoms: C_14  and  C_16
REMARK    8  A    between atoms: S_21  and  C_22
REMARK    9  A    between atoms: C_22  and  C_23
REMARK                            x       y       z     vdW  Elec       q    Type
REMARK                         _______ _______ _______ _____ _____    ______ ____
ROOT
ATOM      1  C   UNL     1       1.654  -2.380   2.326  0.00  0.00    +0.085 C 
ATOM      2  C   UNL     1       1.478  -3.684   2.590  0.00  0.00    +0.020 C 
ATOM      3  N   UNL     1       1.911  -4.258   3.759  0.00  0.00    -0.287 N 
ATOM      4  C   UNL     1       2.304  -3.406   4.782  0.00  0.00    +0.220 A 
ATOM      5  N   UNL     1       2.541  -3.658   6.041  0.00  0.00    -0.187 NA
ATOM      6  C   UNL     1       2.891  -2.524   6.666  0.00  0.00    +0.211 A 
ATOM      7  N   UNL     1       2.881  -1.535   5.799  0.00  0.00    -0.141 NA
ATOM      8  N   UNL     1       2.507  -2.082   4.572  0.00  0.00    -0.217 N 
ATOM      9  C   UNL     1       2.351  -1.437   3.270  0.00  0.00    +0.214 C 
ATOM     10  C   UNL     1       0.782  -4.547   1.569  0.00  0.00    +0.061 C 
ATOM     11  H   UNL     1       1.940  -5.221   3.867  0.00  0.00    +0.155 HD
ENDROOT
BRANCH   9  12
ATOM     12  C   UNL     1       3.706  -1.081   2.715  0.00  0.00    +0.134 A 
ATOM     13  C   UNL     1       4.130   0.159   2.409  0.00  0.00    +0.047 A 
ATOM     14  C   UNL     1       5.452   0.031   1.923  0.00  0.00    +0.041 A 
ATOM     15  C   UNL     1       5.756  -1.278   1.961  0.00  0.00    +0.195 A 
ATOM     16  O   UNL     1       4.697  -1.946   2.446  0.00  0.00    -0.465 OA
ENDBRANCH   9  12
BRANCH   1  17
ATOM     17  C   UNL     1       1.167  -1.870   1.102  0.00  0.00    +0.339 C 
ATOM     18  O   UNL     1       0.163  -1.182   1.085  0.00  0.00    -0.245 OA
BRANCH  17  19
ATOM     19  O   UNL     1       1.815  -2.145  -0.050  0.00  0.00    -0.462 OA
BRANCH  19  21
ATOM     20  C   UNL     1       2.131  -2.012  -2.442  0.00  0.00    +0.048 C 
ATOM     21  C   UNL     1       1.267  -1.596  -1.250  0.00  0.00    +0.229 C 
ENDBRANCH  19  21
ENDBRANCH  17  19
ENDBRANCH   1  17
BRANCH   6  22
ATOM     22  S   UNL     1       3.299  -2.383   8.375  0.00  0.00    -0.080 S 
BRANCH  22  23
ATOM     23  C   UNL     1       3.127  -4.074   9.009  0.00  0.00    +0.114 C 
BRANCH  23  24
ATOM     24  C   UNL     1       3.452  -4.094  10.480  0.00  0.00    -0.019 A 
ATOM     25  C   UNL     1       4.752  -4.311  10.898  0.00  0.00    +0.006 A 
ATOM     26  C   UNL     1       5.050  -4.329  12.248  0.00  0.00    +0.000 A 
ATOM     27  C   UNL     1       4.048  -4.131  13.180  0.00  0.00    +0.001 A 
ATOM     28  C   UNL     1       2.749  -3.914  12.764  0.00  0.00    +0.020 A 
ATOM     29  C   UNL     1       2.451  -3.889  11.413  0.00  0.00    +0.045 A 
ATOM     30 CL   UNL     1       0.820  -3.610  10.888  0.00  0.00    -0.083 Cl
ENDBRANCH  23  24
ENDBRANCH  22  23
ENDBRANCH   6  22
TORSDOF 7
