REMARK  Name = ZINC04638452
REMARK  15 active torsions:
REMARK  status: ('A' for Active; 'I' for Inactive)
REMARK    1  A    between atoms: C_1  and  C_2
REMARK    2  A    between atoms: C_2  and  O_3
REMARK    3  A    between atoms: O_3  and  C_4
REMARK    4  A    between atoms: C_4  and  C_6
REMARK    5  A    between atoms: C_8  and  C_34
REMARK    6  A    between atoms: C_15  and  C_26
REMARK    7  A    between atoms: C_17  and  C_21
REMARK    8  A    between atoms: C_18  and  C_20
REMARK    9  A    between atoms: C_21  and  O_23
REMARK   10  A    between atoms: O_23  and  C_24
REMARK   11  A    between atoms: C_24  and  C_25
REMARK   12  A    between atoms: C_31  and  O_32
REMARK   13  A    between atoms: O_32  and  C_33
REMARK   14  A    between atoms: C_39  and  O_40
REMARK   15  A    between atoms: O_40  and  C_41
REMARK                            x       y       z     vdW  Elec       q    Type
REMARK                         _______ _______ _______ _____ _____    ______ ____
ROOT
ATOM      1  C   UNL     1       1.400  -2.686  -2.448  0.00  0.00    +0.176 C 
ATOM      2  C   UNL     1       1.082  -4.184  -2.475  0.00  0.00    +0.049 C 
ATOM      3  C   UNL     1       1.690  -4.787  -3.743  0.00  0.00    +0.060 C 
ATOM      4  C   UNL     1       1.131  -4.085  -4.956  0.00  0.00    +0.016 C 
ATOM      5  C   UNL     1       0.757  -2.789  -4.899  0.00  0.00    +0.025 C 
ATOM      6  C   UNL     1       0.877  -2.050  -3.707  0.00  0.00    +0.176 C 
ATOM      7  O   UNL     1       0.551  -0.880  -3.694  0.00  0.00    -0.291 OA
ATOM      8  C   UNL     1       0.195  -2.095  -6.114  0.00  0.00    +0.096 C 
ATOM      9  C   UNL     1       0.519  -2.855  -7.366  0.00  0.00    +0.065 C 
ATOM     10  C   UNL     1       0.902  -4.143  -7.321  0.00  0.00    +0.016 C 
ATOM     11  N   UNL     1       1.012  -4.791  -6.123  0.00  0.00    -0.321 N 
ATOM     12  C   UNL     1       1.211  -4.877  -8.600  0.00  0.00    +0.061 C 
ATOM     13  H   UNL     1       1.006  -5.761  -6.099  0.00  0.00    +0.152 HD
ENDROOT
BRANCH   8  14
ATOM     14  C   UNL     1      -1.301  -1.987  -5.975  0.00  0.00    +0.006 A 
ATOM     15  C   UNL     1      -2.068  -3.130  -5.848  0.00  0.00    +0.008 A 
ATOM     16  C   UNL     1      -3.441  -3.032  -5.722  0.00  0.00    +0.001 A 
ATOM     17  C   UNL     1      -4.051  -1.791  -5.720  0.00  0.00    +0.004 A 
ATOM     18  C   UNL     1      -3.289  -0.645  -5.846  0.00  0.00    +0.046 A 
ATOM     19  C   UNL     1      -1.910  -0.741  -5.968  0.00  0.00    +0.124 A 
BRANCH  19  20
ATOM     20  O   UNL     1      -1.158   0.385  -6.087  0.00  0.00    -0.495 OA
ATOM     21  C   UNL     1      -1.852   1.634  -6.072  0.00  0.00    +0.277 C 
ENDBRANCH  19  20
ENDBRANCH   8  14
BRANCH   2  22
ATOM     22  C   UNL     1       1.674  -4.850  -1.259  0.00  0.00    -0.001 A 
ATOM     23  C   UNL     1       3.037  -4.800  -1.039  0.00  0.00    +0.007 A 
ATOM     24  C   UNL     1       3.581  -5.410   0.076  0.00  0.00    +0.001 A 
ATOM     25  C   UNL     1       2.763  -6.072   0.973  0.00  0.00    +0.004 A 
ATOM     26  C   UNL     1       1.400  -6.124   0.758  0.00  0.00    +0.046 A 
ATOM     27  C   UNL     1       0.851  -5.508  -0.358  0.00  0.00    +0.124 A 
BRANCH  27  28
ATOM     28  O   UNL     1      -0.491  -5.553  -0.569  0.00  0.00    -0.495 OA
ATOM     29  C   UNL     1      -1.277  -6.248   0.401  0.00  0.00    +0.277 C 
ENDBRANCH  27  28
ENDBRANCH   2  22
BRANCH   1  30
ATOM     30  C   UNL     1       0.740  -2.051  -1.251  0.00  0.00    +0.318 C 
ATOM     31  O   UNL     1       0.085  -2.727  -0.493  0.00  0.00    -0.250 OA
BRANCH  30  32
ATOM     32  O   UNL     1       0.880  -0.735  -1.026  0.00  0.00    -0.464 OA
BRANCH  32  34
ATOM     33  C   UNL     1       0.498   1.302   0.216  0.00  0.00    +0.048 C 
ATOM     34  C   UNL     1       0.227  -0.201   0.127  0.00  0.00    +0.229 C 
ENDBRANCH  32  34
ENDBRANCH  30  32
ENDBRANCH   1  30
BRANCH   9  35
ATOM     35  C   UNL     1       0.420  -2.204  -8.618  0.00  0.00    +0.338 C 
ATOM     36  O   UNL     1       0.796  -2.769  -9.629  0.00  0.00    -0.245 OA
BRANCH  35  37
ATOM     37  O   UNL     1      -0.090  -0.958  -8.692  0.00  0.00    -0.462 OA
BRANCH  37  38
ATOM     38  C   UNL     1      -0.161  -0.361  -9.989  0.00  0.00    +0.229 C 
ATOM     39  C   UNL     1      -0.763   1.041  -9.873  0.00  0.00    +0.048 C 
ENDBRANCH  37  38
ENDBRANCH  35  37
ENDBRANCH   9  35
TORSDOF 10
