REMARK  Name = ZINC12150621
REMARK  12 active torsions:
REMARK  status: ('A' for Active; 'I' for Inactive)
REMARK    1  A    between atoms: C_1  and  C_2
REMARK    2  A    between atoms: C_2  and  C_3
REMARK    3  A    between atoms: C_2  and  C_4
REMARK    4  A    between atoms: C_4  and  C_5
REMARK    5  A    between atoms: C_5  and  C_7
REMARK    6  A    between atoms: C_5  and  N_23
REMARK    7  A    between atoms: C_16  and  C_17
REMARK    8  A    between atoms: C_16  and  N_72
REMARK    9  A    between atoms: C_24  and  C_26
REMARK   10  A    between atoms: C_29  and  C_31
REMARK   11  A    between atoms: C_31  and  O_32
REMARK   12  A    between atoms: O_32  and  C_33
REMARK                            x       y       z     vdW  Elec       q    Type
REMARK                         _______ _______ _______ _____ _____    ______ ____
ROOT
ATOM      1  C   UNL     1       0.857   2.280   0.963  0.00  0.00    +0.154 A 
ATOM      2  N   UNL     1       1.723   1.303   1.032  0.00  0.00    -0.132 NA
ATOM      3  N   UNL     1       1.125   0.179   0.838  0.00  0.00    -0.134 NA
ATOM      4  C   UNL     1      -0.143   0.388   0.643  0.00  0.00    +0.132 A 
ATOM      5  N   UNL     1      -0.347   1.727   0.703  0.00  0.00    -0.315 N 
ATOM      6  C   UNL     1      -1.623   2.413   0.503  0.00  0.00    +0.106 C 
ATOM      7  C   UNL     1      -2.766   1.475   0.901  0.00  0.00    -0.057 C 
ATOM      8  C   UNL     1      -2.099  -0.175  -0.759  0.00  0.00    -0.071 C 
ATOM      9  C   UNL     1      -1.222  -0.638   0.409  0.00  0.00    +0.058 C 
ATOM     10  N   UNL     1      -3.212   0.656  -0.251  0.00  0.00    +0.381 N 
ATOM     11  H   UNL     1      -3.972   0.038   0.057  0.00  0.00    -0.082 HD
ENDROOT
BRANCH   1  12
ATOM     12  C   UNL     1       1.148   3.748   1.140  0.00  0.00    +0.142 C 
BRANCH  12  13
ATOM     13  N   UNL     1       2.016   3.937   2.305  0.00  0.00    -0.299 N 
ATOM     14  C   UNL     1       2.013   5.112   2.964  0.00  0.00    +0.280 C 
ATOM     15  O   UNL     1       1.289   6.017   2.592  0.00  0.00    -0.267 OA
ATOM     16  H   UNL     1       2.593   3.216   2.602  0.00  0.00    +0.150 HD
BRANCH  14  17
ATOM     17  C   UNL     1       2.881   5.301   4.130  0.00  0.00    +0.190 A 
ATOM     18  C   UNL     1       2.980   6.437   4.882  0.00  0.00    +0.055 A 
ATOM     19  C   UNL     1       3.921   6.174   5.890  0.00  0.00    +0.048 A 
ATOM     20  C   UNL     1       4.356   4.908   5.707  0.00  0.00    +0.131 A 
ATOM     21  O   UNL     1       3.728   4.385   4.645  0.00  0.00    -0.453 OA
BRANCH  20  22
ATOM     22  C   UNL     1       5.380   4.200   6.556  0.00  0.00    +0.233 C 
BRANCH  22  23
ATOM     23  O   UNL     1       4.722   3.522   7.629  0.00  0.00    -0.375 OA
ATOM     24  C   UNL     1       5.607   2.815   8.499  0.00  0.00    +0.194 C 
ENDBRANCH  22  23
ENDBRANCH  20  22
ENDBRANCH  14  17
ENDBRANCH  12  13
BRANCH  12  25
ATOM     25  C   UNL     1       1.849   4.284  -0.110  0.00  0.00    +0.033 C 
BRANCH  25  27
ATOM     26  C   UNL     1       2.842   6.314  -1.174  0.00  0.00    +0.007 C 
ATOM     27  C   UNL     1       2.032   5.797   0.017  0.00  0.00    -0.015 C 
ATOM     28  C   UNL     1       0.662   6.478   0.035  0.00  0.00    +0.007 C 
ENDBRANCH  25  27
ENDBRANCH  12  25
ENDBRANCH   1  12
BRANCH  10  29
ATOM     29  C   UNL     1      -3.714   1.532  -1.325  0.00  0.00    -0.075 C 
BRANCH  29  30
ATOM     30  C   UNL     1      -4.599   0.698  -2.253  0.00  0.00    -0.028 C 
ATOM     31  C   UNL     1      -5.046   1.556  -3.438  0.00  0.00    +0.002 C 
ATOM     32  C   UNL     1      -5.931   0.722  -4.367  0.00  0.00    +0.000 C 
ATOM     33  C   UNL     1      -7.160   0.234  -3.598  0.00  0.00    +0.000 C 
ATOM     34  C   UNL     1      -6.713  -0.625  -2.413  0.00  0.00    +0.000 C 
ATOM     35  C   UNL     1      -5.828   0.209  -1.484  0.00  0.00    +0.002 C 
ENDBRANCH  29  30
ENDBRANCH  10  29
TORSDOF 9
