REMARK  Name = ZINC04815604
REMARK  7 active torsions:
REMARK  status: ('A' for Active; 'I' for Inactive)
REMARK    1  A    between atoms: C_1  and  C_2
REMARK    2  A    between atoms: C_2  and  C_3
REMARK    3  A    between atoms: C_3  and  N_4
REMARK    4  A    between atoms: C_5  and  C_13
REMARK    5  A    between atoms: C_7  and  C_12
REMARK    6  A    between atoms: C_8  and  C_11
REMARK    7  A    between atoms: C_22  and  C_23
REMARK                            x       y       z     vdW  Elec       q    Type
REMARK                         _______ _______ _______ _____ _____    ______ ____
ROOT
ATOM      1  C   UNL     1       0.763   4.128   1.164  0.00  0.00    +0.010 A 
ATOM      2  C   UNL     1       2.067   3.619   0.743  0.00  0.00    +0.006 A 
ATOM      3  C   UNL     1       3.064   2.870   1.375  0.00  0.00    +0.010 A 
ATOM      4  C   UNL     1       4.202   2.544   0.694  0.00  0.00    +0.001 A 
ATOM      5  C   UNL     1       4.376   2.948  -0.623  0.00  0.00    +0.002 A 
ATOM      6  C   UNL     1       3.406   3.686  -1.266  0.00  0.00    +0.026 A 
ATOM      7  C   UNL     1       2.240   4.031  -0.592  0.00  0.00    +0.047 A 
ATOM      8  N   UNL     1       1.113   4.738  -0.954  0.00  0.00    -0.354 N 
ATOM      9  H   UNL     1       0.962   5.137  -1.825  0.00  0.00    +0.166 HD
ATOM     10  C   UNL     1       0.238   4.794   0.106  0.00  0.00    +0.054 A 
ENDROOT
BRANCH   1  12
ATOM     11  N   UNL     1       0.585   4.993   3.439  0.00  0.00    -0.287 N 
ATOM     12  C   UNL     1       0.124   3.947   2.517  0.00  0.00    +0.136 C 
ATOM     13  C   UNL     1      -1.374   4.121   2.413  0.00  0.00    -0.040 C 
ATOM     14  C   UNL     1      -1.701   5.147   3.191  0.00  0.00    +0.012 C 
ATOM     15  C   UNL     1      -0.498   5.692   3.828  0.00  0.00    +0.243 C 
ATOM     16  O   UNL     1      -0.481   6.635   4.595  0.00  0.00    -0.270 OA
ATOM     17  C   UNL     1      -3.100   5.673   3.389  0.00  0.00    +0.049 C 
ATOM     18  C   UNL     1      -2.317   3.287   1.584  0.00  0.00    +0.042 C 
BRANCH  11  19
ATOM     19  C   UNL     1       1.969   5.233   3.858  0.00  0.00    +0.109 C 
BRANCH  19  21
ATOM     20  C   UNL     1       4.077   6.463   3.327  0.00  0.00    +0.005 C 
ATOM     21  C   UNL     1       2.632   6.214   2.889  0.00  0.00    +0.016 C 
ENDBRANCH  19  21
ENDBRANCH  11  19
ENDBRANCH   1  12
BRANCH  10  22
ATOM     22  C   UNL     1      -1.076   5.472   0.091  0.00  0.00    +0.017 A 
ATOM     23  C   UNL     1      -2.123   4.954  -0.672  0.00  0.00    +0.013 A 
ATOM     24  C   UNL     1      -3.346   5.590  -0.683  0.00  0.00    +0.021 A 
ATOM     25  C   UNL     1      -3.538   6.742   0.063  0.00  0.00    +0.042 A 
ATOM     26  C   UNL     1      -2.504   7.262   0.822  0.00  0.00    +0.040 A 
ATOM     27  C   UNL     1      -1.274   6.633   0.840  0.00  0.00    +0.051 A 
ATOM     28 CL   UNL     1       0.024   7.290   1.787  0.00  0.00    -0.083 Cl
ATOM     29 CL   UNL     1      -5.081   7.537   0.044  0.00  0.00    -0.083 Cl
ENDBRANCH  10  22
TORSDOF 4
