REMARK  Name = ZINC39782291
REMARK  15 active torsions:
REMARK  status: ('A' for Active; 'I' for Inactive)
REMARK    1  A    between atoms: C_1  and  C_2
REMARK    2  A    between atoms: C_2  and  O_3
REMARK    3  A    between atoms: O_3  and  C_4
REMARK    4  A    between atoms: C_7  and  C_13
REMARK    5  A    between atoms: C_9  and  O_10
REMARK    6  A    between atoms: O_10  and  C_11
REMARK    7  A    between atoms: C_11  and  C_12
REMARK    8  A    between atoms: C_13  and  C_15
REMARK    9  A    between atoms: C_20  and  C_21
REMARK   10  A    between atoms: C_21  and  O_23
REMARK   11  A    between atoms: O_23  and  C_24
REMARK   12  A    between atoms: C_24  and  C_26
REMARK   13  A    between atoms: C_24  and  C_27
REMARK   14  A    between atoms: C_27  and  C_29
REMARK   15  A    between atoms: C_37  and  C_39
REMARK                            x       y       z     vdW  Elec       q    Type
REMARK                         _______ _______ _______ _____ _____    ______ ____
ROOT
ATOM      1  C   UNL     1      -0.367  -7.110   1.206  0.00  0.00    +0.036 A 
ATOM      2  C   UNL     1      -1.074  -6.703   0.077  0.00  0.00    +0.012 A 
ATOM      3  C   UNL     1      -1.274  -7.585  -0.968  0.00  0.00    +0.001 A 
ATOM      4  C   UNL     1      -0.775  -8.874  -0.902  0.00  0.00    +0.001 A 
ATOM      5  C   UNL     1      -0.072  -9.296   0.210  0.00  0.00    +0.016 A 
ATOM      6  C   UNL     1       0.146  -8.420   1.270  0.00  0.00    +0.070 A 
ENDROOT
BRANCH   1   7
ATOM      7  C   UNL     1      -0.150  -6.170   2.327  0.00  0.00    +0.194 C 
ATOM      8  O   UNL     1       0.693  -5.299   2.236  0.00  0.00    -0.287 OA
BRANCH   7  12
ATOM      9  C   UNL     1      -2.476  -6.521   5.865  0.00  0.00    +0.162 A 
ATOM     10  C   UNL     1      -2.630  -7.444   4.839  0.00  0.00    +0.050 A 
ATOM     11  C   UNL     1      -1.878  -7.334   3.690  0.00  0.00    +0.015 A 
ATOM     12  C   UNL     1      -0.957  -6.290   3.555  0.00  0.00    +0.026 A 
ATOM     13  C   UNL     1      -0.802  -5.361   4.589  0.00  0.00    +0.061 A 
ATOM     14  C   UNL     1      -1.563  -5.474   5.735  0.00  0.00    +0.163 A 
BRANCH   9  15
ATOM     15  O   UNL     1      -3.220  -6.634   6.995  0.00  0.00    -0.489 OA
BRANCH  15  17
ATOM     16  C   UNL     1      -4.878  -7.693   8.399  0.00  0.00    +0.048 C 
ATOM     17  C   UNL     1      -4.135  -7.730   7.062  0.00  0.00    +0.226 C 
ENDBRANCH  15  17
ENDBRANCH   9  15
BRANCH  14  18
ATOM     18  O   UNL     1      -1.419  -4.569   6.740  0.00  0.00    -0.489 OA
BRANCH  18  19
ATOM     19  C   UNL     1      -0.466  -3.523   6.539  0.00  0.00    +0.226 C 
ATOM     20  C   UNL     1      -0.445  -2.610   7.767  0.00  0.00    +0.048 C 
ENDBRANCH  18  19
ENDBRANCH  14  18
ENDBRANCH   7  12
ENDBRANCH   1   7
BRANCH   6  21
ATOM     21  C   UNL     1       0.904  -8.864   2.459  0.00  0.00    +0.341 C 
ATOM     22  O   UNL     1       1.173  -8.071   3.339  0.00  0.00    -0.245 OA
BRANCH  21  23
ATOM     23  O   UNL     1       1.296 -10.148   2.566  0.00  0.00    -0.450 OA
BRANCH  23  24
ATOM     24  C   UNL     1       2.025 -10.508   3.741  0.00  0.00    +0.244 C 
ATOM     25  C   UNL     1       3.522 -10.314   3.492  0.00  0.00    +0.061 C 
BRANCH  24  26
ATOM     26  C   UNL     1       1.755 -11.951   4.078  0.00  0.00    +0.202 C 
ATOM     27  O   UNL     1       1.342 -12.708   3.223  0.00  0.00    -0.288 OA
BRANCH  26  28
ATOM     28  C   UNL     1       1.980 -12.424   5.388  0.00  0.00    +0.030 C 
ATOM     29  C   UNL     1       2.534 -11.726   6.446  0.00  0.00    +0.007 A 
ATOM     30  C   UNL     1       3.027 -10.406   6.575  0.00  0.00    +0.010 A 
ATOM     31  C   UNL     1       3.525  -9.977   7.756  0.00  0.00    +0.001 A 
ATOM     32  C   UNL     1       3.580 -10.798   8.894  0.00  0.00    +0.002 A 
ATOM     33  C   UNL     1       3.136 -12.073   8.877  0.00  0.00    +0.026 A 
ATOM     34  C   UNL     1       2.577 -12.620   7.630  0.00  0.00    +0.043 A 
ATOM     35  N   UNL     1       2.087 -13.790   7.336  0.00  0.00    -0.377 N 
ATOM     36  C   UNL     1       1.661 -13.800   5.933  0.00  0.00    +0.111 C 
ATOM     37  C   UNL     1       0.158 -14.068   5.837  0.00  0.00    +0.035 C 
ATOM     38  H   UNL     1       2.011 -14.537   7.950  0.00  0.00    +0.160 HD
ENDBRANCH  26  28
ENDBRANCH  24  26
ENDBRANCH  23  24
ENDBRANCH  21  23
ENDBRANCH   6  21
TORSDOF 11
