REMARK  Name = ZINC35093312
REMARK  13 active torsions:
REMARK  status: ('A' for Active; 'I' for Inactive)
REMARK    1  A    between atoms: C_1  and  C_2
REMARK    2  A    between atoms: C_2  and  C_3
REMARK    3  A    between atoms: C_3  and  N_4
REMARK    4  A    between atoms: N_4  and  C_5
REMARK    5  A    between atoms: C_5  and  C_7
REMARK    6  A    between atoms: C_5  and  C_9
REMARK    7  A    between atoms: C_7  and  C_8
REMARK    8  A    between atoms: N_19  and  C_20
REMARK    9  A    between atoms: C_23  and  C_27
REMARK   10  A    between atoms: C_25  and  C_26
REMARK   11  A    between atoms: C_28  and  C_30
REMARK   12  A    between atoms: C_31  and  C_32
REMARK   13  A    between atoms: C_35  and  N_38
REMARK                            x       y       z     vdW  Elec       q    Type
REMARK                         _______ _______ _______ _____ _____    ______ ____
ROOT
ATOM      1  C   UNL     1      -1.448  -2.865   1.154  0.00  0.00    +0.143 C 
ENDROOT
BRANCH   1   2
ATOM      2  C   UNL     1      -0.368  -2.540   2.153  0.00  0.00    +0.138 A 
ATOM      3  N   UNL     1      -0.716  -2.012   3.287  0.00  0.00    -0.231 NA
ATOM      4  C   UNL     1       0.202  -1.693   4.234  0.00  0.00    +0.078 A 
ATOM      5  C   UNL     1      -0.172  -1.126   5.454  0.00  0.00    +0.028 A 
ATOM      6  C   UNL     1       0.792  -0.818   6.387  0.00  0.00    +0.002 A 
ATOM      7  C   UNL     1       2.135  -1.064   6.130  0.00  0.00    +0.001 A 
ATOM      8  C   UNL     1       2.529  -1.622   4.934  0.00  0.00    +0.015 A 
ATOM      9  C   UNL     1       1.568  -1.942   3.976  0.00  0.00    +0.065 A 
ATOM     10  C   UNL     1       1.929  -2.540   2.683  0.00  0.00    +0.266 A 
ATOM     11  O   UNL     1       3.088  -2.780   2.399  0.00  0.00    -0.267 OA
ATOM     12  N   UNL     1       0.922  -2.819   1.822  0.00  0.00    -0.263 N 
BRANCH  12  13
ATOM     13  C   UNL     1       1.211  -3.394   0.578  0.00  0.00    +0.054 A 
ATOM     14  C   UNL     1       1.609  -2.592  -0.484  0.00  0.00    +0.027 A 
ATOM     15  C   UNL     1       1.893  -3.162  -1.709  0.00  0.00    +0.005 A 
ATOM     16  C   UNL     1       1.783  -4.530  -1.879  0.00  0.00    -0.050 A 
ATOM     17  C   UNL     1       1.388  -5.331  -0.823  0.00  0.00    +0.008 A 
ATOM     18  C   UNL     1       1.107  -4.768   0.406  0.00  0.00    -0.026 A 
ATOM     19  C   UNL     1       0.682  -5.642   1.558  0.00  0.00    +0.046 C 
ATOM     20  C   UNL     1       2.095  -5.149  -3.217  0.00  0.00    +0.044 C 
ENDBRANCH  12  13
ENDBRANCH   1   2
BRANCH   1  21
ATOM     21  N   UNL     1      -1.457  -1.851   0.096  0.00  0.00    -0.288 N 
ATOM     22  C   UNL     1      -1.365  -2.225  -1.196  0.00  0.00    +0.240 C 
ATOM     23  O   UNL     1      -1.275  -3.404  -1.483  0.00  0.00    -0.271 OA
BRANCH  22  24
ATOM     24  C   UNL     1      -1.373  -1.212  -2.253  0.00  0.00    +0.068 C 
ATOM     25  C   UNL     1      -1.281  -1.585  -3.545  0.00  0.00    +0.013 C 
BRANCH  25  26
ATOM     26  C   UNL     1      -1.289  -0.567  -4.608  0.00  0.00    -0.025 A 
ATOM     27  C   UNL     1      -1.387   0.789  -4.281  0.00  0.00    +0.010 A 
ATOM     28  C   UNL     1      -1.394   1.737  -5.282  0.00  0.00    +0.033 A 
ATOM     29  C   UNL     1      -1.305   1.350  -6.608  0.00  0.00    +0.126 A 
ATOM     30  C   UNL     1      -1.208   0.009  -6.940  0.00  0.00    +0.033 A 
ATOM     31  C   UNL     1      -1.194  -0.950  -5.949  0.00  0.00    +0.010 A 
BRANCH  29  32
ATOM     32  N   UNL     1      -1.313   2.374  -7.677  0.00  0.00    +0.056 N 
ATOM     33  O   UNL     1      -1.397   3.545  -7.391  0.00  0.00    -0.126 OA
ATOM     34  O   UNL     1      -1.236   2.038  -8.836  0.00  0.00    -0.126 OA
ENDBRANCH  29  32
ENDBRANCH  25  26
ENDBRANCH  22  24
BRANCH  21  35
ATOM     35  C   UNL     1      -1.565  -0.432   0.442  0.00  0.00    +0.108 C 
BRANCH  35  37
ATOM     36  C   UNL     1      -0.286   1.691   0.755  0.00  0.00    +0.005 C 
ATOM     37  C   UNL     1      -0.168   0.189   0.494  0.00  0.00    +0.016 C 
ENDBRANCH  35  37
ENDBRANCH  21  35
ENDBRANCH   1  21
BRANCH   1  38
ATOM     38  C   UNL     1      -2.807  -2.878   1.858  0.00  0.00    +0.027 C 
ATOM     39  C   UNL     1      -3.891  -3.304   0.866  0.00  0.00    +0.006 C 
ENDBRANCH   1  38
TORSDOF 9
