REMARK  Name = ZINC16844128
REMARK  6 active torsions:
REMARK  status: ('A' for Active; 'I' for Inactive)
REMARK    1  A    between atoms: C_1  and  C_2
REMARK    2  A    between atoms: C_3  and  C_14
REMARK    3  A    between atoms: C_5  and  C_7
REMARK    4  A    between atoms: C_14  and  S_15
REMARK    5  A    between atoms: S_15  and  C_16
REMARK    6  A    between atoms: C_25  and  C_27
REMARK                            x       y       z     vdW  Elec       q    Type
REMARK                         _______ _______ _______ _____ _____    ______ ____
ROOT
ATOM      1  C   UNL     1      -0.997  -0.956   0.006  0.00  0.00    +0.209 A 
ATOM      2  N   UNL     1      -0.728  -2.227  -0.003  0.00  0.00    -0.144 NA
ATOM      3  N   UNL     1       0.585  -2.708  -0.018  0.00  0.00    -0.239 N 
ATOM      4  H   UNL     1       0.753  -3.663  -0.024  0.00  0.00    +0.192 HD
ATOM      5  C   UNL     1       1.621  -1.838  -0.023  0.00  0.00    +0.290 A 
ATOM      6  O   UNL     1       2.773  -2.235  -0.037  0.00  0.00    -0.264 OA
ATOM      7  C   UNL     1       1.317  -0.402  -0.013  0.00  0.00    +0.136 A 
ATOM      8  N   UNL     1       0.002  -0.004   0.002  0.00  0.00    -0.201 N 
ATOM      9  N   UNL     1      -0.017   1.395   0.010  0.00  0.00    -0.161 NA
ATOM     10  C   UNL     1       1.229   1.837   0.000  0.00  0.00    +0.129 A 
ATOM     11  C   UNL     1       2.094   0.732  -0.014  0.00  0.00    +0.066 A 
ENDROOT
BRANCH  10  12
ATOM     12  C   UNL     1       1.642   3.257   0.003  0.00  0.00    +0.155 A 
ATOM     13  C   UNL     1       0.807   4.330   0.012  0.00  0.00    +0.051 A 
ATOM     14  C   UNL     1       1.624   5.479   0.015  0.00  0.00    +0.042 A 
ATOM     15  C   UNL     1       2.902   5.054   0.000  0.00  0.00    +0.196 A 
ATOM     16  O   UNL     1       2.909   3.711  -0.007  0.00  0.00    -0.461 OA
ENDBRANCH  10  12
BRANCH   1  17
ATOM     17  S   UNL     1      -2.680  -0.435   0.025  0.00  0.00    -0.078 S 
BRANCH  17  18
ATOM     18  C   UNL     1      -3.507  -2.045   0.025  0.00  0.00    +0.136 C 
BRANCH  18  21
ATOM     19  C   UNL     1      -5.313  -1.822   2.567  0.00  0.00    +0.088 C 
ATOM     20  C   UNL     1      -5.776  -1.746   1.135  0.00  0.00    +0.127 A 
ATOM     21  C   UNL     1      -5.001  -1.841   0.040  0.00  0.00    +0.093 A 
ATOM     22  N   UNL     1      -5.794  -1.730  -1.036  0.00  0.00    -0.213 NA
ATOM     23  C   UNL     1      -7.031  -1.564  -0.631  0.00  0.00    +0.228 A 
ATOM     24  O   UNL     1      -7.044  -1.567   0.714  0.00  0.00    -0.440 OA
BRANCH  23  25
ATOM     25  C   UNL     1      -8.211  -1.400  -1.505  0.00  0.00    +0.037 A 
ATOM     26  C   UNL     1      -8.062  -1.408  -2.893  0.00  0.00    +0.014 A 
ATOM     27  C   UNL     1      -9.168  -1.260  -3.703  0.00  0.00    +0.021 A 
ATOM     28  C   UNL     1     -10.424  -1.092  -3.143  0.00  0.00    +0.041 A 
ATOM     29  C   UNL     1     -10.577  -1.078  -1.766  0.00  0.00    +0.021 A 
ATOM     30  C   UNL     1      -9.479  -1.230  -0.946  0.00  0.00    +0.014 A 
ATOM     31 CL   UNL     1     -11.810  -0.900  -4.169  0.00  0.00    -0.084 Cl
ENDBRANCH  23  25
ENDBRANCH  18  21
ENDBRANCH  17  18
ENDBRANCH   1  17
TORSDOF 5
