REMARK  Name = ZINC23428978
REMARK  4 active torsions:
REMARK  status: ('A' for Active; 'I' for Inactive)
REMARK    1  A    between atoms: C_4  and  C_17
REMARK    2  A    between atoms: C_5  and  C_7
REMARK    3  A    between atoms: C_7  and  N_8
REMARK    4  A    between atoms: C_23  and  C_25
REMARK                            x       y       z     vdW  Elec       q    Type
REMARK                         _______ _______ _______ _____ _____    ______ ____
ROOT
ATOM      1  C   UNL     1       6.438   0.088   4.490  0.00  0.00    +0.000 A 
ATOM      2  C   UNL     1       7.299   0.240   3.418  0.00  0.00    +0.001 A 
ATOM      3  C   UNL     1       6.798   0.370   2.140  0.00  0.00    +0.012 A 
ATOM      4  C   UNL     1       5.417   0.358   1.930  0.00  0.00    +0.019 A 
ATOM      5  C   UNL     1       4.554   0.204   3.017  0.00  0.00    -0.053 A 
ATOM      6  C   UNL     1       5.069   0.070   4.290  0.00  0.00    +0.002 A 
ENDROOT
BRANCH   4   7
ATOM      7  C   UNL     1       4.872   0.501   0.565  0.00  0.00    +0.141 A 
ATOM      8  N   UNL     1       3.992   1.507   0.297  0.00  0.00    -0.307 N 
ATOM      9  H   UNL     1       3.693   2.203   1.095  0.00  0.00    +0.170 HD
ATOM     10  C   UNL     1       3.490   1.644  -0.949  0.00  0.00    +0.252 A 
ATOM     11  O   UNL     1       2.701   2.538  -1.207  0.00  0.00    -0.268 OA
ATOM     12  C   UNL     1       3.896   0.734  -1.945  0.00  0.00    +0.096 A 
ATOM     13  C   UNL     1       4.780  -0.252  -1.617  0.00  0.00    +0.077 A 
ATOM     14  N   UNL     1       5.242  -0.347  -0.372  0.00  0.00    -0.231 NA
BRANCH  13  15
ATOM     15  C   UNL     1       5.230  -1.238  -2.664  0.00  0.00    +0.167 C 
ATOM     16  C   UNL     1       6.736  -1.059  -2.959  0.00  0.00    +0.040 C 
ATOM     17  C   UNL     1       7.248  -2.500  -3.181  0.00  0.00    +0.031 C 
ATOM     18  C   UNL     1       5.991  -3.378  -2.994  0.00  0.00    +0.161 C 
ATOM     19  O   UNL     1       5.109  -2.589  -2.167  0.00  0.00    -0.370 OA
ENDBRANCH  13  15
ENDBRANCH   4   7
BRANCH   5  20
ATOM     20  C   UNL     1       3.063   0.183   2.800  0.00  0.00    -0.042 C 
BRANCH  20  21
ATOM     21  N   UNL     1       2.663  -1.126   2.266  0.00  0.00    +0.385 N 
ATOM     22  C   UNL     1       1.300  -1.078   1.718  0.00  0.00    -0.073 C 
ATOM     23  C   UNL     1       1.083  -2.308   0.822  0.00  0.00    +0.024 C 
ATOM     24  C   UNL     1       1.582  -3.506   1.563  0.00  0.00    -0.011 A 
ATOM     25  C   UNL     1       2.364  -3.504   2.679  0.00  0.00    -0.054 A 
ATOM     26  C   UNL     1       2.705  -4.749   3.201  0.00  0.00    +0.009 A 
ATOM     27  C   UNL     1       2.264  -5.879   2.601  0.00  0.00    +0.045 A 
ATOM     28  S   UNL     1       1.318  -5.225   1.233  0.00  0.00    -0.101 S 
ATOM     29  C   UNL     1       2.814  -2.176   3.281  0.00  0.00    -0.042 C 
ATOM     30  H   UNL     1       3.338  -1.380   1.435  0.00  0.00    -0.081 HD
ENDBRANCH  20  21
ENDBRANCH   5  20
TORSDOF 4
