REMARK  Name = ZINC06405636
REMARK  14 active torsions:
REMARK  status: ('A' for Active; 'I' for Inactive)
REMARK    1  A    between atoms: C_1  and  C_2
REMARK    2  A    between atoms: C_5  and  C_40
REMARK    3  A    between atoms: C_9  and  C_14
REMARK    4  A    between atoms: C_14  and  C_16
REMARK    5  A    between atoms: C_14  and  N_73
REMARK    6  A    between atoms: N_20  and  C_21
REMARK    7  A    between atoms: C_21  and  C_22
REMARK    8  A    between atoms: C_22  and  O_23
REMARK    9  A    between atoms: O_23  and  C_24
REMARK   10  A    between atoms: C_25  and  C_26
REMARK   11  A    between atoms: C_25  and  N_73
REMARK   12  A    between atoms: C_26  and  C_27
REMARK   13  A    between atoms: C_33  and  C_34
REMARK   14  A    between atoms: C_33  and  N_73
REMARK                            x       y       z     vdW  Elec       q    Type
REMARK                         _______ _______ _______ _____ _____    ______ ____
ROOT
ATOM      1  C   UNL     1       2.799   1.734   3.897  0.00  0.00    +0.039 C 
ENDROOT
BRANCH   1  10
ATOM      2  C   UNL     1      -1.360   2.150   0.790  0.00  0.00    +0.044 C 
ATOM      3  C   UNL     1      -1.655   2.938   2.041  0.00  0.00    -0.041 A 
ATOM      4  C   UNL     1      -2.847   3.591   2.175  0.00  0.00    +0.004 A 
ATOM      5  C   UNL     1      -3.130   4.316   3.325  0.00  0.00    +0.005 A 
ATOM      6  C   UNL     1      -2.210   4.398   4.349  0.00  0.00    -0.026 A 
ATOM      7  C   UNL     1      -0.988   3.744   4.232  0.00  0.00    +0.052 A 
ATOM      8  C   UNL     1      -0.707   3.007   3.067  0.00  0.00    +0.002 A 
ATOM      9  C   UNL     1       0.583   2.323   2.954  0.00  0.00    +0.018 A 
ATOM     10  C   UNL     1       1.462   2.425   3.981  0.00  0.00    +0.011 A 
ATOM     11  C   UNL     1       1.131   3.177   5.128  0.00  0.00    +0.251 A 
ATOM     12  O   UNL     1       1.936   3.256   6.040  0.00  0.00    -0.268 OA
ATOM     13  N   UNL     1      -0.051   3.808   5.241  0.00  0.00    -0.322 N 
ATOM     14  H   UNL     1      -0.246   4.317   6.044  0.00  0.00    +0.169 HD
ATOM     15  C   UNL     1      -2.529   5.192   5.589  0.00  0.00    +0.046 C 
ENDBRANCH   1  10
BRANCH   1  16
ATOM     16  C   UNL     1       2.866   0.643   4.935  0.00  0.00    +0.143 A 
ATOM     17  N   UNL     1       3.014   0.802   6.228  0.00  0.00    -0.115 NA
ATOM     18  N   UNL     1       3.025  -0.365   6.773  0.00  0.00    -0.023 NA
ATOM     19  N   UNL     1       2.887  -1.264   5.862  0.00  0.00    -0.044 NA
ATOM     20  N   UNL     1       2.781  -0.682   4.716  0.00  0.00    -0.228 N 
BRANCH  20  21
ATOM     21  C   UNL     1       2.605  -1.339   3.419  0.00  0.00    +0.175 C 
BRANCH  21  22
ATOM     22  C   UNL     1       3.975  -1.634   2.805  0.00  0.00    +0.183 C 
BRANCH  22  23
ATOM     23  O   UNL     1       3.803  -2.276   1.540  0.00  0.00    -0.381 OA
ATOM     24  C   UNL     1       5.029  -2.596   0.879  0.00  0.00    +0.194 C 
ENDBRANCH  22  23
ENDBRANCH  21  22
ENDBRANCH  20  21
ENDBRANCH   1  16
BRANCH   1  25
ATOM     25  N   UNL     1       3.865   2.721   4.164  0.00  0.00    +0.392 N 
ATOM     26  H   UNL     1       3.682   3.173   5.067  0.00  0.00    -0.080 HD
BRANCH  25  27
ATOM     27  C   UNL     1       5.178   2.043   4.225  0.00  0.00    -0.072 C 
BRANCH  27  28
ATOM     28  C   UNL     1       6.215   3.026   4.771  0.00  0.00    +0.016 C 
BRANCH  28  29
ATOM     29  C   UNL     1       7.550   2.335   4.885  0.00  0.00    -0.049 A 
ATOM     30  C   UNL     1       7.895   1.687   6.056  0.00  0.00    +0.003 A 
ATOM     31  C   UNL     1       9.117   1.049   6.158  0.00  0.00    +0.000 A 
ATOM     32  C   UNL     1       9.999   1.069   5.093  0.00  0.00    +0.000 A 
ATOM     33  C   UNL     1       9.656   1.722   3.925  0.00  0.00    +0.000 A 
ATOM     34  C   UNL     1       8.431   2.355   3.820  0.00  0.00    +0.003 A 
ENDBRANCH  28  29
ENDBRANCH  27  28
ENDBRANCH  25  27
BRANCH  25  35
ATOM     35  C   UNL     1       3.878   3.751   3.105  0.00  0.00    -0.042 C 
BRANCH  35  36
ATOM     36  C   UNL     1       4.252   3.141   1.779  0.00  0.00    -0.064 A 
ATOM     37  C   UNL     1       5.577   3.103   1.385  0.00  0.00    +0.002 A 
ATOM     38  C   UNL     1       5.921   2.538   0.171  0.00  0.00    +0.000 A 
ATOM     39  C   UNL     1       4.940   2.022  -0.654  0.00  0.00    +0.000 A 
ATOM     40  C   UNL     1       3.615   2.066  -0.263  0.00  0.00    +0.000 A 
ATOM     41  C   UNL     1       3.271   2.625   0.953  0.00  0.00    +0.002 A 
ENDBRANCH  35  36
ENDBRANCH  25  35
ENDBRANCH   1  25
TORSDOF 11
