REMARK  Name = ZINC27333836
REMARK  10 active torsions:
REMARK  status: ('A' for Active; 'I' for Inactive)
REMARK    1  A    between atoms: C_2  and  C_3
REMARK    2  A    between atoms: C_3  and  N_4
REMARK    3  A    between atoms: N_4  and  C_5
REMARK    4  A    between atoms: N_4  and  S_11
REMARK    5  A    between atoms: S_11  and  C_14
REMARK    6  A    between atoms: C_18  and  C_20
REMARK    7  A    between atoms: N_22  and  C_23
REMARK    8  A    between atoms: C_23  and  C_24
REMARK    9  A    between atoms: C_24  and  C_26
REMARK   10  A    between atoms: C_24  and  N_31
REMARK                            x       y       z     vdW  Elec       q    Type
REMARK                         _______ _______ _______ _____ _____    ______ ____
ROOT
ATOM      1  C   UNL     1      -0.597   3.835  -1.144  0.00  0.00    +0.109 A 
ATOM      2  C   UNL     1       0.432   2.954  -1.425  0.00  0.00    +0.029 A 
ATOM      3  C   UNL     1       0.163   1.618  -1.658  0.00  0.00    +0.003 A 
ATOM      4  C   UNL     1      -1.136   1.154  -1.612  0.00  0.00    +0.013 A 
ATOM      5  C   UNL     1      -2.179   2.038  -1.335  0.00  0.00    +0.039 A 
ATOM      6  C   UNL     1      -1.900   3.385  -1.095  0.00  0.00    +0.041 A 
ENDROOT
BRANCH   5   7
ATOM      7  C   UNL     1      -3.574   1.550  -1.289  0.00  0.00    +0.244 C 
ATOM      8  O   UNL     1      -4.481   2.323  -1.047  0.00  0.00    -0.270 OA
ATOM      9  N   UNL     1      -3.840   0.248  -1.516  0.00  0.00    -0.312 N 
ATOM     10  H   UNL     1      -3.019  -0.451  -1.735  0.00  0.00    +0.149 HD
BRANCH   9  11
ATOM     11  C   UNL     1      -5.222  -0.235  -1.471  0.00  0.00    +0.097 C 
BRANCH  11  12
ATOM     12  C   UNL     1      -5.235  -1.757  -1.632  0.00  0.00    +0.016 C 
BRANCH  12  13
ATOM     13  N   UNL     1      -6.624  -2.229  -1.711  0.00  0.00    +0.387 N 
ATOM     14  C   UNL     1      -7.328  -1.619  -2.868  0.00  0.00    -0.078 C 
ATOM     15  C   UNL     1      -8.519  -2.581  -3.106  0.00  0.00    -0.020 C 
ATOM     16  C   UNL     1      -7.904  -3.970  -2.818  0.00  0.00    -0.020 C 
ATOM     17  C   UNL     1      -6.675  -3.690  -1.933  0.00  0.00    -0.078 C 
ATOM     18  H   UNL     1      -7.090  -1.950  -0.755  0.00  0.00    -0.081 HD
ENDBRANCH  12  13
BRANCH  12  19
ATOM     19  C   UNL     1      -4.555  -2.394  -0.448  0.00  0.00    +0.093 A 
ATOM     20  C   UNL     1      -3.290  -2.851  -0.419  0.00  0.00    +0.043 A 
ATOM     21  C   UNL     1      -3.070  -3.363   0.880  0.00  0.00    +0.041 A 
ATOM     22  C   UNL     1      -4.212  -3.188   1.567  0.00  0.00    +0.195 A 
ATOM     23  O   UNL     1      -5.107  -2.595   0.760  0.00  0.00    -0.469 OA
ENDBRANCH  12  19
ENDBRANCH  11  12
ENDBRANCH   9  11
ENDBRANCH   5   7
BRANCH   1  24
ATOM     24  S   UNL     1      -0.243   5.536  -0.849  0.00  0.00    +0.075 S 
ATOM     25  O   UNL     1      -1.317   6.045  -0.071  0.00  0.00    -0.150 OA
ATOM     26  O   UNL     1       1.109   5.600  -0.415  0.00  0.00    -0.150 OA
BRANCH  24  27
ATOM     27  N   UNL     1      -0.307   6.311  -2.311  0.00  0.00    -0.199 N 
BRANCH  27  28
ATOM     28  C   UNL     1       0.864   6.521  -3.042  0.00  0.00    +0.052 A 
ATOM     29  C   UNL     1       0.996   5.983  -4.316  0.00  0.00    +0.025 A 
ATOM     30  C   UNL     1       2.153   6.197  -5.038  0.00  0.00    +0.002 A 
ATOM     31  C   UNL     1       3.185   6.938  -4.490  0.00  0.00    +0.000 A 
ATOM     32  C   UNL     1       3.059   7.471  -3.220  0.00  0.00    +0.002 A 
ATOM     33  C   UNL     1       1.902   7.265  -2.495  0.00  0.00    +0.025 A 
ENDBRANCH  27  28
BRANCH  27  34
ATOM     34  C   UNL     1      -1.593   6.775  -2.838  0.00  0.00    +0.158 C 
BRANCH  34  36
ATOM     35  C   UNL     1      -2.040   9.108  -3.401  0.00  0.00    +0.005 C 
ATOM     36  C   UNL     1      -1.795   8.222  -2.468  0.00  0.00    -0.014 C 
ENDBRANCH  34  36
ENDBRANCH  27  34
ENDBRANCH  24  27
ENDBRANCH   1  24
TORSDOF 10
