REMARK  Name = ZINC04420941
REMARK  8 active torsions:
REMARK  status: ('A' for Active; 'I' for Inactive)
REMARK    1  A    between atoms: C_1  and  C_2
REMARK    2  A    between atoms: C_5  and  N_8
REMARK    3  A    between atoms: C_9  and  S_18
REMARK    4  A    between atoms: N_10  and  C_11
REMARK    5  A    between atoms: C_14  and  C_17
REMARK    6  A    between atoms: S_18  and  C_19
REMARK    7  A    between atoms: N_23  and  C_27
REMARK    8  A    between atoms: C_30  and  C_33
REMARK                            x       y       z     vdW  Elec       q    Type
REMARK                         _______ _______ _______ _____ _____    ______ ____
ROOT
ATOM      1  N   UNL     1      -0.407  -6.164   0.009  0.00  0.00    -0.294 N 
ATOM      2  C   UNL     1      -0.983  -5.342   0.949  0.00  0.00    +0.160 C 
ATOM      3  N   UNL     1      -2.213  -5.567   1.352  0.00  0.00    -0.226 NA
ATOM      4  H   UNL     1      -0.924  -6.880  -0.391  0.00  0.00    +0.154 HD
ENDROOT
BRANCH   1   9
ATOM      5  C   UNL     1       4.993  -5.363  -1.531  0.00  0.00    +0.044 C 
ATOM      6  C   UNL     1       3.558  -5.576  -1.122  0.00  0.00    -0.050 A 
ATOM      7  C   UNL     1       3.247  -5.816   0.204  0.00  0.00    +0.005 A 
ATOM      8  C   UNL     1       1.933  -6.011   0.582  0.00  0.00    +0.023 A 
ATOM      9  C   UNL     1       0.924  -5.966  -0.371  0.00  0.00    +0.033 A 
ATOM     10  C   UNL     1       1.240  -5.725  -1.702  0.00  0.00    +0.023 A 
ATOM     11  C   UNL     1       2.555  -5.526  -2.072  0.00  0.00    +0.005 A 
ENDBRANCH   1   9
BRANCH   3  12
ATOM     12  C   UNL     1      -2.749  -4.818   2.366  0.00  0.00    +0.067 A 
ATOM     13  C   UNL     1      -2.062  -4.681   3.574  0.00  0.00    +0.028 A 
ATOM     14  C   UNL     1      -2.608  -3.925   4.591  0.00  0.00    +0.005 A 
ATOM     15  C   UNL     1      -3.832  -3.304   4.416  0.00  0.00    -0.050 A 
ATOM     16  C   UNL     1      -4.518  -3.437   3.222  0.00  0.00    +0.005 A 
ATOM     17  C   UNL     1      -3.981  -4.184   2.194  0.00  0.00    +0.028 A 
ATOM     18  C   UNL     1      -4.421  -2.480   5.532  0.00  0.00    +0.044 C 
ENDBRANCH   3  12
BRANCH   2  19
ATOM     19  S   UNL     1      -0.072  -3.988   1.613  0.00  0.00    -0.066 S 
BRANCH  19  20
ATOM     20  C   UNL     1       0.316  -2.968   0.164  0.00  0.00    +0.206 C 
ATOM     21  C   UNL     1       0.341  -1.488   0.519  0.00  0.00    +0.251 C 
ATOM     22  O   UNL     1       1.130  -1.026   1.315  0.00  0.00    -0.273 OA
ATOM     23  N   UNL     1      -0.558  -0.741  -0.100  0.00  0.00    -0.200 N 
ATOM     24  C   UNL     1      -1.444  -1.230  -0.987  0.00  0.00    +0.287 C 
ATOM     25  O   UNL     1      -2.301  -0.624  -1.602  0.00  0.00    -0.262 OA
ATOM     26  S   UNL     1      -1.067  -2.977  -1.052  0.00  0.00    -0.043 S 
BRANCH  23  27
ATOM     27  C   UNL     1      -0.589   0.632   0.182  0.00  0.00    +0.045 A 
ATOM     28  C   UNL     1       0.443   1.454  -0.249  0.00  0.00    +0.024 A 
ATOM     29  C   UNL     1       0.409   2.806   0.031  0.00  0.00    +0.005 A 
ATOM     30  C   UNL     1      -0.651   3.341   0.740  0.00  0.00    -0.050 A 
ATOM     31  C   UNL     1      -1.680   2.524   1.171  0.00  0.00    +0.005 A 
ATOM     32  C   UNL     1      -1.654   1.172   0.889  0.00  0.00    +0.024 A 
ATOM     33  C   UNL     1      -0.685   4.817   1.043  0.00  0.00    +0.044 C 
ENDBRANCH  23  27
ENDBRANCH  19  20
ENDBRANCH   2  19
TORSDOF 5
