REMARK  Name = ZINC01824145
REMARK  4 active torsions:
REMARK  status: ('A' for Active; 'I' for Inactive)
REMARK    1  A    between atoms: C_1  and  C_2
REMARK    2  A    between atoms: C_5  and  C_33
REMARK    3  A    between atoms: C_6  and  C_8
REMARK    4  A    between atoms: C_24  and  C_27
REMARK                            x       y       z     vdW  Elec       q    Type
REMARK                         _______ _______ _______ _____ _____    ______ ____
ROOT
ATOM      1  C   UNL     1       3.639  -0.121  -1.564  0.00  0.00    +0.047 C 
ATOM      2  C   UNL     1       2.603  -0.187  -0.691  0.00  0.00    +0.023 C 
ATOM      3  C   UNL     1       2.562   1.167  -0.038  0.00  0.00    +0.138 C 
ATOM      4  C   UNL     1       1.216   1.829  -0.006  0.00  0.00    +0.017 A 
ATOM      5  C   UNL     1       0.029   1.147  -0.010  0.00  0.00    +0.009 A 
ATOM      6  C   UNL     1      -1.166   1.851  -0.006  0.00  0.00    +0.001 A 
ATOM      7  C   UNL     1      -1.149   3.234   0.007  0.00  0.00    +0.004 A 
ATOM      8  C   UNL     1       0.048   3.922   0.013  0.00  0.00    +0.046 A 
ATOM      9  C   UNL     1       1.249   3.229   0.014  0.00  0.00    +0.128 A 
ATOM     10  O   UNL     1       2.433   3.886   0.049  0.00  0.00    -0.469 OA
ATOM     11  C   UNL     1       3.633   3.284  -0.458  0.00  0.00    +0.180 C 
ATOM     12  N   UNL     1       3.325   1.994  -1.023  0.00  0.00    -0.177 NA
ATOM     13  N   UNL     1       4.258   1.144  -1.485  0.00  0.00    -0.273 N 
ATOM     14  C   UNL     1       4.233   4.207  -1.523  0.00  0.00    +0.067 C 
ATOM     15  C   UNL     1       5.533   3.599  -2.051  0.00  0.00    +0.013 C 
ATOM     16  C   UNL     1       6.529   3.445  -0.900  0.00  0.00    +0.019 C 
ATOM     17  C   UNL     1       5.932   2.529   0.170  0.00  0.00    +0.013 C 
ATOM     18  C   UNL     1       4.632   3.138   0.696  0.00  0.00    +0.067 C 
ATOM     19  H   UNL     1       5.175   1.358  -1.718  0.00  0.00    +0.167 HD
ENDROOT
BRANCH   1  25
ATOM     20  C   UNL     1       5.154  -4.834  -2.201  0.00  0.00    +0.044 C 
ATOM     21  C   UNL     1       4.793  -3.487  -2.772  0.00  0.00    -0.050 A 
ATOM     22  C   UNL     1       4.858  -3.275  -4.138  0.00  0.00    +0.003 A 
ATOM     23  C   UNL     1       4.528  -2.042  -4.669  0.00  0.00    +0.004 A 
ATOM     24  C   UNL     1       4.127  -1.015  -3.839  0.00  0.00    -0.042 A 
ATOM     25  C   UNL     1       4.064  -1.220  -2.461  0.00  0.00    -0.000 A 
ATOM     26  C   UNL     1       4.398  -2.466  -1.932  0.00  0.00    +0.013 A 
ATOM     27  C   UNL     1       3.761   0.327  -4.420  0.00  0.00    +0.044 C 
ENDBRANCH   1  25
BRANCH  16  28
ATOM     28  C   UNL     1       7.809   2.842  -1.420  0.00  0.00    -0.044 A 
ATOM     29  C   UNL     1       7.795   1.594  -2.013  0.00  0.00    +0.004 A 
ATOM     30  C   UNL     1       8.968   1.043  -2.494  0.00  0.00    +0.000 A 
ATOM     31  C   UNL     1      10.157   1.738  -2.374  0.00  0.00    +0.000 A 
ATOM     32  C   UNL     1      10.172   2.984  -1.776  0.00  0.00    +0.000 A 
ATOM     33  C   UNL     1       8.999   3.536  -1.299  0.00  0.00    +0.004 A 
ENDBRANCH  16  28
TORSDOF 2
