REMARK  Name = ZINC08695594
REMARK  4 active torsions:
REMARK  status: ('A' for Active; 'I' for Inactive)
REMARK    1  A    between atoms: C_1  and  C_2
REMARK    2  A    between atoms: C_5  and  C_8
REMARK    3  A    between atoms: C_13  and  C_31
REMARK    4  A    between atoms: C_23  and  C_25
REMARK                            x       y       z     vdW  Elec       q    Type
REMARK                         _______ _______ _______ _____ _____    ______ ____
ROOT
ATOM      1  C   UNL     1      -4.329   6.056  -3.195  0.00  0.00    +0.032 C 
ATOM      2  C   UNL     1      -2.862   6.407  -2.953  0.00  0.00    +0.059 C 
ATOM      3  C   UNL     1      -2.278   5.481  -1.897  0.00  0.00    +0.017 C 
ATOM      4  C   UNL     1      -3.045   5.035  -0.891  0.00  0.00    +0.037 C 
ATOM      5  C   UNL     1      -2.589   4.150   0.241  0.00  0.00    +0.147 C 
ATOM      6  N   UNL     1      -1.276   3.568   0.058  0.00  0.00    -0.254 N 
ATOM      7  C   UNL     1      -0.138   4.370  -0.007  0.00  0.00    +0.059 A 
ATOM      8  C   UNL     1       0.841   4.313   0.973  0.00  0.00    +0.025 A 
ATOM      9  C   UNL     1       1.932   5.160   0.895  0.00  0.00    +0.002 A 
ATOM     10  C   UNL     1       2.048   6.060  -0.149  0.00  0.00    +0.002 A 
ATOM     11  C   UNL     1       1.082   6.107  -1.139  0.00  0.00    +0.025 A 
ATOM     12  C   UNL     1       0.002   5.245  -1.074  0.00  0.00    +0.053 A 
ATOM     13  N   UNL     1      -0.964   5.185  -2.073  0.00  0.00    -0.316 N 
ATOM     14  C   UNL     1      -1.153   2.231  -0.055  0.00  0.00    +0.252 C 
ATOM     15  O   UNL     1      -2.145   1.529  -0.079  0.00  0.00    -0.270 OA
ATOM     16  C   UNL     1      -4.415   5.384  -0.827  0.00  0.00    +0.163 C 
ATOM     17  O   UNL     1      -5.079   4.980   0.107  0.00  0.00    -0.292 OA
ATOM     18  C   UNL     1      -5.077   6.235  -1.869  0.00  0.00    +0.088 C 
ATOM     19  H   UNL     1      -0.679   4.912  -2.959  0.00  0.00    +0.152 HD
ENDROOT
BRANCH   1  24
ATOM     20  C   UNL     1      -6.552   9.586  -7.194  0.00  0.00    +0.044 C 
ATOM     21  C   UNL     1      -5.973   8.666  -6.151  0.00  0.00    -0.050 A 
ATOM     22  C   UNL     1      -5.952   7.301  -6.368  0.00  0.00    +0.003 A 
ATOM     23  C   UNL     1      -5.421   6.456  -5.412  0.00  0.00    +0.004 A 
ATOM     24  C   UNL     1      -4.909   6.977  -4.238  0.00  0.00    -0.043 A 
ATOM     25  C   UNL     1      -4.934   8.341  -4.018  0.00  0.00    +0.004 A 
ATOM     26  C   UNL     1      -5.462   9.186  -4.976  0.00  0.00    +0.003 A 
ENDBRANCH   1  24
BRANCH   5  27
ATOM     27  C   UNL     1      -2.580   4.966   1.508  0.00  0.00    -0.021 A 
ATOM     28  C   UNL     1      -1.692   6.018   1.645  0.00  0.00    +0.006 A 
ATOM     29  C   UNL     1      -1.686   6.770   2.805  0.00  0.00    +0.002 A 
ATOM     30  C   UNL     1      -2.560   6.465   3.832  0.00  0.00    +0.020 A 
ATOM     31  C   UNL     1      -3.444   5.410   3.697  0.00  0.00    +0.041 A 
ATOM     32  C   UNL     1      -3.454   4.660   2.534  0.00  0.00    +0.025 A 
ATOM     33 CL   UNL     1      -4.542   5.026   4.986  0.00  0.00    -0.084 Cl
ENDBRANCH   5  27
BRANCH  14  34
ATOM     34  C   UNL     1       0.189   1.618  -0.152  0.00  0.00    +0.037 A 
ATOM     35  C   UNL     1       1.176   2.212  -0.941  0.00  0.00    +0.013 A 
ATOM     36  C   UNL     1       2.424   1.632  -1.031  0.00  0.00    +0.001 A 
ATOM     37  C   UNL     1       2.699   0.464  -0.343  0.00  0.00    +0.000 A 
ATOM     38  C   UNL     1       1.725  -0.130   0.442  0.00  0.00    +0.001 A 
ATOM     39  C   UNL     1       0.473   0.440   0.540  0.00  0.00    +0.013 A 
ENDBRANCH  14  34
TORSDOF 3
