REMARK  Name = ZINC36039581
REMARK  7 active torsions:
REMARK  status: ('A' for Active; 'I' for Inactive)
REMARK    1  A    between atoms: C_4  and  C_7
REMARK    2  A    between atoms: N_9  and  C_21
REMARK    3  A    between atoms: N_12  and  C_13
REMARK    4  A    between atoms: C_13  and  C_15
REMARK    5  A    between atoms: C_15  and  N_16
REMARK    6  A    between atoms: N_16  and  C_17
REMARK    7  A    between atoms: C_17  and  C_18
REMARK                            x       y       z     vdW  Elec       q    Type
REMARK                         _______ _______ _______ _____ _____    ______ ____
ROOT
ATOM      1  C   UNL     1       3.696  -0.685  -0.038  0.00  0.00    +0.066 A 
ATOM      2  C   UNL     1       3.859  -2.020  -0.052  0.00  0.00    +0.120 A 
ATOM      3  N   UNL     1       5.213  -2.286  -0.066  0.00  0.00    -0.287 N 
ATOM      4  C   UNL     1       5.878  -1.099  -0.059  0.00  0.00    +0.205 A 
ATOM      5  N   UNL     1       4.957  -0.101  -0.049  0.00  0.00    -0.326 N 
ATOM      6  N   UNL     1       7.202  -0.943  -0.068  0.00  0.00    -0.148 NA
ATOM      7  H   UNL     1       5.146   0.850  -0.046  0.00  0.00    +0.169 HD
ENDROOT
BRANCH   3   8
ATOM      8  C   UNL     1       5.802  -3.557  -0.082  0.00  0.00    +0.051 A 
ATOM      9  C   UNL     1       7.185  -3.684  -0.088  0.00  0.00    +0.029 A 
ATOM     10  C   UNL     1       7.763  -4.938  -0.104  0.00  0.00    +0.042 A 
ATOM     11  C   UNL     1       6.965  -6.069  -0.114  0.00  0.00    +0.142 A 
ATOM     12  C   UNL     1       5.585  -5.946  -0.109  0.00  0.00    +0.078 A 
ATOM     13  C   UNL     1       5.003  -4.693  -0.087  0.00  0.00    +0.049 A 
ATOM     14 CL   UNL     1       4.587  -7.366  -0.123  0.00  0.00    -0.081 Cl
ATOM     15  F   UNL     1       7.533  -7.295  -0.130  0.00  0.00    -0.204 F 
ENDBRANCH   3   8
BRANCH   1  19
ATOM     16  C   UNL     1      -0.017   1.379   0.010  0.00  0.00    +0.000 A 
ATOM     17  C   UNL     1       1.168   2.093   0.002  0.00  0.00    +0.001 A 
ATOM     18  C   UNL     1       2.377   1.429  -0.013  0.00  0.00    +0.010 A 
ATOM     19  C   UNL     1       2.403   0.034  -0.021  0.00  0.00    -0.000 A 
ATOM     20  C   UNL     1       1.204  -0.680  -0.013  0.00  0.00    +0.010 A 
ATOM     21  C   UNL     1       0.002  -0.004   0.002  0.00  0.00    +0.001 A 
ENDBRANCH   1  19
BRANCH   6  22
ATOM     22  C   UNL     1       7.727   0.277  -0.060  0.00  0.00    +0.222 C 
ATOM     23  O   UNL     1       6.999   1.252  -0.046  0.00  0.00    -0.276 OA
BRANCH  22  24
ATOM     24  C   UNL     1       9.223   0.453  -0.070  0.00  0.00    +0.017 C 
BRANCH  24  25
ATOM     25  N   UNL     1       9.547   1.886  -0.059  0.00  0.00    +0.385 N 
ATOM     26  H   UNL     1       9.151   2.327  -0.876  0.00  0.00    -0.085 HD
ATOM     27  H   UNL     1       9.164   2.311   0.772  0.00  0.00    -0.085 HD
BRANCH  25  28
ATOM     28  C   UNL     1      11.006   2.058  -0.068  0.00  0.00    -0.079 C 
BRANCH  28  29
ATOM     29  C   UNL     1      11.344   3.550  -0.057  0.00  0.00    -0.028 C 
ATOM     30  C   UNL     1      12.078   4.118  -1.273  0.00  0.00    +0.002 C 
ATOM     31  C   UNL     1      12.819   3.940   0.054  0.00  0.00    +0.002 C 
ENDBRANCH  28  29
ENDBRANCH  25  28
ENDBRANCH  24  25
ENDBRANCH  22  24
ENDBRANCH   6  22
TORSDOF 7
