REMARK  Name = ZINC37366969
REMARK  5 active torsions:
REMARK  status: ('A' for Active; 'I' for Inactive)
REMARK    1  A    between atoms: C_1  and  C_2
REMARK    2  A    between atoms: C_2  and  C_4
REMARK    3  A    between atoms: C_2  and  N_17
REMARK    4  A    between atoms: N_6  and  C_7
REMARK    5  A    between atoms: C_7  and  C_14
REMARK                            x       y       z     vdW  Elec       q    Type
REMARK                         _______ _______ _______ _____ _____    ______ ____
ROOT
ATOM      1  C   UNL     1       0.707  -0.490  -1.238  0.00  0.00    +0.238 C 
ATOM      2  O   UNL     1       1.704  -1.174  -1.140  0.00  0.00    -0.273 OA
ATOM      3  N   UNL     1       0.231  -0.164  -2.456  0.00  0.00    -0.298 N 
ATOM      4  H   UNL     1      -0.566   0.383  -2.534  0.00  0.00    +0.150 HD
ENDROOT
BRANCH   3   5
ATOM      5  C   UNL     1       0.917  -0.637  -3.661  0.00  0.00    +0.136 C 
ATOM      6  C   UNL     1       0.994  -2.176  -3.620  0.00  0.00    +0.037 C 
ATOM      7  C   UNL     1      -0.315  -2.708  -3.102  0.00  0.00    +0.003 C 
ATOM      8  C   UNL     1      -1.293  -3.072  -4.235  0.00  0.00    +0.000 C 
ATOM      9  C   UNL     1      -1.302  -2.035  -5.374  0.00  0.00    +0.000 C 
ATOM     10  C   UNL     1      -1.265  -0.620  -4.864  0.00  0.00    +0.003 C 
ATOM     11  C   UNL     1       0.203  -0.148  -4.832  0.00  0.00    +0.037 C 
BRANCH   5  12
ATOM     12  C   UNL     1       2.317  -0.080  -3.675  0.00  0.00    +0.379 C 
ATOM     13  O   UNL     1       2.696   0.639  -2.766  0.00  0.00    -0.244 OA
ATOM     14  O   UNL     1       3.070  -0.347  -4.596  0.00  0.00    -0.244 OA
ENDBRANCH   5  12
ENDBRANCH   3   5
BRANCH   1  16
ATOM     15  C   UNL     1      -0.019   1.526   0.010  0.00  0.00    +0.042 C 
ATOM     16  C   UNL     1       0.002  -0.004   0.002  0.00  0.00    +0.191 C 
BRANCH  16  17
ATOM     17  N   UNL     1       0.711  -0.489   1.189  0.00  0.00    -0.240 N 
ATOM     18  C   UNL     1       1.766   0.087   1.789  0.00  0.00    +0.219 A 
ATOM     19  N   UNL     1       2.105  -0.652   2.814  0.00  0.00    -0.223 NA
ATOM     20  C   UNL     1       1.292  -1.705   2.900  0.00  0.00    +0.245 A 
ATOM     21  N   UNL     1       0.418  -1.646   1.930  0.00  0.00    -0.158 NA
ENDBRANCH  16  17
ENDBRANCH   1  16
TORSDOF 4
