REMARK  Name = ZINC07333524
REMARK  9 active torsions:
REMARK  status: ('A' for Active; 'I' for Inactive)
REMARK    1  A    between atoms: C_1  and  C_2
REMARK    2  A    between atoms: C_2  and  C_3
REMARK    3  A    between atoms: C_3  and  O_4
REMARK    4  A    between atoms: O_4  and  C_5
REMARK    5  A    between atoms: C_8  and  C_13
REMARK    6  A    between atoms: C_10  and  O_11
REMARK    7  A    between atoms: O_11  and  C_12
REMARK    8  A    between atoms: C_14  and  C_15
REMARK    9  A    between atoms: C_17  and  C_20
REMARK                            x       y       z     vdW  Elec       q    Type
REMARK                         _______ _______ _______ _____ _____    ______ ____
ROOT
ATOM      1  C   UNL     1       0.065  -4.249  -0.021  0.00  0.00    +0.033 C 
ATOM      2  C   UNL     1       1.026  -4.905  -0.704  0.00  0.00    +0.106 C 
ATOM      3 CL   UNL     1       2.309  -4.016  -1.465  0.00  0.00    -0.078 Cl
ENDROOT
BRANCH   1   7
ATOM      4  C   UNL     1       0.425  -0.075   0.665  0.00  0.00    +0.162 A 
ATOM      5  C   UNL     1       1.562  -0.869   0.608  0.00  0.00    +0.050 A 
ATOM      6  C   UNL     1       1.450  -2.225   0.391  0.00  0.00    +0.012 A 
ATOM      7  C   UNL     1       0.187  -2.803   0.217  0.00  0.00    -0.020 A 
ATOM      8  C   UNL     1      -0.958  -2.001   0.269  0.00  0.00    +0.057 A 
ATOM      9  C   UNL     1      -0.836  -0.643   0.492  0.00  0.00    +0.162 A 
BRANCH   9  10
ATOM     10  O   UNL     1      -1.947   0.140   0.544  0.00  0.00    -0.491 OA
ATOM     11  C   UNL     1      -3.207  -0.509   0.358  0.00  0.00    +0.277 C 
ENDBRANCH   9  10
BRANCH   4  12
ATOM     12  O   UNL     1       0.542   1.261   0.885  0.00  0.00    -0.488 OA
BRANCH  12  13
ATOM     13  C   UNL     1       1.864   1.778   1.054  0.00  0.00    +0.229 C 
BRANCH  13  15
ATOM     14  C   UNL     1       3.210   3.841   1.470  0.00  0.00    +0.007 C 
ATOM     15  C   UNL     1       1.795   3.288   1.289  0.00  0.00    +0.038 C 
ENDBRANCH  13  15
ENDBRANCH  12  13
ENDBRANCH   4  12
ENDBRANCH   1   7
BRANCH   2  16
ATOM     16  C   UNL     1       0.987  -6.366  -0.803  0.00  0.00    +0.270 A 
ATOM     17  N   UNL     1       1.857  -7.138  -1.437  0.00  0.00    -0.186 NA
ATOM     18  C   UNL     1       1.417  -8.399  -1.257  0.00  0.00    +0.203 A 
ATOM     19  N   UNL     1       0.323  -8.335  -0.538  0.00  0.00    -0.056 NA
ATOM     20  O   UNL     1       0.065  -7.182  -0.264  0.00  0.00    -0.332 OA
BRANCH  18  21
ATOM     21  C   UNL     1       2.053  -9.633  -1.777  0.00  0.00    +0.029 A 
ATOM     22  C   UNL     1       1.500 -10.886  -1.517  0.00  0.00    +0.019 A 
ATOM     23  C   UNL     1       2.129 -11.968  -2.027  0.00  0.00    +0.046 A 
ATOM     24  S   UNL     1       3.520 -11.237  -2.870  0.00  0.00    -0.104 S 
ATOM     25  C   UNL     1       3.198  -9.571  -2.518  0.00  0.00    +0.057 A 
ENDBRANCH  18  21
ENDBRANCH   2  16
TORSDOF 7
