REMARK  Name = ZINC13028355
REMARK  9 active torsions:
REMARK  status: ('A' for Active; 'I' for Inactive)
REMARK    1  A    between atoms: C_1  and  C_2
REMARK    2  A    between atoms: C_5  and  N_8
REMARK    3  A    between atoms: N_8  and  C_9
REMARK    4  A    between atoms: C_9  and  C_11
REMARK    5  A    between atoms: C_9  and  C_18
REMARK    6  A    between atoms: N_20  and  C_21
REMARK    7  A    between atoms: C_21  and  C_22
REMARK    8  A    between atoms: C_28  and  C_30
REMARK    9  A    between atoms: C_30  and  N_31
REMARK                            x       y       z     vdW  Elec       q    Type
REMARK                         _______ _______ _______ _____ _____    ______ ____
ROOT
ATOM      1  N   UNL     1      -5.441   3.508  -1.681  0.00  0.00    -0.254 N 
ATOM      2  C   UNL     1      -4.118   3.763  -1.699  0.00  0.00    +0.242 C 
ATOM      3  O   UNL     1      -3.509   3.736  -2.748  0.00  0.00    -0.273 OA
ENDROOT
BRANCH   1   8
ATOM      4  C   UNL     1      -8.376   4.076   3.140  0.00  0.00    +0.044 C 
ATOM      5  C   UNL     1      -7.596   3.925   1.859  0.00  0.00    -0.050 A 
ATOM      6  C   UNL     1      -7.801   4.812   0.819  0.00  0.00    +0.005 A 
ATOM      7  C   UNL     1      -7.088   4.677  -0.356  0.00  0.00    +0.024 A 
ATOM      8  C   UNL     1      -6.165   3.648  -0.492  0.00  0.00    +0.038 A 
ATOM      9  C   UNL     1      -5.966   2.755   0.553  0.00  0.00    +0.024 A 
ATOM     10  C   UNL     1      -6.678   2.900   1.728  0.00  0.00    +0.005 A 
ENDBRANCH   1   8
BRANCH   1  11
ATOM     11  C   UNL     1      -6.122   3.084  -2.908  0.00  0.00    +0.200 C 
BRANCH  11  12
ATOM     12  C   UNL     1      -7.151   4.116  -3.293  0.00  0.00    +0.017 A 
ATOM     13  C   UNL     1      -8.493   3.870  -3.072  0.00  0.00    +0.009 A 
ATOM     14  C   UNL     1      -9.437   4.816  -3.424  0.00  0.00    +0.001 A 
ATOM     15  C   UNL     1      -9.040   6.010  -3.999  0.00  0.00    +0.003 A 
ATOM     16  C   UNL     1      -7.699   6.258  -4.221  0.00  0.00    +0.039 A 
ATOM     17  C   UNL     1      -6.752   5.313  -3.864  0.00  0.00    +0.129 A 
ATOM     18  F   UNL     1      -5.440   5.556  -4.075  0.00  0.00    -0.205 F 
ENDBRANCH  11  12
BRANCH  11  19
ATOM     19  C   UNL     1      -6.802   1.760  -2.673  0.00  0.00    +0.239 C 
ATOM     20  O   UNL     1      -6.725   1.223  -1.589  0.00  0.00    -0.273 OA
ATOM     21  N   UNL     1      -7.495   1.173  -3.669  0.00  0.00    -0.309 N 
ATOM     22  H   UNL     1      -7.556   1.603  -4.536  0.00  0.00    +0.149 HD
BRANCH  21  23
ATOM     23  C   UNL     1      -8.156  -0.115  -3.441  0.00  0.00    +0.139 C 
BRANCH  23  24
ATOM     24  C   UNL     1      -8.856  -0.550  -4.702  0.00  0.00    -0.030 A 
ATOM     25  C   UNL     1     -10.170  -0.183  -4.925  0.00  0.00    +0.005 A 
ATOM     26  C   UNL     1     -10.810  -0.579  -6.085  0.00  0.00    +0.000 A 
ATOM     27  C   UNL     1     -10.140  -1.349  -7.016  0.00  0.00    +0.000 A 
ATOM     28  C   UNL     1      -8.828  -1.721  -6.791  0.00  0.00    +0.000 A 
ATOM     29  C   UNL     1      -8.186  -1.321  -5.634  0.00  0.00    +0.005 A 
ENDBRANCH  23  24
ENDBRANCH  21  23
ENDBRANCH  11  19
ENDBRANCH   1  11
BRANCH   2  30
ATOM     30  C   UNL     1      -3.395   4.080  -0.415  0.00  0.00    +0.242 C 
BRANCH  30  31
ATOM     31  N   UNL     1      -1.960   4.213  -0.683  0.00  0.00    -0.235 N 
ATOM     32  C   UNL     1      -1.020   3.212  -0.644  0.00  0.00    +0.090 A 
ATOM     33  C   UNL     1      -1.070   1.848  -0.372  0.00  0.00    +0.029 A 
ATOM     34  C   UNL     1       0.075   1.105  -0.413  0.00  0.00    +0.002 A 
ATOM     35  C   UNL     1       1.291   1.696  -0.734  0.00  0.00    +0.002 A 
ATOM     36  C   UNL     1       1.366   3.030  -1.010  0.00  0.00    +0.032 A 
ATOM     37  C   UNL     1       0.207   3.816  -0.970  0.00  0.00    +0.113 A 
ATOM     38  N   UNL     1      -0.028   5.125  -1.188  0.00  0.00    -0.129 NA
ATOM     39  N   UNL     1      -1.277   5.388  -1.030  0.00  0.00    -0.064 NA
ENDBRANCH  30  31
ENDBRANCH   2  30
TORSDOF 8
