REMARK  Name = ZINC38958906
REMARK  10 active torsions:
REMARK  status: ('A' for Active; 'I' for Inactive)
REMARK    1  A    between atoms: C_1  and  C_2
REMARK    2  A    between atoms: C_8  and  C_25
REMARK    3  A    between atoms: C_10  and  C_24
REMARK    4  A    between atoms: N_12  and  C_13
REMARK    5  A    between atoms: C_13  and  C_14
REMARK    6  A    between atoms: C_14  and  O_15
REMARK    7  A    between atoms: O_15  and  C_16
REMARK    8  A    between atoms: C_20  and  O_22
REMARK    9  A    between atoms: O_22  and  C_23
REMARK   10  A    between atoms: N_26  and  N_27
REMARK                            x       y       z     vdW  Elec       q    Type
REMARK                         _______ _______ _______ _____ _____    ______ ____
ROOT
ATOM      1  C   UNL     1      -0.018   1.503   0.010  0.00  0.00    +0.044 C 
ATOM      2  C   UNL     1       0.002  -0.004   0.002  0.00  0.00    -0.050 A 
ATOM      3  C   UNL     1       0.006  -0.691  -1.198  0.00  0.00    +0.005 A 
ATOM      4  C   UNL     1       0.024  -2.069  -1.210  0.00  0.00    +0.024 A 
ATOM      5  C   UNL     1       0.039  -2.783  -0.009  0.00  0.00    +0.034 A 
ATOM      6  C   UNL     1       0.036  -2.085   1.188  0.00  0.00    -0.016 A 
ATOM      7  C   UNL     1       0.023  -0.703   1.194  0.00  0.00    +0.009 A 
ATOM      8  C   UNL     1       0.055  -3.082   2.325  0.00  0.00    +0.084 C 
ATOM      9  C   UNL     1       0.071  -4.455   1.635  0.00  0.00    +0.083 C 
ATOM     10  N   UNL     1       0.059  -4.163   0.199  0.00  0.00    -0.323 N 
ATOM     11  C   UNL     1      -1.171  -5.259   2.025  0.00  0.00    +0.029 C 
ENDROOT
BRANCH   8  12
ATOM     12  C   UNL     1      -1.179  -2.932   3.177  0.00  0.00    +0.117 C 
ATOM     13  N   UNL     1      -1.067  -2.665   4.439  0.00  0.00    -0.159 NA
BRANCH  13  14
ATOM     14  N   UNL     1      -2.214  -2.526   5.230  0.00  0.00    -0.124 NA
ATOM     15  C   UNL     1      -2.099  -2.253   6.516  0.00  0.00    +0.193 A 
ATOM     16  N   UNL     1      -3.088  -2.086   7.450  0.00  0.00    -0.332 N 
ATOM     17  H   UNL     1      -4.019  -2.168   7.190  0.00  0.00    +0.168 HD
ATOM     18  C   UNL     1      -2.760  -1.802   8.765  0.00  0.00    +0.055 A 
ATOM     19  C   UNL     1      -3.641  -1.602   9.842  0.00  0.00    +0.027 A 
ATOM     20  C   UNL     1      -3.165  -1.325  11.101  0.00  0.00    +0.002 A 
ATOM     21  C   UNL     1      -1.806  -1.234  11.351  0.00  0.00    +0.001 A 
ATOM     22  C   UNL     1      -0.915  -1.426  10.310  0.00  0.00    +0.017 A 
ATOM     23  C   UNL     1      -1.391  -1.703   9.050  0.00  0.00    +0.039 A 
ATOM     24  S   UNL     1      -0.617  -2.016   7.482  0.00  0.00    -0.048 S 
ENDBRANCH  13  14
ENDBRANCH   8  12
BRANCH  10  25
ATOM     25  C   UNL     1       0.067  -5.172  -0.863  0.00  0.00    +0.146 C 
BRANCH  25  26
ATOM     26  C   UNL     1       1.512  -5.504  -1.241  0.00  0.00    +0.248 C 
BRANCH  26  27
ATOM     27  O   UNL     1       2.165  -6.120  -0.129  0.00  0.00    -0.490 OA
BRANCH  27  28
ATOM     28  C   UNL     1       3.464  -6.480  -0.299  0.00  0.00    +0.124 A 
ATOM     29  C   UNL     1       4.099  -6.240  -1.510  0.00  0.00    +0.046 A 
ATOM     30  C   UNL     1       5.420  -6.606  -1.684  0.00  0.00    +0.007 A 
ATOM     31  C   UNL     1       6.112  -7.212  -0.653  0.00  0.00    +0.046 A 
ATOM     32  C   UNL     1       5.482  -7.455   0.559  0.00  0.00    +0.124 A 
ATOM     33  C   UNL     1       4.159  -7.083   0.738  0.00  0.00    +0.091 A 
BRANCH  32  34
ATOM     34  O   UNL     1       6.164  -8.051   1.573  0.00  0.00    -0.495 OA
ATOM     35  C   UNL     1       7.526  -8.402   1.320  0.00  0.00    +0.277 C 
ENDBRANCH  32  34
ENDBRANCH  27  28
ENDBRANCH  26  27
ENDBRANCH  25  26
ENDBRANCH  10  25
TORSDOF 7
