REMARK  Name = ZINC39337932
REMARK  4 active torsions:
REMARK  status: ('A' for Active; 'I' for Inactive)
REMARK    1  A    between atoms: C_9  and  C_11
REMARK    2  A    between atoms: N_22  and  C_25
REMARK    3  A    between atoms: C_25  and  C_26
REMARK    4  A    between atoms: C_29  and  C_31
REMARK                            x       y       z     vdW  Elec       q    Type
REMARK                         _______ _______ _______ _____ _____    ______ ____
ROOT
ATOM      1  C   UNL     1       1.180  -2.197  -0.021  0.00  0.00    +0.106 C 
ATOM      2  C   UNL     1       0.478  -2.711   1.239  0.00  0.00    +0.024 C 
ATOM      3  C   UNL     1       0.211  -4.207   1.063  0.00  0.00    +0.028 C 
ATOM      4  C   UNL     1      -0.332  -4.812   2.359  0.00  0.00    +0.113 C 
ATOM      5  N   UNL     1      -0.683  -6.217   2.098  0.00  0.00    -0.299 N 
ATOM      6  C   UNL     1      -1.577  -6.535   0.977  0.00  0.00    +0.109 C 
ATOM      7  C   UNL     1      -1.035  -5.883  -0.301  0.00  0.00    +0.042 C 
ATOM      8  C   UNL     1      -0.826  -4.391  -0.047  0.00  0.00    +0.082 C 
ATOM      9  N   UNL     1      -0.403  -3.697  -1.253  0.00  0.00    -0.297 N 
ATOM     10  C   UNL     1       0.468  -2.687  -1.248  0.00  0.00    +0.223 C 
ATOM     11  O   UNL     1       0.700  -2.133  -2.302  0.00  0.00    -0.275 OA
ATOM     12  C   UNL     1      -0.189  -7.200   2.877  0.00  0.00    +0.244 C 
ATOM     13  O   UNL     1       0.549  -6.929   3.800  0.00  0.00    -0.273 OA
ENDROOT
BRANCH   1  22
ATOM     14  C   UNL     1      -0.017   1.389   0.010  0.00  0.00    +0.001 A 
ATOM     15  C   UNL     1       1.140   2.108   0.003  0.00  0.00    +0.010 A 
ATOM     16  C   UNL     1       2.372   1.436  -0.013  0.00  0.00    +0.001 A 
ATOM     17  C   UNL     1       3.596   2.123  -0.020  0.00  0.00    +0.119 A 
ATOM     18  N   UNL     1       4.723   1.451  -0.034  0.00  0.00    -0.263 NA
ATOM     19  C   UNL     1       4.769   0.126  -0.042  0.00  0.00    +0.111 A 
ATOM     20  C   UNL     1       3.638  -0.633  -0.036  0.00  0.00    +0.028 A 
ATOM     21  C   UNL     1       2.390   0.017  -0.021  0.00  0.00    -0.011 A 
ATOM     22  C   UNL     1       1.179  -0.690  -0.013  0.00  0.00    -0.028 A 
ATOM     23  C   UNL     1       0.002  -0.004   0.002  0.00  0.00    +0.005 A 
ENDBRANCH   1  22
BRANCH  12  24
ATOM     24  C   UNL     1      -0.555  -8.636   2.600  0.00  0.00    +0.215 C 
ATOM     25  C   UNL     1      -1.913  -8.950   3.185  0.00  0.00    +0.026 C 
ATOM     26  C   UNL     1      -1.717  -9.913   4.072  0.00  0.00    +0.036 A 
ATOM     27  C   UNL     1      -0.283 -10.287   4.136  0.00  0.00    +0.074 A 
ATOM     28  N   UNL     1       0.388  -9.535   3.270  0.00  0.00    -0.266 NA
ATOM     29  C   UNL     1      -0.008 -11.346   5.098  0.00  0.00    +0.035 A 
ATOM     30  C   UNL     1      -1.013 -11.870   5.812  0.00  0.00    +0.048 A 
ATOM     31  S   UNL     1      -2.464 -10.993   5.268  0.00  0.00    -0.095 S 
ENDBRANCH  12  24
BRANCH   9  32
ATOM     32  C   UNL     1      -0.964  -4.128  -2.536  0.00  0.00    +0.111 C 
BRANCH  32  33
ATOM     33  C   UNL     1      -2.244  -3.340  -2.823  0.00  0.00    +0.006 C 
ATOM     34  C   UNL     1      -3.554  -4.126  -2.904  0.00  0.00    +0.005 C 
ATOM     35  C   UNL     1      -2.921  -3.561  -4.177  0.00  0.00    +0.005 C 
ENDBRANCH  32  33
ENDBRANCH   9  32
TORSDOF 4
