REMARK  Name = ZINC09329437
REMARK  4 active torsions:
REMARK  status: ('A' for Active; 'I' for Inactive)
REMARK    1  A    between atoms: C_3  and  C_7
REMARK    2  A    between atoms: C_7  and  C_9
REMARK    3  A    between atoms: C_11  and  C_29
REMARK    4  A    between atoms: C_32  and  N_35
REMARK                            x       y       z     vdW  Elec       q    Type
REMARK                         _______ _______ _______ _____ _____    ______ ____
ROOT
ATOM      1  C   UNL     1      -0.880   1.921  -1.040  0.00  0.00    +0.069 C 
ATOM      2  C   UNL     1      -1.908   1.924   0.111  0.00  0.00    +0.016 C 
ATOM      3  C   UNL     1      -1.079   1.760   1.398  0.00  0.00    -0.047 C 
ATOM      4  C   UNL     1      -1.701   2.621   2.517  0.00  0.00    +0.052 C 
ATOM      5  S   UNL     1      -0.389   3.887   2.794  0.00  0.00    -0.181 S 
ATOM      6  C   UNL     1       0.546   3.600   1.227  0.00  0.00    -0.005 C 
ATOM      7  C   UNL     1       0.485   1.777  -0.361  0.00  0.00    +0.052 C 
ATOM      8  C   UNL     1       1.517   2.650  -1.021  0.00  0.00    -0.024 A 
ATOM      9  C   UNL     1       1.616   4.008  -1.224  0.00  0.00    +0.043 A 
ATOM     10  C   UNL     1       2.716   4.532  -1.885  0.00  0.00    +0.124 A 
ATOM     11  C   UNL     1       3.714   3.684  -2.338  0.00  0.00    +0.040 A 
ATOM     12  C   UNL     1       3.616   2.324  -2.136  0.00  0.00    +0.026 A 
ATOM     13  C   UNL     1       2.513   1.790  -1.472  0.00  0.00    +0.036 A 
ATOM     14  N   UNL     1       2.192   0.469  -1.152  0.00  0.00    -0.286 N 
ATOM     15  C   UNL     1       1.017   0.375  -0.501  0.00  0.00    +0.212 C 
ATOM     16  O   UNL     1       0.490  -0.642  -0.103  0.00  0.00    -0.277 OA
ATOM     17  F   UNL     1       2.816   5.864  -2.086  0.00  0.00    -0.205 F 
ATOM     18  H   UNL     1       2.750  -0.293  -1.374  0.00  0.00    +0.155 HD
ATOM     19  N   UNL     1       0.300   2.124   1.037  0.00  0.00    +0.401 N 
ATOM     20  H   UNL     1       0.959   1.595   1.620  0.00  0.00    -0.078 HD
ENDROOT
BRANCH   2  21
ATOM     21  C   UNL     1      -2.866   0.771  -0.043  0.00  0.00    -0.045 A 
ATOM     22  C   UNL     1      -4.045   0.941  -0.745  0.00  0.00    +0.006 A 
ATOM     23  C   UNL     1      -4.922  -0.117  -0.890  0.00  0.00    +0.033 A 
ATOM     24  C   UNL     1      -4.625  -1.343  -0.324  0.00  0.00    +0.126 A 
ATOM     25  C   UNL     1      -3.449  -1.512   0.382  0.00  0.00    +0.033 A 
ATOM     26  C   UNL     1      -2.570  -0.455   0.523  0.00  0.00    +0.006 A 
BRANCH  24  27
ATOM     27  N   UNL     1      -5.567  -2.475  -0.475  0.00  0.00    +0.056 N 
ATOM     28  O   UNL     1      -5.306  -3.555   0.023  0.00  0.00    -0.126 OA
ATOM     29  O   UNL     1      -6.603  -2.326  -1.098  0.00  0.00    -0.126 OA
ENDBRANCH  24  27
ENDBRANCH   2  21
BRANCH   1  30
ATOM     30  C   UNL     1      -1.131   0.756  -1.961  0.00  0.00    +0.168 C 
ATOM     31  O   UNL     1      -1.240  -0.363  -1.508  0.00  0.00    -0.292 OA
BRANCH  30  34
ATOM     32  C   UNL     1      -1.573   0.162  -5.636  0.00  0.00    +0.020 A 
ATOM     33  C   UNL     1      -1.470  -0.101  -4.282  0.00  0.00    +0.014 A 
ATOM     34  C   UNL     1      -1.243   0.976  -3.412  0.00  0.00    +0.036 A 
ATOM     35  C   UNL     1      -1.119   2.261  -3.948  0.00  0.00    +0.122 A 
ATOM     36  N   UNL     1      -1.219   2.457  -5.246  0.00  0.00    -0.263 NA
ATOM     37  C   UNL     1      -1.438   1.463  -6.086  0.00  0.00    +0.111 A 
ENDBRANCH  30  34
ENDBRANCH   1  30
TORSDOF 4
