REMARK  Name = ZINC34923285
REMARK  14 active torsions:
REMARK  status: ('A' for Active; 'I' for Inactive)
REMARK    1  A    between atoms: C_1  and  C_2
REMARK    2  A    between atoms: C_2  and  C_3
REMARK    3  A    between atoms: C_4  and  C_34
REMARK    4  A    between atoms: C_5  and  C_26
REMARK    5  A    between atoms: C_8  and  C_13
REMARK    6  A    between atoms: C_14  and  N_16
REMARK    7  A    between atoms: N_16  and  C_17
REMARK    8  A    between atoms: C_17  and  C_18
REMARK    9  A    between atoms: C_18  and  C_19
REMARK   10  A    between atoms: N_24  and  C_25
REMARK   11  A    between atoms: C_29  and  C_33
REMARK   12  A    between atoms: C_31  and  C_32
REMARK   13  A    between atoms: C_34  and  O_36
REMARK   14  A    between atoms: O_36  and  C_37
REMARK                            x       y       z     vdW  Elec       q    Type
REMARK                         _______ _______ _______ _____ _____    ______ ____
ROOT
ATOM      1  C   UNL     1       0.941  -1.245   0.811  0.00  0.00    +0.056 C 
ATOM      2  C   UNL     1       0.255  -1.265   2.010  0.00  0.00    +0.083 C 
ATOM      3  C   UNL     1       1.064  -1.371   3.284  0.00  0.00    +0.150 C 
ATOM      4  N   UNL     1       2.543  -1.445   3.142  0.00  0.00    -0.267 N 
ATOM      5  C   UNL     1       3.471  -1.546   4.158  0.00  0.00    +0.048 C 
ATOM      6  C   UNL     1       4.776  -1.601   3.812  0.00  0.00    +0.072 C 
ATOM      7  S   UNL     1       4.691  -1.511   2.035  0.00  0.00    -0.060 S 
ATOM      8  C   UNL     1       3.024  -1.410   1.863  0.00  0.00    +0.166 C 
ATOM      9  N   UNL     1       2.261  -1.322   0.793  0.00  0.00    -0.229 NA
ENDROOT
BRANCH   3  10
ATOM     10  C   UNL     1       0.607  -2.602   4.023  0.00  0.00    -0.019 A 
ATOM     11  C   UNL     1       1.250  -3.809   3.819  0.00  0.00    +0.006 A 
ATOM     12  C   UNL     1       0.831  -4.938   4.497  0.00  0.00    +0.004 A 
ATOM     13  C   UNL     1      -0.231  -4.861   5.379  0.00  0.00    -0.050 A 
ATOM     14  C   UNL     1      -0.873  -3.654   5.583  0.00  0.00    +0.007 A 
ATOM     15  C   UNL     1      -0.451  -2.524   4.909  0.00  0.00    -0.045 A 
ATOM     16  C   UNL     1      -1.148  -1.207   5.135  0.00  0.00    +0.044 C 
ATOM     17  C   UNL     1      -0.688  -6.093   6.118  0.00  0.00    +0.044 C 
ENDBRANCH   3  10
BRANCH   5  18
ATOM     18  C   UNL     1       3.055  -1.590   5.567  0.00  0.00    +0.091 C 
ATOM     19  C   UNL     1       3.964  -1.833   6.531  0.00  0.00    +0.239 C 
ATOM     20  O   UNL     1       5.279  -1.923   6.215  0.00  0.00    -0.271 OA
BRANCH  19  21
ATOM     21  N   UNL     1       3.556  -1.991   7.845  0.00  0.00    -0.312 N 
ATOM     22  H   UNL     1       2.610  -2.000   8.061  0.00  0.00    +0.149 HD
BRANCH  21  23
ATOM     23  C   UNL     1       4.552  -2.144   8.908  0.00  0.00    +0.103 C 
BRANCH  23  24
ATOM     24  C   UNL     1       3.843  -2.424  10.235  0.00  0.00    +0.003 C 
BRANCH  24  25
ATOM     25  C   UNL     1       4.871  -2.445  11.368  0.00  0.00    -0.068 C 
ATOM     26  C   UNL     1       4.176  -2.740  12.720  0.00  0.00    -0.017 C 
ATOM     27  C   UNL     1       5.345  -3.330  13.551  0.00  0.00    -0.020 C 
ATOM     28  C   UNL     1       6.150  -4.125  12.502  0.00  0.00    -0.079 C 
ATOM     29  N   UNL     1       5.822  -3.561  11.178  0.00  0.00    +0.380 N 
ATOM     30  C   UNL     1       7.045  -3.064  10.533  0.00  0.00    -0.096 C 
ATOM     31  H   UNL     1       5.400  -4.273  10.601  0.00  0.00    -0.082 HD
ENDBRANCH  24  25
ENDBRANCH  23  24
ENDBRANCH  21  23
ENDBRANCH  19  21
ENDBRANCH   5  18
BRANCH   1  33
ATOM     32  C   UNL     1       0.024   0.332  -0.869  0.00  0.00    +0.010 C 
ATOM     33  C   UNL     1       0.179  -1.141  -0.485  0.00  0.00    +0.053 C 
ENDBRANCH   1  33
BRANCH   2  34
ATOM     34  C   UNL     1      -1.143  -1.190   2.046  0.00  0.00    +0.339 C 
ATOM     35  O   UNL     1      -1.690  -0.122   2.259  0.00  0.00    -0.245 OA
BRANCH  34  36
ATOM     36  O   UNL     1      -1.885  -2.301   1.844  0.00  0.00    -0.465 OA
ATOM     37  C   UNL     1      -3.303  -2.163   1.957  0.00  0.00    +0.280 C 
ENDBRANCH  34  36
ENDBRANCH   2  34
TORSDOF 9
