REMARK  Name = ZINC59227803
REMARK  7 active torsions:
REMARK  status: ('A' for Active; 'I' for Inactive)
REMARK    1  A    between atoms: C_1  and  O_2
REMARK    2  A    between atoms: O_2  and  C_3
REMARK    3  A    between atoms: C_6  and  C_28
REMARK    4  A    between atoms: C_11  and  C_13
REMARK    5  A    between atoms: C_16  and  O_19
REMARK    6  A    between atoms: O_19  and  C_20
REMARK    7  A    between atoms: C_20  and  C_21
REMARK                            x       y       z     vdW  Elec       q    Type
REMARK                         _______ _______ _______ _____ _____    ______ ____
ROOT
ATOM      1  C   UNL     1      -1.207  -0.635  -0.138  0.00  0.00    +0.339 C 
ATOM      2  O   UNL     1      -2.351   0.079  -0.118  0.00  0.00    -0.245 OA
ATOM      3  C   UNL     1      -1.252  -1.995  -0.072  0.00  0.00    +0.084 C 
ATOM      4  C   UNL     1      -2.469  -2.685   0.110  0.00  0.00    +0.075 C 
ATOM      5  N   UNL     1      -2.491  -4.008   0.171  0.00  0.00    -0.192 NA
ATOM      6  C   UNL     1      -1.420  -4.782   0.072  0.00  0.00    +0.155 C 
ATOM      7  S   UNL     1      -1.627  -6.479   0.172  0.00  0.00    -0.017 S 
ATOM      8  N   UNL     1      -0.176  -4.298  -0.104  0.00  0.00    -0.314 N 
ATOM      9  C   UNL     1       0.004  -2.838  -0.196  0.00  0.00    +0.141 C 
ATOM     10  H   UNL     1       0.584  -4.896  -0.172  0.00  0.00    +0.149 HD
ENDROOT
BRANCH   4  11
ATOM     11  C   UNL     1      -3.731  -1.924   0.234  0.00  0.00    -0.001 A 
ATOM     12  C   UNL     1      -4.497  -1.648  -0.900  0.00  0.00    +0.011 A 
ATOM     13  C   UNL     1      -5.673  -0.938  -0.779  0.00  0.00    +0.020 A 
ATOM     14  C   UNL     1      -6.095  -0.499   0.465  0.00  0.00    +0.041 A 
ATOM     15  C   UNL     1      -5.339  -0.770   1.594  0.00  0.00    +0.020 A 
ATOM     16  C   UNL     1      -4.164  -1.484   1.486  0.00  0.00    +0.011 A 
ATOM     17 CL   UNL     1      -7.576   0.395   0.610  0.00  0.00    -0.084 Cl
ENDBRANCH   4  11
BRANCH   9  18
ATOM     18  C   UNL     1       0.958  -2.419   0.892  0.00  0.00    -0.022 A 
ATOM     19  C   UNL     1       0.791  -2.897   2.178  0.00  0.00    +0.009 A 
ATOM     20  C   UNL     1       1.665  -2.514   3.178  0.00  0.00    +0.046 A 
ATOM     21  C   UNL     1       2.710  -1.649   2.890  0.00  0.00    +0.121 A 
ATOM     22  C   UNL     1       2.876  -1.170   1.598  0.00  0.00    +0.046 A 
ATOM     23  C   UNL     1       2.003  -1.560   0.601  0.00  0.00    +0.009 A 
BRANCH  21  24
ATOM     24  O   UNL     1       3.570  -1.270   3.872  0.00  0.00    -0.487 OA
BRANCH  24  25
ATOM     25  C   UNL     1       4.623  -0.377   3.503  0.00  0.00    +0.266 C 
BRANCH  25  26
ATOM     26  C   UNL     1       5.469  -0.071   4.712  0.00  0.00    +0.008 A 
ATOM     27  C   UNL     1       5.163  -0.643   5.932  0.00  0.00    +0.008 A 
ATOM     28  C   UNL     1       5.939  -0.362   7.041  0.00  0.00    +0.000 A 
ATOM     29  C   UNL     1       7.021   0.490   6.930  0.00  0.00    +0.001 A 
ATOM     30  C   UNL     1       7.329   1.063   5.711  0.00  0.00    +0.020 A 
ATOM     31  C   UNL     1       6.556   0.778   4.599  0.00  0.00    +0.047 A 
ATOM     32 CL   UNL     1       6.945   1.491   3.065  0.00  0.00    -0.083 Cl
ENDBRANCH  25  26
ENDBRANCH  24  25
ENDBRANCH  21  24
ENDBRANCH   9  18
BRANCH   1  34
ATOM     33  C   UNL     1      -0.046   1.424  -0.289  0.00  0.00    +0.280 C 
ATOM     34  O   UNL     1      -0.019  -0.003  -0.223  0.00  0.00    -0.465 OA
ENDBRANCH   1  34
TORSDOF 6
