REMARK  Name = ZINC09289306
REMARK  12 active torsions:
REMARK  status: ('A' for Active; 'I' for Inactive)
REMARK    1  A    between atoms: C_1  and  C_2
REMARK    2  A    between atoms: C_7  and  C_9
REMARK    3  A    between atoms: C_7  and  C_10
REMARK    4  A    between atoms: N_11  and  S_13
REMARK    5  A    between atoms: S_13  and  C_16
REMARK    6  A    between atoms: C_20  and  N_22
REMARK    7  A    between atoms: N_22  and  S_23
REMARK    8  A    between atoms: S_23  and  C_26
REMARK    9  A    between atoms: C_29  and  C_32
REMARK   10  A    between atoms: C_32  and  C_33
REMARK   11  A    between atoms: C_32  and  C_34
REMARK   12  A    between atoms: C_32  and  C_35
REMARK                            x       y       z     vdW  Elec       q    Type
REMARK                         _______ _______ _______ _____ _____    ______ ____
ROOT
ATOM      1  C   UNL     1      -2.241  -4.295   0.728  0.00  0.00    +0.107 A 
ATOM      2  C   UNL     1      -1.458  -5.409   0.971  0.00  0.00    +0.028 A 
ATOM      3  C   UNL     1      -1.600  -6.114   2.152  0.00  0.00    +0.004 A 
ATOM      4  C   UNL     1      -2.526  -5.708   3.094  0.00  0.00    +0.024 A 
ATOM      5  C   UNL     1      -3.314  -4.590   2.853  0.00  0.00    +0.050 A 
ATOM      6  C   UNL     1      -3.164  -3.880   1.668  0.00  0.00    +0.053 A 
ENDROOT
BRANCH   1   7
ATOM      7  S   UNL     1      -2.057  -3.401  -0.778  0.00  0.00    +0.061 S 
ATOM      8  O   UNL     1      -3.270  -2.690  -0.981  0.00  0.00    -0.153 OA
ATOM      9  O   UNL     1      -1.542  -4.318  -1.734  0.00  0.00    -0.153 OA
BRANCH   7  19
ATOM     10  C   UNL     1       0.312   1.246  -0.057  0.00  0.00    +0.012 C 
ATOM     11  C   UNL     1       0.312  -0.277   0.146  0.00  0.00    -0.016 C 
ATOM     12  C   UNL     1       1.136  -1.018  -0.943  0.00  0.00    +0.028 C 
ATOM     13  C   UNL     1       0.568  -2.449  -0.767  0.00  0.00    +0.081 C 
ATOM     14  C   UNL     1       1.202  -3.029   0.497  0.00  0.00    +0.027 C 
ATOM     15  C   UNL     1       0.940  -2.189   1.736  0.00  0.00    -0.033 C 
ATOM     16  C   UNL     1       0.869  -0.691   1.506  0.00  0.00    +0.014 C 
ATOM     17  C   UNL     1      -0.334  -2.680   2.437  0.00  0.00    +0.011 C 
ATOM     18  C   UNL     1       2.109  -2.448   2.718  0.00  0.00    +0.011 C 
ATOM     19  N   UNL     1      -0.878  -2.264  -0.531  0.00  0.00    -0.173 NA
ATOM     20  C   UNL     1      -1.093  -0.894  -0.041  0.00  0.00    +0.116 C 
ENDBRANCH   7  19
ENDBRANCH   1   7
BRANCH   5  21
ATOM     21  N   UNL     1      -4.250  -4.176   3.803  0.00  0.00    -0.216 N 
ATOM     22  H   UNL     1      -3.955  -3.731   4.613  0.00  0.00    +0.174 HD
BRANCH  21  23
ATOM     23  S   UNL     1      -5.864  -4.445   3.547  0.00  0.00    +0.072 S 
ATOM     24  O   UNL     1      -6.544  -3.968   4.700  0.00  0.00    -0.150 OA
ATOM     25  O   UNL     1      -6.153  -3.968   2.240  0.00  0.00    -0.150 OA
BRANCH  23  26
ATOM     26  C   UNL     1      -6.101  -6.191   3.509  0.00  0.00    +0.109 A 
ATOM     27  C   UNL     1      -5.918  -6.888   2.329  0.00  0.00    +0.029 A 
ATOM     28  C   UNL     1      -6.105  -8.257   2.299  0.00  0.00    +0.006 A 
ATOM     29  C   UNL     1      -6.473  -8.930   3.449  0.00  0.00    -0.042 A 
ATOM     30  C   UNL     1      -6.656  -8.233   4.629  0.00  0.00    +0.006 A 
ATOM     31  C   UNL     1      -6.465  -6.864   4.660  0.00  0.00    +0.029 A 
BRANCH  29  32
ATOM     32  C   UNL     1      -6.677 -10.422   3.417  0.00  0.00    -0.013 C 
ATOM     33  C   UNL     1      -5.348 -11.112   3.104  0.00  0.00    +0.015 C 
ATOM     34  C   UNL     1      -7.191 -10.897   4.778  0.00  0.00    +0.015 C 
ATOM     35  C   UNL     1      -7.701 -10.774   2.335  0.00  0.00    +0.015 C 
ENDBRANCH  29  32
ENDBRANCH  23  26
ENDBRANCH  21  23
ENDBRANCH   5  21
TORSDOF 6
