REMARK  Name = ZINC38981046
REMARK  9 active torsions:
REMARK  status: ('A' for Active; 'I' for Inactive)
REMARK    1  A    between atoms: C_1  and  C_2
REMARK    2  A    between atoms: C_2  and  C_3
REMARK    3  A    between atoms: C_3  and  O_4
REMARK    4  A    between atoms: O_4  and  C_5
REMARK    5  A    between atoms: C_5  and  C_7
REMARK    6  A    between atoms: C_10  and  N_13
REMARK    7  A    between atoms: N_13  and  C_14
REMARK    8  A    between atoms: N_17  and  S_18
REMARK    9  A    between atoms: S_18  and  C_21
REMARK                            x       y       z     vdW  Elec       q    Type
REMARK                         _______ _______ _______ _____ _____    ______ ____
ROOT
ATOM      1  C   UNL     1      -4.115  -8.900   0.098  0.00  0.00    +0.237 C 
ATOM      2  C   UNL     1      -4.023  -9.874   1.252  0.00  0.00    +0.192 C 
ATOM      3  N   UNL     1      -3.725  -9.455   2.446  0.00  0.00    -0.110 NA
ATOM      4  N   UNL     1      -4.253 -11.177   1.024  0.00  0.00    -0.226 NA
ATOM      5  C   UNL     1      -4.556 -11.625  -0.176  0.00  0.00    +0.089 A 
ATOM      6  C   UNL     1      -4.793 -13.009  -0.379  0.00  0.00    +0.030 A 
ATOM      7  C   UNL     1      -5.104 -13.475  -1.608  0.00  0.00    +0.002 A 
ATOM      8  C   UNL     1      -5.210 -12.639  -2.733  0.00  0.00    +0.002 A 
ATOM      9  C   UNL     1      -5.004 -11.307  -2.650  0.00  0.00    +0.027 A 
ATOM     10  C   UNL     1      -4.662 -10.720  -1.346  0.00  0.00    +0.063 A 
ATOM     11  N   UNL     1      -4.456  -9.438  -1.228  0.00  0.00    -0.359 N 
ATOM     12  H   UNL     1      -4.527  -8.852  -1.998  0.00  0.00    +0.162 HD
ENDROOT
BRANCH   3  13
ATOM     13  S   UNL     1      -3.626 -10.531   3.700  0.00  0.00    +0.100 S 
ATOM     14  O   UNL     1      -4.939 -11.036   3.906  0.00  0.00    -0.146 OA
ATOM     15  O   UNL     1      -2.519 -11.378   3.423  0.00  0.00    -0.146 OA
BRANCH  13  16
ATOM     16  C   UNL     1      -3.208  -9.612   5.144  0.00  0.00    +0.113 A 
ATOM     17  C   UNL     1      -1.881  -9.411   5.475  0.00  0.00    +0.032 A 
ATOM     18  C   UNL     1      -1.552  -8.690   6.607  0.00  0.00    +0.040 A 
ATOM     19  C   UNL     1      -2.551  -8.168   7.410  0.00  0.00    +0.124 A 
ATOM     20  C   UNL     1      -3.881  -8.370   7.078  0.00  0.00    +0.040 A 
ATOM     21  C   UNL     1      -4.207  -9.087   5.942  0.00  0.00    +0.032 A 
ATOM     22  F   UNL     1      -2.231  -7.463   8.517  0.00  0.00    -0.205 F 
ENDBRANCH  13  16
ENDBRANCH   3  13
BRANCH   1  23
ATOM     23  N   UNL     1      -2.825  -8.217  -0.015  0.00  0.00    -0.318 N 
ATOM     24  H   UNL     1      -2.005  -8.733  -0.058  0.00  0.00    +0.148 HD
BRANCH  23  28
ATOM     25  C   UNL     1      -2.676  -4.065  -0.150  0.00  0.00    +0.059 A 
ATOM     26  C   UNL     1      -3.908  -4.725  -0.217  0.00  0.00    +0.017 A 
ATOM     27  C   UNL     1      -3.953  -6.095  -0.173  0.00  0.00    +0.024 A 
ATOM     28  C   UNL     1      -2.775  -6.828  -0.061  0.00  0.00    +0.029 A 
ATOM     29  C   UNL     1      -1.548  -6.174   0.006  0.00  0.00    +0.024 A 
ATOM     30  C   UNL     1      -1.495  -4.805  -0.043  0.00  0.00    +0.017 A 
BRANCH  25  31
ATOM     31  C   UNL     1      -2.624  -2.593  -0.198  0.00  0.00    +0.339 C 
ATOM     32  O   UNL     1      -1.553  -2.021  -0.145  0.00  0.00    -0.245 OA
BRANCH  31  33
ATOM     33  O   UNL     1      -3.764  -1.881  -0.301  0.00  0.00    -0.461 OA
BRANCH  33  34
ATOM     34  C   UNL     1      -3.638  -0.458  -0.343  0.00  0.00    +0.232 C 
BRANCH  34  36
ATOM     35  C   UNL     1      -4.893   1.697  -0.504  0.00  0.00    +0.007 C 
ATOM     36  C   UNL     1      -5.027   0.173  -0.460  0.00  0.00    +0.038 C 
ENDBRANCH  34  36
ENDBRANCH  33  34
ENDBRANCH  31  33
ENDBRANCH  25  31
ENDBRANCH  23  28
ENDBRANCH   1  23
TORSDOF 8
