REMARK  Name = ZINC11990745
REMARK  5 active torsions:
REMARK  status: ('A' for Active; 'I' for Inactive)
REMARK    1  A    between atoms: C_5  and  C_7
REMARK    2  A    between atoms: C_7  and  O_8
REMARK    3  A    between atoms: O_8  and  C_9
REMARK    4  A    between atoms: C_12  and  N_36
REMARK    5  A    between atoms: C_14  and  C_15
REMARK                            x       y       z     vdW  Elec       q    Type
REMARK                         _______ _______ _______ _____ _____    ______ ____
ROOT
ATOM      1  C   UNL     1      -5.311   0.682   2.435  0.00  0.00    +0.125 A 
ATOM      2  C   UNL     1      -6.542   0.061   2.282  0.00  0.00    +0.048 A 
ATOM      3  C   UNL     1      -7.131  -0.004   1.034  0.00  0.00    +0.036 A 
ATOM      4  C   UNL     1      -6.498   0.554  -0.061  0.00  0.00    +0.127 A 
ATOM      5  C   UNL     1      -5.274   1.179   0.090  0.00  0.00    +0.040 A 
ATOM      6  C   UNL     1      -4.680   1.247   1.336  0.00  0.00    +0.005 A 
ENDROOT
BRANCH   6   7
ATOM      7  C   UNL     1      -3.346   1.928   1.499  0.00  0.00    +0.066 C 
ATOM      8  C   UNL     1      -3.159   2.893   0.388  0.00  0.00    +0.032 A 
ATOM      9  C   UNL     1      -2.942   2.515  -0.901  0.00  0.00    +0.087 A 
ATOM     10  N   UNL     1      -2.800   3.519  -1.810  0.00  0.00    -0.311 N 
ATOM     11  H   UNL     1      -2.646   3.311  -2.744  0.00  0.00    +0.170 HD
ATOM     12  C   UNL     1      -2.874   4.810  -1.404  0.00  0.00    +0.289 A 
ATOM     13  O   UNL     1      -2.769   5.825  -2.069  0.00  0.00    -0.260 OA
ATOM     14  S   UNL     1      -3.154   4.652   0.305  0.00  0.00    -0.030 S 
ATOM     15  S   UNL     1      -2.880   0.763  -1.197  0.00  0.00    -0.103 S 
ATOM     16  C   UNL     1      -1.932   0.164   0.224  0.00  0.00    +0.060 C 
ATOM     17  C   UNL     1      -2.260   0.877   1.532  0.00  0.00    +0.018 C 
ATOM     18  C   UNL     1      -0.919   1.548   1.976  0.00  0.00    -0.006 C 
ATOM     19  C   UNL     1      -0.705   2.698   0.945  0.00  0.00    +0.004 C 
ATOM     20  C   UNL     1      -0.375   1.976  -0.383  0.00  0.00    +0.005 C 
ATOM     21  C   UNL     1      -0.419   0.458  -0.029  0.00  0.00    +0.003 C 
ATOM     22  C   UNL     1       0.115   0.491   1.447  0.00  0.00    +0.008 C 
ENDBRANCH   6   7
BRANCH   4  23
ATOM     23  N   UNL     1      -7.132   0.483  -1.397  0.00  0.00    +0.056 N 
ATOM     24  O   UNL     1      -6.575   0.975  -2.362  0.00  0.00    -0.126 OA
ATOM     25  O   UNL     1      -8.210  -0.067  -1.530  0.00  0.00    -0.126 OA
ENDBRANCH   4  23
BRANCH   1  26
ATOM     26  O   UNL     1      -4.726   0.743   3.660  0.00  0.00    -0.487 OA
BRANCH  26  27
ATOM     27  C   UNL     1      -5.433   0.140   4.746  0.00  0.00    +0.266 C 
BRANCH  27  32
ATOM     28  C   UNL     1      -2.691   1.111   7.153  0.00  0.00    +0.000 A 
ATOM     29  C   UNL     1      -3.177   0.605   8.345  0.00  0.00    +0.001 A 
ATOM     30  C   UNL     1      -4.393  -0.051   8.373  0.00  0.00    +0.020 A 
ATOM     31  C   UNL     1      -5.124  -0.202   7.207  0.00  0.00    +0.047 A 
ATOM     32  C   UNL     1      -4.638   0.305   6.016  0.00  0.00    +0.008 A 
ATOM     33  C   UNL     1      -3.419   0.956   5.988  0.00  0.00    +0.008 A 
ATOM     34 CL   UNL     1      -6.652  -1.026   7.241  0.00  0.00    -0.083 Cl
ENDBRANCH  27  32
ENDBRANCH  26  27
ENDBRANCH   1  26
TORSDOF 5
