REMARK  Name = ZINC09477531
REMARK  3 active torsions:
REMARK  status: ('A' for Active; 'I' for Inactive)
REMARK    1  A    between atoms: C_6  and  C_7
REMARK    2  A    between atoms: C_12  and  C_15
REMARK    3  A    between atoms: N_17  and  N_18
REMARK                            x       y       z     vdW  Elec       q    Type
REMARK                         _______ _______ _______ _____ _____    ______ ____
ROOT
ATOM      1  C   UNL     1       5.362   5.905   2.549  0.00  0.00    +0.233 C 
ATOM      2  O   UNL     1       4.878   6.626   3.396  0.00  0.00    -0.274 OA
ATOM      3  N   UNL     1       6.633   5.476   2.675  0.00  0.00    -0.223 N 
ATOM      4  H   UNL     1       7.020   4.899   1.998  0.00  0.00    +0.174 HD
ENDROOT
BRANCH   3   5
ATOM      5  N   UNL     1       7.396   5.862   3.785  0.00  0.00    -0.137 N 
ATOM      6  C   UNL     1       8.382   6.782   3.744  0.00  0.00    +0.263 C 
ATOM      7  O   UNL     1       8.763   7.407   2.778  0.00  0.00    -0.271 OA
ATOM      8  C   UNL     1       8.910   6.871   5.158  0.00  0.00    +0.114 C 
ATOM      9  C   UNL     1      10.382   6.477   5.197  0.00  0.00    +0.035 C 
ATOM     10  C   UNL     1      10.889   6.536   6.640  0.00  0.00    +0.003 C 
ATOM     11  C   UNL     1      10.709   7.954   7.185  0.00  0.00    +0.000 C 
ATOM     12  C   UNL     1       9.225   8.327   7.160  0.00  0.00    +0.003 C 
ATOM     13  C   UNL     1       8.712   8.275   5.718  0.00  0.00    +0.035 C 
ATOM     14  N   UNL     1       8.098   5.901   5.903  0.00  0.00    -0.284 N 
ATOM     15  C   UNL     1       7.240   5.361   5.016  0.00  0.00    +0.326 C 
ATOM     16  O   UNL     1       6.417   4.514   5.302  0.00  0.00    -0.251 OA
ATOM     17  H   UNL     1       8.166   5.690   6.848  0.00  0.00    +0.151 HD
ENDBRANCH   3   5
BRANCH   1  23
ATOM     18  C   UNL     1       1.171   3.564   0.009  0.00  0.00    +0.247 C 
ATOM     19  O   UNL     1       0.115   4.163  -0.047  0.00  0.00    -0.270 OA
ATOM     20  N   UNL     1       2.329   4.248   0.104  0.00  0.00    -0.297 N 
ATOM     21  C   UNL     1       3.618   3.542   0.096  0.00  0.00    +0.109 C 
ATOM     22  C   UNL     1       4.423   3.964   1.324  0.00  0.00    +0.032 C 
ATOM     23  C   UNL     1       4.541   5.489   1.355  0.00  0.00    +0.079 C 
ATOM     24  C   UNL     1       3.146   6.109   1.455  0.00  0.00    +0.032 C 
ATOM     25  C   UNL     1       2.326   5.712   0.223  0.00  0.00    +0.109 C 
BRANCH  18  31
ATOM     26  C   UNL     1       2.021   1.415  -0.920  0.00  0.00    +0.014 A 
ATOM     27  C   UNL     1       2.031   0.036  -0.948  0.00  0.00    +0.016 A 
ATOM     28  C   UNL     1       1.215  -0.682  -0.090  0.00  0.00    +0.018 A 
ATOM     29  C   UNL     1       0.385  -0.021   0.801  0.00  0.00    +0.016 A 
ATOM     30  C   UNL     1       0.366   1.357   0.838  0.00  0.00    +0.014 A 
ATOM     31  C   UNL     1       1.186   2.087  -0.025  0.00  0.00    +0.037 A 
ATOM     32 BR   UNL     1       1.234  -2.572  -0.134  0.00  0.00    -0.050 Br
ENDBRANCH  18  31
ENDBRANCH   1  23
TORSDOF 3
