REMARK  Name = ZINC06752779
REMARK  6 active torsions:
REMARK  status: ('A' for Active; 'I' for Inactive)
REMARK    1  A    between atoms: C_1  and  C_2
REMARK    2  A    between atoms: C_5  and  C_8
REMARK    3  A    between atoms: C_11  and  C_25
REMARK    4  A    between atoms: N_18  and  C_19
REMARK    5  A    between atoms: C_19  and  C_20
REMARK    6  A    between atoms: C_30  and  O_31
REMARK                            x       y       z     vdW  Elec       q    Type
REMARK                         _______ _______ _______ _____ _____    ______ ____
ROOT
ATOM      1  C   UNL     1       0.052  -4.238   0.004  0.00  0.00    +0.142 C 
ATOM      2  C   UNL     1      -1.293  -4.797   0.382  0.00  0.00    +0.035 A 
ATOM      3  C   UNL     1      -2.657  -4.891   0.085  0.00  0.00    +0.102 A 
ATOM      4  N   UNL     1      -3.210  -5.653   1.007  0.00  0.00    -0.173 NA
ATOM      5  N   UNL     1      -2.331  -6.050   1.857  0.00  0.00    -0.272 N 
ATOM      6  H   UNL     1      -2.511  -6.621   2.620  0.00  0.00    +0.189 HD
ATOM      7  C   UNL     1      -1.104  -5.550   1.525  0.00  0.00    +0.126 A 
ATOM      8  C   UNL     1       0.316  -5.492   1.892  0.00  0.00    +0.266 C 
ATOM      9  O   UNL     1       0.807  -6.052   2.853  0.00  0.00    -0.268 OA
ATOM     10  N   UNL     1       0.997  -4.733   1.013  0.00  0.00    -0.278 N 
ENDROOT
BRANCH   1  15
ATOM     11  C   UNL     1      -0.103   1.538   0.081  0.00  0.00    +0.044 C 
ATOM     12  C   UNL     1      -0.063   0.031   0.061  0.00  0.00    -0.050 A 
ATOM     13  C   UNL     1       0.108  -0.639  -1.135  0.00  0.00    +0.004 A 
ATOM     14  C   UNL     1       0.145  -2.021  -1.154  0.00  0.00    +0.006 A 
ATOM     15  C   UNL     1       0.012  -2.732   0.024  0.00  0.00    -0.022 A 
ATOM     16  C   UNL     1      -0.158  -2.061   1.221  0.00  0.00    +0.006 A 
ATOM     17  C   UNL     1      -0.191  -0.679   1.240  0.00  0.00    +0.004 A 
ENDBRANCH   1  15
BRANCH   3  18
ATOM     18  C   UNL     1      -3.353  -4.249  -1.058  0.00  0.00    +0.044 A 
ATOM     19  C   UNL     1      -2.623  -3.573  -2.032  0.00  0.00    +0.014 A 
ATOM     20  C   UNL     1      -3.275  -2.978  -3.093  0.00  0.00    +0.001 A 
ATOM     21  C   UNL     1      -4.653  -3.050  -3.192  0.00  0.00    +0.004 A 
ATOM     22  C   UNL     1      -5.388  -3.718  -2.231  0.00  0.00    +0.046 A 
ATOM     23  C   UNL     1      -4.745  -4.325  -1.164  0.00  0.00    +0.126 A 
BRANCH  23  24
ATOM     24  O   UNL     1      -5.465  -4.987  -0.222  0.00  0.00    -0.506 OA
ATOM     25  H   UNL     1      -5.750  -4.433   0.517  0.00  0.00    +0.292 HD
ENDBRANCH  23  24
ENDBRANCH   3  18
BRANCH  10  26
ATOM     26  C   UNL     1       2.434  -4.448   1.056  0.00  0.00    +0.183 C 
BRANCH  26  27
ATOM     27  C   UNL     1       2.675  -3.202   1.869  0.00  0.00    +0.122 A 
ATOM     28  C   UNL     1       2.899  -3.159   3.194  0.00  0.00    +0.046 A 
ATOM     29  C   UNL     1       3.071  -1.798   3.536  0.00  0.00    +0.041 A 
ATOM     30  C   UNL     1       2.942  -1.091   2.400  0.00  0.00    +0.195 A 
ATOM     31  O   UNL     1       2.707  -1.947   1.392  0.00  0.00    -0.466 OA
ENDBRANCH  26  27
ENDBRANCH  10  26
TORSDOF 5
