REMARK  Name = ZINC22527100
REMARK  8 active torsions:
REMARK  status: ('A' for Active; 'I' for Inactive)
REMARK    1  A    between atoms: C_1  and  C_2
REMARK    2  A    between atoms: N_6  and  C_7
REMARK    3  A    between atoms: C_10  and  C_13
REMARK    4  A    between atoms: C_13  and  N_14
REMARK    5  A    between atoms: C_15  and  C_17
REMARK    6  A    between atoms: C_20  and  C_23
REMARK    7  A    between atoms: N_25  and  C_30
REMARK    8  A    between atoms: C_30  and  C_31
REMARK                            x       y       z     vdW  Elec       q    Type
REMARK                         _______ _______ _______ _____ _____    ______ ____
ROOT
ATOM      1  C   UNL     1      -7.839   4.129   2.010  0.00  0.00    +0.037 A 
ATOM      2  C   UNL     1      -7.578   2.933   2.680  0.00  0.00    +0.013 A 
ATOM      3  C   UNL     1      -8.530   2.395   3.521  0.00  0.00    +0.007 A 
ATOM      4  C   UNL     1      -9.746   3.032   3.691  0.00  0.00    -0.017 A 
ATOM      5  C   UNL     1     -10.014   4.215   3.026  0.00  0.00    +0.007 A 
ATOM      6  C   UNL     1      -9.068   4.767   2.186  0.00  0.00    +0.013 A 
ENDROOT
BRANCH   4   7
ATOM      7  C   UNL     1     -10.784   2.435   4.607  0.00  0.00    +0.165 C 
ATOM      8  N   UNL     1     -10.161   1.549   5.608  0.00  0.00    -0.280 N 
ATOM      9  C   UNL     1     -10.683   0.349   5.826  0.00  0.00    +0.227 C 
ATOM     10  O   UNL     1     -10.202  -0.406   6.644  0.00  0.00    -0.275 OA
ATOM     11  C   UNL     1     -11.905  -0.045   5.013  0.00  0.00    +0.167 C 
ATOM     12  S   UNL     1     -11.866   1.249   3.698  0.00  0.00    -0.124 S 
BRANCH   8  13
ATOM     13  C   UNL     1      -8.978   1.989   6.353  0.00  0.00    +0.144 C 
BRANCH  13  14
ATOM     14  C   UNL     1      -9.411   2.689   7.615  0.00  0.00    -0.030 A 
ATOM     15  C   UNL     1      -9.624   4.054   7.610  0.00  0.00    +0.006 A 
ATOM     16  C   UNL     1     -10.027   4.696   8.767  0.00  0.00    +0.020 A 
ATOM     17  C   UNL     1     -10.206   3.972   9.932  0.00  0.00    +0.041 A 
ATOM     18  C   UNL     1      -9.987   2.606   9.938  0.00  0.00    +0.020 A 
ATOM     19  C   UNL     1      -9.590   1.965   8.780  0.00  0.00    +0.006 A 
ATOM     20 CL   UNL     1     -10.706   4.778  11.386  0.00  0.00    -0.084 Cl
ENDBRANCH  13  14
ENDBRANCH   8  13
ENDBRANCH   4   7
BRANCH   1  22
ATOM     21  N   UNL     1      -5.636   4.097   0.943  0.00  0.00    -0.307 N 
ATOM     22  C   UNL     1      -6.822   4.715   1.111  0.00  0.00    +0.244 C 
ATOM     23  O   UNL     1      -7.054   5.753   0.524  0.00  0.00    -0.270 OA
ATOM     24  H   UNL     1      -5.425   3.156   1.474  0.00  0.00    +0.149 HD
BRANCH  21  25
ATOM     25  C   UNL     1      -4.627   4.677   0.052  0.00  0.00    +0.139 C 
BRANCH  25  29
ATOM     26  C   UNL     1      -1.155   2.185   0.020  0.00  0.00    +0.048 A 
ATOM     27  C   UNL     1      -1.267   3.210   0.950  0.00  0.00    +0.026 A 
ATOM     28  C   UNL     1      -2.388   4.017   0.954  0.00  0.00    +0.007 A 
ATOM     29  C   UNL     1      -3.403   3.798   0.041  0.00  0.00    -0.030 A 
ATOM     30  C   UNL     1      -3.296   2.776  -0.884  0.00  0.00    +0.007 A 
ATOM     31  C   UNL     1      -2.175   1.968  -0.896  0.00  0.00    +0.026 A 
BRANCH  26  37
ATOM     32  C   UNL     1       1.739   3.217   0.002  0.00  0.00    +0.084 C 
ATOM     33  C   UNL     1       1.276   1.783  -0.001  0.00  0.00    +0.088 A 
ATOM     34  N   UNL     1       2.051   0.732  -0.014  0.00  0.00    -0.350 N 
ATOM     35  C   UNL     1       1.296  -0.377  -0.012  0.00  0.00    +0.102 A 
ATOM     36  C   UNL     1       0.002  -0.004   0.002  0.00  0.00    +0.110 A 
ATOM     37  N   UNL     1      -0.017   1.367   0.010  0.00  0.00    -0.305 N 
ATOM     38  H   UNL     1       3.144   0.855  -0.023  0.00  0.00    +0.166 HD
ENDBRANCH  26  37
ENDBRANCH  25  29
ENDBRANCH  21  25
ENDBRANCH   1  22
TORSDOF 7
