REMARK  Name = ZINC08905342
REMARK  9 active torsions:
REMARK  status: ('A' for Active; 'I' for Inactive)
REMARK    1  A    between atoms: C_1  and  C_2
REMARK    2  A    between atoms: C_4  and  C_36
REMARK    3  A    between atoms: C_12  and  C_26
REMARK    4  A    between atoms: C_14  and  C_19
REMARK    5  A    between atoms: C_19  and  C_21
REMARK    6  A    between atoms: C_29  and  O_34
REMARK    7  A    between atoms: C_30  and  O_32
REMARK    8  A    between atoms: O_32  and  C_33
REMARK    9  A    between atoms: O_34  and  C_35
REMARK                            x       y       z     vdW  Elec       q    Type
REMARK                         _______ _______ _______ _____ _____    ______ ____
ROOT
ATOM      1  C   UNL     1      12.228  -2.852  -1.980  0.00  0.00    +0.044 C 
ATOM      2  C   UNL     1      10.777  -3.125  -1.680  0.00  0.00    -0.049 A 
ATOM      3  C   UNL     1      10.296  -4.427  -1.671  0.00  0.00    +0.009 A 
ATOM      4  C   UNL     1       8.981  -4.703  -1.402  0.00  0.00    -0.024 A 
ATOM      5  C   UNL     1       8.067  -3.661  -1.123  0.00  0.00    +0.083 A 
ATOM      6  C   UNL     1       8.592  -2.349  -1.141  0.00  0.00    +0.041 A 
ATOM      7  C   UNL     1       9.910  -2.082  -1.412  0.00  0.00    +0.020 A 
ATOM      8  S   UNL     1       7.162  -1.364  -0.761  0.00  0.00    -0.052 S 
ATOM      9  C   UNL     1       5.999  -2.712  -0.597  0.00  0.00    +0.169 A 
ATOM     10  N   UNL     1       6.750  -3.761  -0.840  0.00  0.00    -0.224 NA
ATOM     11  N   UNL     1       4.649  -2.661  -0.297  0.00  0.00    -0.232 N 
ATOM     12  C   UNL     1       3.867  -1.447  -0.035  0.00  0.00    +0.152 C 
ATOM     13  C   UNL     1       2.455  -1.909   0.241  0.00  0.00    +0.077 C 
ATOM     14  C   UNL     1       2.460  -3.258   0.145  0.00  0.00    +0.250 C 
ATOM     15  C   UNL     1       3.821  -3.717  -0.194  0.00  0.00    +0.293 C 
ATOM     16  O   UNL     1       4.147  -4.877  -0.352  0.00  0.00    -0.266 OA
ATOM     17  O   UNL     1       1.385  -4.061   0.328  0.00  0.00    -0.282 OA
ATOM     18  C   UNL     1       8.505  -6.133  -1.403  0.00  0.00    +0.046 C 
ENDROOT
BRANCH  12  19
ATOM     19  C   UNL     1       3.891  -0.543  -1.240  0.00  0.00    -0.018 A 
ATOM     20  C   UNL     1       4.585   0.652  -1.192  0.00  0.00    +0.009 A 
ATOM     21  C   UNL     1       4.611   1.484  -2.296  0.00  0.00    +0.050 A 
ATOM     22  C   UNL     1       3.940   1.122  -3.453  0.00  0.00    +0.162 A 
ATOM     23  C   UNL     1       3.242  -0.081  -3.501  0.00  0.00    +0.162 A 
ATOM     24  C   UNL     1       3.224  -0.913  -2.393  0.00  0.00    +0.055 A 
BRANCH  23  25
ATOM     25  O   UNL     1       2.582  -0.441  -4.634  0.00  0.00    -0.491 OA
ATOM     26  C   UNL     1       1.995  -1.744  -4.657  0.00  0.00    +0.277 C 
ENDBRANCH  23  25
BRANCH  22  27
ATOM     27  O   UNL     1       3.965   1.939  -4.539  0.00  0.00    -0.491 OA
ATOM     28  C   UNL     1       4.702   3.157  -4.418  0.00  0.00    +0.277 C 
ENDBRANCH  22  27
ENDBRANCH  12  19
BRANCH  13  29
ATOM     29  C   UNL     1       1.302  -1.058   0.557  0.00  0.00    +0.202 C 
ATOM     30  O   UNL     1       0.188  -1.545   0.632  0.00  0.00    -0.286 OA
BRANCH  29  31
ATOM     31  C   UNL     1       1.491   0.378   0.783  0.00  0.00    +0.059 A 
ATOM     32  C   UNL     1       0.535   1.371   0.949  0.00  0.00    +0.019 A 
ATOM     33  C   UNL     1       0.991   2.649   1.148  0.00  0.00    +0.008 A 
ATOM     34  C   UNL     1       2.331   2.880   1.173  0.00  0.00    +0.046 A 
ATOM     35  S   UNL     1       3.010   1.305   0.918  0.00  0.00    -0.093 S 
ENDBRANCH  29  31
ENDBRANCH  13  29
TORSDOF 5
