REMARK  Name = ZINC39481515
REMARK  11 active torsions:
REMARK  status: ('A' for Active; 'I' for Inactive)
REMARK    1  A    between atoms: C_1  and  C_2
REMARK    2  A    between atoms: C_2  and  C_3
REMARK    3  A    between atoms: C_2  and  C_4
REMARK    4  A    between atoms: C_4  and  C_5
REMARK    5  A    between atoms: C_8  and  N_25
REMARK    6  A    between atoms: C_9  and  N_11
REMARK    7  A    between atoms: C_15  and  C_18
REMARK    8  A    between atoms: C_18  and  C_19
REMARK    9  A    between atoms: N_25  and  S_26
REMARK   10  A    between atoms: S_26  and  C_29
REMARK   11  A    between atoms: C_34  and  O_35
REMARK                            x       y       z     vdW  Elec       q    Type
REMARK                         _______ _______ _______ _____ _____    ______ ____
ROOT
ATOM      1  C   UNL     1      -0.195  -2.372   0.055  0.00  0.00    -0.045 A 
ATOM      2  C   UNL     1      -0.484  -2.821  -1.220  0.00  0.00    +0.005 A 
ATOM      3  C   UNL     1      -0.794  -4.152  -1.435  0.00  0.00    +0.026 A 
ATOM      4  C   UNL     1      -0.815  -5.040  -0.370  0.00  0.00    +0.069 A 
ATOM      5  C   UNL     1      -0.522  -4.586   0.916  0.00  0.00    +0.052 A 
ATOM      6  C   UNL     1      -0.208  -3.252   1.122  0.00  0.00    +0.028 A 
ENDROOT
BRANCH   5   7
ATOM      7  N   UNL     1      -0.542  -5.477   1.996  0.00  0.00    -0.332 N 
ATOM      8  C   UNL     1       0.670  -6.209   2.396  0.00  0.00    +0.086 C 
ATOM      9  C   UNL     1       0.873  -6.026   3.904  0.00  0.00    -0.063 C 
ATOM     10  N   UNL     1      -0.345  -6.437   4.614  0.00  0.00    +0.383 N 
ATOM     11  C   UNL     1      -1.458  -5.549   4.254  0.00  0.00    -0.050 C 
ATOM     12  C   UNL     1      -1.774  -5.704   2.767  0.00  0.00    +0.089 C 
ATOM     13  H   UNL     1      -0.577  -7.386   4.359  0.00  0.00    -0.085 HD
ATOM     14  H   UNL     1      -0.185  -6.389   5.609  0.00  0.00    -0.085 HD
BRANCH  11  15
ATOM     15  C   UNL     1      -2.691  -5.917   5.081  0.00  0.00    +0.021 C 
BRANCH  15  16
ATOM     16  C   UNL     1      -2.418  -5.644   6.538  0.00  0.00    -0.049 A 
ATOM     17  C   UNL     1      -1.869  -6.631   7.335  0.00  0.00    +0.003 A 
ATOM     18  C   UNL     1      -1.619  -6.381   8.671  0.00  0.00    +0.000 A 
ATOM     19  C   UNL     1      -1.917  -5.144   9.211  0.00  0.00    +0.000 A 
ATOM     20  C   UNL     1      -2.466  -4.157   8.414  0.00  0.00    +0.000 A 
ATOM     21  C   UNL     1      -2.712  -4.405   7.076  0.00  0.00    +0.003 A 
ENDBRANCH  15  16
ENDBRANCH  11  15
ENDBRANCH   5   7
BRANCH   4  22
ATOM     22  N   UNL     1      -1.128  -6.387  -0.585  0.00  0.00    -0.214 N 
ATOM     23  H   UNL     1      -1.629  -6.881   0.083  0.00  0.00    +0.174 HD
BRANCH  22  24
ATOM     24  S   UNL     1      -0.645  -7.137  -1.980  0.00  0.00    +0.076 S 
ATOM     25  O   UNL     1       0.717  -6.785  -2.179  0.00  0.00    -0.150 OA
ATOM     26  O   UNL     1      -1.077  -8.488  -1.885  0.00  0.00    -0.150 OA
BRANCH  24  27
ATOM     27  C   UNL     1      -1.552  -6.410  -3.304  0.00  0.00    +0.150 A 
ATOM     28  C   UNL     1      -0.888  -5.716  -4.297  0.00  0.00    +0.032 A 
ATOM     29  C   UNL     1      -1.600  -5.145  -5.336  0.00  0.00    +0.002 A 
ATOM     30  C   UNL     1      -2.976  -5.267  -5.384  0.00  0.00    +0.004 A 
ATOM     31  C   UNL     1      -3.644  -5.961  -4.394  0.00  0.00    +0.047 A 
ATOM     32  C   UNL     1      -2.932  -6.539  -3.353  0.00  0.00    +0.143 A 
BRANCH  32  33
ATOM     33  O   UNL     1      -3.587  -7.227  -2.381  0.00  0.00    -0.505 OA
ATOM     34  H   UNL     1      -3.877  -6.679  -1.639  0.00  0.00    +0.292 HD
ENDBRANCH  32  33
ENDBRANCH  24  27
ENDBRANCH  22  24
ENDBRANCH   4  22
BRANCH   1  35
ATOM     35  C   UNL     1       0.142  -0.921   0.282  0.00  0.00    +0.038 C 
BRANCH  35  37
ATOM     36  C   UNL     1       1.980   0.771   0.244  0.00  0.00    +0.007 C 
ATOM     37  C   UNL     1       1.652  -0.719   0.138  0.00  0.00    -0.013 C 
ATOM     38  C   UNL     1       2.377  -1.481   1.249  0.00  0.00    +0.007 C 
ENDBRANCH  35  37
ENDBRANCH   1  35
TORSDOF 9
