REMARK  Name = ZINC11768124
REMARK  6 active torsions:
REMARK  status: ('A' for Active; 'I' for Inactive)
REMARK    1  A    between atoms: C_1  and  C_2
REMARK    2  A    between atoms: N_6  and  C_14
REMARK    3  A    between atoms: C_14  and  C_15
REMARK    4  A    between atoms: C_15  and  C_16
REMARK    5  A    between atoms: C_27  and  C_28
REMARK    6  A    between atoms: C_27  and  N_59
REMARK                            x       y       z     vdW  Elec       q    Type
REMARK                         _______ _______ _______ _____ _____    ______ ____
ROOT
ATOM      1  C   UNL     1       4.414   6.650  -7.753  0.00  0.00    +0.220 C 
ATOM      2  O   UNL     1       5.376   6.172  -7.189  0.00  0.00    -0.275 OA
ATOM      3  N   UNL     1       3.227   6.721  -7.119  0.00  0.00    -0.265 N 
ATOM      4  C   UNL     1       3.105   6.246  -5.818  0.00  0.00    +0.165 A 
ATOM      5  N   UNL     1       4.023   5.700  -5.046  0.00  0.00    -0.229 NA
ATOM      6  C   UNL     1       3.754   5.291  -3.811  0.00  0.00    +0.050 A 
ATOM      7  C   UNL     1       2.474   5.468  -3.388  0.00  0.00    -0.002 A 
ATOM      8  S   UNL     1       1.702   6.222  -4.791  0.00  0.00    -0.059 S 
ATOM      9  C   UNL     1       1.906   5.100  -2.060  0.00  0.00    -0.033 C 
ATOM     10  C   UNL     1       4.221   4.741  -1.444  0.00  0.00    -0.072 C 
ATOM     11  C   UNL     1       4.772   4.655  -2.870  0.00  0.00    +0.038 C 
ATOM     12  H   UNL     1       2.458   7.103  -7.570  0.00  0.00    +0.157 HD
ATOM     13  N   UNL     1       2.859   4.172  -1.402  0.00  0.00    +0.386 N 
ATOM     14  H   UNL     1       2.856   3.277  -1.906  0.00  0.00    -0.081 HD
ENDROOT
BRANCH   1  15
ATOM     15  C   UNL     1       4.547   7.165  -9.164  0.00  0.00    +0.115 C 
BRANCH  15  16
ATOM     16  C   UNL     1       5.986   6.967  -9.645  0.00  0.00    +0.123 C 
BRANCH  16  21
ATOM     17  C   UNL     1       5.140   6.408 -14.419  0.00  0.00    +0.062 C 
ATOM     18  C   UNL     1       6.068   7.172 -13.471  0.00  0.00    +0.256 C 
ATOM     19  C   UNL     1       5.899   6.648 -12.068  0.00  0.00    +0.260 C 
ATOM     20  O   UNL     1       5.566   5.496 -11.885  0.00  0.00    -0.271 OA
ATOM     21  N   UNL     1       6.115   7.467 -11.016  0.00  0.00    -0.265 N 
ATOM     22  C   UNL     1       6.470   8.802 -11.256  0.00  0.00    +0.078 A 
ATOM     23  C   UNL     1       7.010   9.583 -10.248  0.00  0.00    +0.027 A 
ATOM     24  C   UNL     1       7.353  10.898 -10.507  0.00  0.00    +0.002 A 
ATOM     25  C   UNL     1       7.157  11.433 -11.766  0.00  0.00    +0.004 A 
ATOM     26  C   UNL     1       6.618  10.658 -12.777  0.00  0.00    +0.047 A 
ATOM     27  C   UNL     1       6.274   9.341 -12.527  0.00  0.00    +0.143 A 
ATOM     28  O   UNL     1       5.744   8.564 -13.509  0.00  0.00    -0.478 OA
ENDBRANCH  16  21
ENDBRANCH  15  16
ENDBRANCH   1  15
BRANCH  13  29
ATOM     29  C   UNL     1       2.451   3.937  -0.001  0.00  0.00    -0.043 C 
BRANCH  29  30
ATOM     30  C   UNL     1       1.156   3.165   0.008  0.00  0.00    -0.064 A 
ATOM     31  C   UNL     1       1.175   1.783   0.000  0.00  0.00    +0.002 A 
ATOM     32  C   UNL     1      -0.013   1.076   0.008  0.00  0.00    +0.000 A 
ATOM     33  C   UNL     1      -1.219   1.751   0.017  0.00  0.00    +0.000 A 
ATOM     34  C   UNL     1      -1.238   3.133   0.030  0.00  0.00    +0.000 A 
ATOM     35  C   UNL     1      -0.050   3.840   0.023  0.00  0.00    +0.002 A 
ENDBRANCH  29  30
ENDBRANCH  13  29
TORSDOF 5
