REMARK  Name = ZINC24874682
REMARK  10 active torsions:
REMARK  status: ('A' for Active; 'I' for Inactive)
REMARK    1  A    between atoms: C_1  and  C_2
REMARK    2  A    between atoms: C_2  and  C_3
REMARK    3  A    between atoms: C_3  and  C_4
REMARK    4  A    between atoms: C_4  and  O_5
REMARK    5  A    between atoms: O_5  and  C_6
REMARK    6  A    between atoms: C_6  and  C_8
REMARK    7  A    between atoms: C_13  and  N_14
REMARK    8  A    between atoms: C_20  and  S_23
REMARK    9  A    between atoms: S_23  and  C_26
REMARK   10  A    between atoms: C_29  and  C_32
REMARK                            x       y       z     vdW  Elec       q    Type
REMARK                         _______ _______ _______ _____ _____    ______ ____
ROOT
ATOM      1  N   UNL     1       0.577   0.459  -7.375  0.00  0.00    -0.269 N 
ATOM      2  C   UNL     1       1.099  -0.142  -6.287  0.00  0.00    +0.306 C 
ATOM      3  O   UNL     1       0.565  -0.009  -5.203  0.00  0.00    -0.252 OA
ATOM      4  N   UNL     1       2.213  -0.891  -6.401  0.00  0.00    -0.285 N 
ATOM      5  C   UNL     1       2.863  -1.454  -5.209  0.00  0.00    +0.111 C 
ATOM      6  C   UNL     1       3.024  -2.968  -5.409  0.00  0.00    +0.045 C 
ATOM      7  C   UNL     1       3.777  -3.227  -6.716  0.00  0.00    +0.139 C 
ATOM      8  C   UNL     1       2.970  -2.670  -7.891  0.00  0.00    +0.045 C 
ATOM      9  C   UNL     1       2.805  -1.156  -7.720  0.00  0.00    +0.111 C 
ATOM     10  H   UNL     1       1.010   0.271  -8.368  0.00  0.00    +0.156 HD
ENDROOT
BRANCH   1  16
ATOM     11  C   UNL     1      -0.627   2.444  -8.068  0.00  0.00    +0.080 A 
ATOM     12  C   UNL     1      -1.722   3.300  -7.919  0.00  0.00    +0.017 A 
ATOM     13  C   UNL     1      -2.684   3.027  -6.971  0.00  0.00    +0.001 A 
ATOM     14  C   UNL     1      -2.567   1.913  -6.156  0.00  0.00    +0.002 A 
ATOM     15  C   UNL     1      -1.489   1.061  -6.287  0.00  0.00    +0.024 A 
ATOM     16  C   UNL     1      -0.512   1.317  -7.240  0.00  0.00    +0.049 A 
BRANCH  11  17
ATOM     17  C   UNL     1       0.403   2.727  -9.084  0.00  0.00    +0.341 C 
ATOM     18  O   UNL     1       1.401   2.037  -9.145  0.00  0.00    -0.245 OA
BRANCH  17  19
ATOM     19  O   UNL     1       0.237   3.750  -9.944  0.00  0.00    -0.461 OA
BRANCH  19  20
ATOM     20  C   UNL     1       1.291   3.970 -10.918  0.00  0.00    +0.232 C 
BRANCH  20  21
ATOM     21  C   UNL     1       0.929   5.165 -11.802  0.00  0.00    +0.041 C 
BRANCH  21  23
ATOM     22  C   UNL     1       1.677   6.593 -13.711  0.00  0.00    +0.004 C 
ATOM     23  C   UNL     1       2.040   5.397 -12.827  0.00  0.00    -0.000 C 
ENDBRANCH  21  23
ENDBRANCH  20  21
ENDBRANCH  19  20
ENDBRANCH  17  19
ENDBRANCH  11  17
ENDBRANCH   1  16
BRANCH   7  24
ATOM     24  S   UNL     1       4.010  -5.013  -6.936  0.00  0.00    -0.000 S 
ATOM     25  O   UNL     1       2.752  -5.675  -6.925  0.00  0.00    -0.169 OA
ATOM     26  O   UNL     1       4.949  -5.260  -7.972  0.00  0.00    -0.169 OA
BRANCH  24  27
ATOM     27  C   UNL     1       4.813  -5.550  -5.462  0.00  0.00    +0.089 A 
ATOM     28  C   UNL     1       6.195  -5.563  -5.398  0.00  0.00    +0.027 A 
ATOM     29  C   UNL     1       6.831  -5.977  -4.246  0.00  0.00    +0.013 A 
ATOM     30  C   UNL     1       6.077  -6.394  -3.147  0.00  0.00    +0.017 A 
ATOM     31  C   UNL     1       4.683  -6.383  -3.221  0.00  0.00    +0.013 A 
ATOM     32  C   UNL     1       4.060  -5.961  -4.377  0.00  0.00    +0.027 A 
BRANCH  30  33
ATOM     33  C   UNL     1       6.751  -6.844  -1.911  0.00  0.00    +0.135 A 
ATOM     34  C   UNL     1       8.094  -6.907  -1.714  0.00  0.00    +0.050 A 
ATOM     35  C   UNL     1       8.289  -7.386  -0.403  0.00  0.00    +0.042 A 
ATOM     36  C   UNL     1       7.068  -7.596   0.127  0.00  0.00    +0.196 A 
ATOM     37  O   UNL     1       6.141  -7.268  -0.788  0.00  0.00    -0.463 OA
ENDBRANCH  30  33
ENDBRANCH  24  27
ENDBRANCH   7  24
TORSDOF 9
