REMARK  Name = ZINC30945749
REMARK  5 active torsions:
REMARK  status: ('A' for Active; 'I' for Inactive)
REMARK    1  A    between atoms: C_4  and  N_10
REMARK    2  A    between atoms: C_6  and  N_7
REMARK    3  A    between atoms: C_11  and  C_13
REMARK    4  A    between atoms: N_18  and  C_20
REMARK    5  A    between atoms: C_20  and  C_21
REMARK                            x       y       z     vdW  Elec       q    Type
REMARK                         _______ _______ _______ _____ _____    ______ ____
ROOT
ATOM      1  C   UNL     1      -5.197   4.098  -2.627  0.00  0.00    +0.059 C 
ATOM      2  C   UNL     1      -4.401   4.847  -3.698  0.00  0.00    +0.009 C 
ATOM      3  C   UNL     1      -2.950   4.357  -3.681  0.00  0.00    -0.018 C 
ATOM      4  C   UNL     1      -2.360   4.574  -2.286  0.00  0.00    -0.078 C 
ATOM      5  N   UNL     1      -3.157   3.836  -1.296  0.00  0.00    +0.383 N 
ATOM      6  C   UNL     1      -4.542   4.322  -1.262  0.00  0.00    -0.066 C 
ATOM      7  H   UNL     1      -3.179   2.780  -1.604  0.00  0.00    -0.081 HD
ENDROOT
BRANCH   1   9
ATOM      8  N   UNL     1      -7.386   4.525  -3.696  0.00  0.00    -0.284 N 
ATOM      9  C   UNL     1      -6.612   4.616  -2.597  0.00  0.00    +0.219 C 
ATOM     10  O   UNL     1      -7.053   5.116  -1.583  0.00  0.00    -0.275 OA
ATOM     11  H   UNL     1      -6.964   4.140  -4.636  0.00  0.00    +0.155 HD
BRANCH   8  15
ATOM     12  C   UNL     1     -11.381   5.700  -3.533  0.00  0.00    +0.034 A 
ATOM     13  C   UNL     1     -11.008   4.634  -4.332  0.00  0.00    +0.024 A 
ATOM     14  C   UNL     1      -9.684   4.245  -4.393  0.00  0.00    +0.062 A 
ATOM     15  C   UNL     1      -8.728   4.920  -3.642  0.00  0.00    +0.054 A 
ATOM     16  C   UNL     1      -9.107   5.989  -2.841  0.00  0.00    +0.057 A 
ATOM     17  C   UNL     1     -10.432   6.376  -2.790  0.00  0.00    +0.128 A 
ATOM     18 CL   UNL     1      -9.215   2.912  -5.401  0.00  0.00    -0.082 Cl
BRANCH  17  19
ATOM     19  N   UNL     1     -10.836   7.516  -1.937  0.00  0.00    +0.056 N 
ATOM     20  O   UNL     1     -10.000   8.113  -1.281  0.00  0.00    -0.126 OA
ATOM     21  O   UNL     1     -12.004   7.859  -1.891  0.00  0.00    -0.126 OA
ENDBRANCH  17  19
ENDBRANCH   8  15
ENDBRANCH   1   9
BRANCH   5  22
ATOM     22  C   UNL     1      -2.540   3.908   0.035  0.00  0.00    -0.042 C 
BRANCH  22  23
ATOM     23  C   UNL     1      -1.220   3.182   0.017  0.00  0.00    -0.046 A 
ATOM     24  C   UNL     1      -0.037   3.898   0.007  0.00  0.00    +0.004 A 
ATOM     25  C   UNL     1       1.174   3.233  -0.011  0.00  0.00    +0.020 A 
ATOM     26  C   UNL     1       1.204   1.849  -0.018  0.00  0.00    +0.042 A 
ATOM     27  C   UNL     1       0.022   1.132  -0.008  0.00  0.00    +0.040 A 
ATOM     28  C   UNL     1      -1.191   1.799   0.004  0.00  0.00    +0.044 A 
ATOM     29 CL   UNL     1      -2.676   0.899   0.010  0.00  0.00    -0.083 Cl
ATOM     30 CL   UNL     1       2.726   1.014  -0.040  0.00  0.00    -0.083 Cl
ENDBRANCH  22  23
ENDBRANCH   5  22
TORSDOF 5
