REMARK  Name = ZINC22934386
REMARK  7 active torsions:
REMARK  status: ('A' for Active; 'I' for Inactive)
REMARK    1  A    between atoms: C_15  and  N_17
REMARK    2  A    between atoms: N_20  and  C_23
REMARK    3  A    between atoms: C_23  and  C_24
REMARK    4  A    between atoms: C_24  and  C_26
REMARK    5  A    between atoms: C_24  and  O_38
REMARK    6  A    between atoms: C_26  and  O_27
REMARK    7  A    between atoms: O_27  and  C_28
REMARK                            x       y       z     vdW  Elec       q    Type
REMARK                         _______ _______ _______ _____ _____    ______ ____
ROOT
ATOM      1  N   UNL     1       4.593   1.358   1.154  0.00  0.00    +0.390 N 
ATOM      2  C   UNL     1       5.978   1.746   1.457  0.00  0.00    -0.062 C 
ATOM      3  C   UNL     1       6.451   1.002   2.708  0.00  0.00    +0.066 C 
ATOM      4  N   UNL     1       6.351  -0.447   2.480  0.00  0.00    -0.303 NA
ATOM      5  C   UNL     1       4.966  -0.835   2.177  0.00  0.00    +0.066 C 
ATOM      6  C   UNL     1       4.493  -0.090   0.926  0.00  0.00    -0.062 C 
ATOM      7  H   UNL     1       3.971   1.609   2.026  0.00  0.00    -0.080 HD
ENDROOT
BRANCH   1  22
ATOM      8  C   UNL     1       0.073   3.065   1.036  0.00  0.00    +0.000 A 
ATOM      9  C   UNL     1       1.146   3.433   1.828  0.00  0.00    +0.000 A 
ATOM     10  C   UNL     1       2.409   3.069   1.437  0.00  0.00    +0.002 A 
ATOM     11  C   UNL     1       2.635   2.323   0.259  0.00  0.00    -0.052 A 
ATOM     12  C   UNL     1       1.603   1.913  -0.469  0.00  0.00    -0.045 A 
ATOM     13  C   UNL     1       0.302   2.322  -0.091  0.00  0.00    +0.004 A 
ATOM     14  C   UNL     1       1.507   0.976  -1.655  0.00  0.00    +0.040 C 
ATOM     15  C   UNL     1       2.531   1.208  -2.721  0.00  0.00    +0.041 C 
ATOM     16  C   UNL     1       3.963   1.026  -2.271  0.00  0.00    -0.027 A 
ATOM     17  C   UNL     1       4.683   0.307  -3.259  0.00  0.00    +0.007 A 
ATOM     18  C   UNL     1       6.039   0.121  -3.131  0.00  0.00    +0.020 A 
ATOM     19  C   UNL     1       6.669   0.645  -2.017  0.00  0.00    +0.111 A 
ATOM     20  N   UNL     1       5.960   1.268  -1.113  0.00  0.00    -0.261 NA
ATOM     21  C   UNL     1       4.627   1.453  -1.204  0.00  0.00    +0.035 A 
ATOM     22  C   UNL     1       4.076   2.110   0.002  0.00  0.00    +0.013 C 
ENDBRANCH   1  22
BRANCH   4  23
ATOM     23  C   UNL     1       6.868  -1.198   3.631  0.00  0.00    +0.119 C 
BRANCH  23  24
ATOM     24  C   UNL     1       7.205  -2.626   3.199  0.00  0.00    +0.166 C 
BRANCH  24  25
ATOM     25  O   UNL     1       8.279  -2.598   2.257  0.00  0.00    -0.387 OA
ATOM     26  H   UNL     1       8.662  -3.537   1.831  0.00  0.00    +0.210 HD
ENDBRANCH  24  25
BRANCH  24  27
ATOM     27  C   UNL     1       7.621  -3.445   4.422  0.00  0.00    +0.261 C 
BRANCH  27  28
ATOM     28  O   UNL     1       7.824  -4.806   4.038  0.00  0.00    -0.489 OA
BRANCH  28  29
ATOM     29  C   UNL     1       8.200  -5.673   5.014  0.00  0.00    +0.130 A 
ATOM     30  C   UNL     1       8.371  -5.231   6.307  0.00  0.00    +0.046 A 
ATOM     31  C   UNL     1       8.755  -6.113   7.312  0.00  0.00    +0.006 A 
ATOM     32  C   UNL     1       8.972  -7.431   7.048  0.00  0.00    +0.028 A 
ATOM     33  C   UNL     1       8.809  -7.923   5.742  0.00  0.00    +0.074 A 
ATOM     34  C   UNL     1       8.413  -7.033   4.713  0.00  0.00    +0.042 A 
ATOM     35  C   UNL     1       8.244  -7.529   3.409  0.00  0.00    +0.015 A 
ATOM     36  C   UNL     1       8.468  -8.859   3.191  0.00  0.00    +0.020 A 
ATOM     37  C   UNL     1       8.851  -9.681   4.247  0.00  0.00    +0.111 A 
ATOM     38  N   UNL     1       9.016  -9.213   5.461  0.00  0.00    -0.255 NA
ENDBRANCH  28  29
ENDBRANCH  27  28
ENDBRANCH  24  27
ENDBRANCH  23  24
ENDBRANCH   4  23
TORSDOF 7
