REMARK  Name = ZINC16401607
REMARK  9 active torsions:
REMARK  status: ('A' for Active; 'I' for Inactive)
REMARK    1  A    between atoms: C_1  and  C_2
REMARK    2  A    between atoms: C_4  and  C_19
REMARK    3  A    between atoms: C_5  and  C_18
REMARK    4  A    between atoms: N_6  and  C_7
REMARK    5  A    between atoms: C_11  and  C_13
REMARK    6  A    between atoms: C_19  and  C_21
REMARK    7  A    between atoms: C_21  and  N_22
REMARK    8  A    between atoms: C_25  and  C_29
REMARK    9  A    between atoms: C_25  and  C_30
REMARK                            x       y       z     vdW  Elec       q    Type
REMARK                         _______ _______ _______ _____ _____    ______ ____
ROOT
ATOM      1  C   UNL     1       3.418   8.581   0.804  0.00  0.00    +0.064 C 
ATOM      2  C   UNL     1       3.003   7.261   1.401  0.00  0.00    +0.022 A 
ATOM      3  C   UNL     1       2.647   6.169   0.704  0.00  0.00    +0.034 A 
ATOM      4  C   UNL     1       2.326   5.131   1.694  0.00  0.00    +0.040 A 
ATOM      5  C   UNL     1       2.520   5.715   2.932  0.00  0.00    +0.031 A 
ATOM      6  N   UNL     1       2.929   6.984   2.737  0.00  0.00    -0.317 N 
ATOM      7  C   UNL     1       2.313   5.047   4.266  0.00  0.00    +0.064 C 
ENDROOT
BRANCH   6   8
ATOM      8  C   UNL     1       3.231   7.893   3.761  0.00  0.00    +0.047 A 
ATOM      9  C   UNL     1       4.306   7.655   4.608  0.00  0.00    +0.027 A 
ATOM     10  C   UNL     1       4.604   8.555   5.612  0.00  0.00    +0.022 A 
ATOM     11  C   UNL     1       3.827   9.687   5.782  0.00  0.00    +0.053 A 
ATOM     12  C   UNL     1       2.753   9.924   4.942  0.00  0.00    +0.075 A 
ATOM     13  C   UNL     1       2.453   9.029   3.933  0.00  0.00    +0.040 A 
ATOM     14 CL   UNL     1       4.200  10.812   7.050  0.00  0.00    -0.083 Cl
BRANCH  12  15
ATOM     15  C   UNL     1       1.909  11.158   5.130  0.00  0.00    +0.419 C 
ATOM     16  F   UNL     1       0.891  11.177   4.169  0.00  0.00    -0.166 F 
ATOM     17  F   UNL     1       1.342  11.146   6.409  0.00  0.00    -0.166 F 
ATOM     18  F   UNL     1       2.709  12.296   4.984  0.00  0.00    -0.166 F 
ENDBRANCH  12  15
ENDBRANCH   6   8
BRANCH   4  19
ATOM     19  C   UNL     1       1.886   3.761   1.424  0.00  0.00    +0.183 C 
ATOM     20  O   UNL     1       1.654   3.006   2.345  0.00  0.00    -0.290 OA
BRANCH  19  21
ATOM     21  C   UNL     1       1.720   3.289   0.002  0.00  0.00    +0.197 C 
BRANCH  21  22
ATOM     22  N   UNL     1       1.274   1.894   0.000  0.00  0.00    -0.216 N 
ATOM     23  C   UNL     1      -0.018   1.512   0.010  0.00  0.00    +0.254 C 
ATOM     24  O   UNL     1      -0.995   2.231   0.019  0.00  0.00    -0.272 OA
ATOM     25  C   UNL     1       0.002  -0.004   0.002  0.00  0.00    +0.168 C 
ATOM     26  N   UNL     1       1.438  -0.331  -0.013  0.00  0.00    -0.279 N 
ATOM     27  C   UNL     1       2.099   0.841  -0.013  0.00  0.00    +0.310 C 
ATOM     28  O   UNL     1       3.311   0.933  -0.025  0.00  0.00    -0.252 OA
ATOM     29  C   UNL     1      -0.686  -0.545  -1.253  0.00  0.00    +0.050 C 
ATOM     30  H   UNL     1       1.831  -1.218  -0.022  0.00  0.00    +0.152 HD
BRANCH  25  31
ATOM     31  C   UNL     1      -0.656  -0.550   1.243  0.00  0.00    +0.137 A 
ATOM     32  C   UNL     1      -0.349  -1.711   1.850  0.00  0.00    +0.047 A 
ATOM     33  C   UNL     1      -1.207  -1.827   2.968  0.00  0.00    +0.041 A 
ATOM     34  C   UNL     1      -1.986  -0.730   2.978  0.00  0.00    +0.195 A 
ATOM     35  O   UNL     1      -1.644   0.042   1.934  0.00  0.00    -0.465 OA
ENDBRANCH  25  31
ENDBRANCH  21  22
ENDBRANCH  19  21
ENDBRANCH   4  19
TORSDOF 6
