REMARK  Name = ZINC40014057
REMARK  17 active torsions:
REMARK  status: ('A' for Active; 'I' for Inactive)
REMARK    1  A    between atoms: C_1  and  C_2
REMARK    2  A    between atoms: C_2  and  C_3
REMARK    3  A    between atoms: C_3  and  C_4
REMARK    4  A    between atoms: C_4  and  N_5
REMARK    5  A    between atoms: N_5  and  C_6
REMARK    6  A    between atoms: N_5  and  C_10
REMARK    7  A    between atoms: C_6  and  C_7
REMARK    8  A    between atoms: C_7  and  C_8
REMARK    9  A    between atoms: C_8  and  C_9
REMARK   10  A    between atoms: C_10  and  C_11
REMARK   11  A    between atoms: C_11  and  C_12
REMARK   12  A    between atoms: C_12  and  N_13
REMARK   13  A    between atoms: C_14  and  C_30
REMARK   14  A    between atoms: C_33  and  O_39
REMARK   15  A    between atoms: C_34  and  O_36
REMARK   16  A    between atoms: O_36  and  C_37
REMARK   17  A    between atoms: C_37  and  C_38
REMARK                            x       y       z     vdW  Elec       q    Type
REMARK                         _______ _______ _______ _____ _____    ______ ____
ROOT
ATOM      1  N   UNL     1       2.882  -6.492  -5.143  0.00  0.00    -0.284 N 
ATOM      2  C   UNL     1       2.402  -6.620  -6.529  0.00  0.00    +0.145 C 
ATOM      3  C   UNL     1       3.570  -7.112  -7.320  0.00  0.00    +0.072 A 
ATOM      4  C   UNL     1       3.705  -7.435  -8.744  0.00  0.00    +0.199 A 
ATOM      5  O   UNL     1       2.851  -7.171  -9.572  0.00  0.00    -0.287 OA
ATOM      6  C   UNL     1       4.981  -8.116  -9.081  0.00  0.00    +0.067 A 
ATOM      7  C   UNL     1       5.174  -8.664 -10.349  0.00  0.00    +0.053 A 
ATOM      8  C   UNL     1       6.364  -9.297 -10.643  0.00  0.00    +0.124 A 
ATOM      9  C   UNL     1       7.361  -9.386  -9.678  0.00  0.00    +0.042 A 
ATOM     10  C   UNL     1       7.180  -8.846  -8.425  0.00  0.00    +0.050 A 
ATOM     11  C   UNL     1       5.987  -8.199  -8.105  0.00  0.00    +0.140 A 
ATOM     12  O   UNL     1       5.840  -7.668  -6.869  0.00  0.00    -0.450 OA
ATOM     13  C   UNL     1       4.626  -7.247  -6.465  0.00  0.00    +0.199 A 
ATOM     14  C   UNL     1       4.181  -6.855  -5.116  0.00  0.00    +0.283 C 
ATOM     15  O   UNL     1       4.881  -6.860  -4.123  0.00  0.00    -0.267 OA
ATOM     16  F   UNL     1       6.560  -9.831 -11.868  0.00  0.00    -0.205 F 
ENDROOT
BRANCH   2  17
ATOM     17  C   UNL     1       1.271  -7.614  -6.598  0.00  0.00    -0.019 A 
ATOM     18  C   UNL     1       1.322  -8.771  -5.842  0.00  0.00    +0.009 A 
ATOM     19  C   UNL     1       0.287  -9.685  -5.902  0.00  0.00    +0.049 A 
ATOM     20  C   UNL     1      -0.805  -9.443  -6.720  0.00  0.00    +0.158 A 
ATOM     21  C   UNL     1      -0.857  -8.278  -7.480  0.00  0.00    +0.162 A 
ATOM     22  C   UNL     1       0.182  -7.364  -7.412  0.00  0.00    +0.055 A 
BRANCH  20  23
ATOM     23  O   UNL     1      -1.824 -10.341  -6.780  0.00  0.00    -0.503 OA
ATOM     24  H   UNL     1      -2.525 -10.185  -6.132  0.00  0.00    +0.292 HD
ENDBRANCH  20  23
BRANCH  21  25
ATOM     25  O   UNL     1      -1.926  -8.036  -8.284  0.00  0.00    -0.489 OA
BRANCH  25  26
ATOM     26  C   UNL     1      -1.911  -6.820  -9.035  0.00  0.00    +0.226 C 
ATOM     27  C   UNL     1      -3.187  -6.723  -9.874  0.00  0.00    +0.048 C 
ENDBRANCH  25  26
ENDBRANCH  21  25
ENDBRANCH   2  17
BRANCH   1  28
ATOM     28  C   UNL     1       2.089  -6.044  -3.996  0.00  0.00    +0.107 C 
BRANCH  28  29
ATOM     29  C   UNL     1       2.200  -4.524  -3.863  0.00  0.00    +0.000 C 
BRANCH  29  30
ATOM     30  C   UNL     1       1.372  -4.055  -2.665  0.00  0.00    -0.077 C 
BRANCH  30  31
ATOM     31  N   UNL     1       1.561  -2.611  -2.473  0.00  0.00    +0.380 N 
ATOM     32  H   UNL     1       2.546  -2.409  -2.390  0.00  0.00    -0.082 HD
BRANCH  31  33
ATOM     33  C   UNL     1       1.008  -1.888  -3.626  0.00  0.00    -0.079 C 
BRANCH  33  34
ATOM     34  C   UNL     1       1.315  -0.395  -3.487  0.00  0.00    -0.019 C 
BRANCH  34  36
ATOM     35  C   UNL     1       1.045   1.850  -4.549  0.00  0.00    +0.004 C 
ATOM     36  C   UNL     1       0.739   0.358  -4.688  0.00  0.00    -0.005 C 
ENDBRANCH  34  36
ENDBRANCH  33  34
ENDBRANCH  31  33
BRANCH  31  37
ATOM     37  C   UNL     1       0.869  -2.184  -1.250  0.00  0.00    -0.079 C 
BRANCH  37  38
ATOM     38  C   UNL     1       1.550  -2.812  -0.033  0.00  0.00    -0.019 C 
BRANCH  38  39
ATOM     39  C   UNL     1       0.801  -2.406   1.238  0.00  0.00    -0.005 C 
ATOM     40  C   UNL     1       1.483  -3.034   2.455  0.00  0.00    +0.004 C 
ENDBRANCH  38  39
ENDBRANCH  37  38
ENDBRANCH  31  37
ENDBRANCH  30  31
ENDBRANCH  29  30
ENDBRANCH  28  29
ENDBRANCH   1  28
TORSDOF 14
