REMARK  Name = ZINC63254443
REMARK  11 active torsions:
REMARK  status: ('A' for Active; 'I' for Inactive)
REMARK    1  A    between atoms: C_4  and  O_7
REMARK    2  A    between atoms: O_7  and  C_8
REMARK    3  A    between atoms: N_10  and  C_11
REMARK    4  A    between atoms: C_11  and  C_13
REMARK    5  A    between atoms: C_11  and  C_23
REMARK    6  A    between atoms: C_13  and  C_14
REMARK    7  A    between atoms: C_23  and  O_25
REMARK    8  A    between atoms: O_25  and  C_26
REMARK    9  A    between atoms: C_26  and  C_27
REMARK   10  A    between atoms: C_27  and  C_29
REMARK   11  A    between atoms: C_33  and  N_35
REMARK                            x       y       z     vdW  Elec       q    Type
REMARK                         _______ _______ _______ _____ _____    ______ ____
ROOT
ATOM      1  C   UNL     1       4.619  -4.002   0.282  0.00  0.00    +0.189 C 
ENDROOT
BRANCH   1   4
ATOM      2  C   UNL     1       3.617  -1.783   0.195  0.00  0.00    +0.406 C 
ATOM      3  O   UNL     1       2.531  -2.311   0.059  0.00  0.00    -0.226 OA
ATOM      4  N   UNL     1       4.725  -2.541   0.314  0.00  0.00    -0.267 N 
ATOM      5  H   UNL     1       5.592  -2.120   0.422  0.00  0.00    +0.153 HD
BRANCH   2   6
ATOM      6  O   UNL     1       3.714  -0.440   0.225  0.00  0.00    -0.412 OA
BRANCH   6  10
ATOM      7  C   UNL     1       0.222   1.757   0.177  0.00  0.00    +0.000 A 
ATOM      8  C   UNL     1       0.618   1.115   1.336  0.00  0.00    +0.004 A 
ATOM      9  C   UNL     1       1.787   0.379   1.354  0.00  0.00    +0.046 A 
ATOM     10  C   UNL     1       2.563   0.283   0.209  0.00  0.00    +0.133 A 
ATOM     11  C   UNL     1       2.163   0.927  -0.953  0.00  0.00    +0.046 A 
ATOM     12  C   UNL     1       0.994   1.663  -0.966  0.00  0.00    +0.004 A 
ENDBRANCH   6  10
ENDBRANCH   2   6
ENDBRANCH   1   4
BRANCH   1  13
ATOM     13  C   UNL     1       5.897  -4.586  -0.263  0.00  0.00    +0.328 C 
ATOM     14  O   UNL     1       6.804  -3.857  -0.590  0.00  0.00    -0.249 OA
BRANCH  13  15
ATOM     15  O   UNL     1       6.029  -5.916  -0.384  0.00  0.00    -0.455 OA
BRANCH  15  16
ATOM     16  C   UNL     1       7.268  -6.400  -0.907  0.00  0.00    +0.311 C 
BRANCH  16  17
ATOM     17  C   UNL     1       7.233  -7.905  -0.971  0.00  0.00    +0.200 C 
ATOM     18  O   UNL     1       6.245  -8.505  -0.604  0.00  0.00    -0.288 OA
BRANCH  17  19
ATOM     19  C   UNL     1       8.398  -8.648  -1.478  0.00  0.00    +0.023 A 
ATOM     20  C   UNL     1       9.542  -7.961  -1.896  0.00  0.00    +0.011 A 
ATOM     21  C   UNL     1      10.629  -8.664  -2.370  0.00  0.00    +0.003 A 
ATOM     22  C   UNL     1      10.591 -10.046  -2.432  0.00  0.00    +0.033 A 
ATOM     23  C   UNL     1       9.463 -10.733  -2.019  0.00  0.00    +0.127 A 
ATOM     24  C   UNL     1       8.369 -10.045  -1.538  0.00  0.00    +0.044 A 
BRANCH  23  25
ATOM     25  N   UNL     1       9.432 -12.211  -2.090  0.00  0.00    +0.056 N 
ATOM     26  O   UNL     1      10.391 -12.817  -2.508  0.00  0.00    -0.126 OA
ATOM     27  O   UNL     1       8.447 -12.813  -1.730  0.00  0.00    -0.126 OA
ENDBRANCH  23  25
ENDBRANCH  17  19
ENDBRANCH  16  17
ENDBRANCH  15  16
ENDBRANCH  13  15
ENDBRANCH   1  13
BRANCH   1  28
ATOM     28  C   UNL     1       4.381  -4.528   1.698  0.00  0.00    +0.067 C 
BRANCH  28  29
ATOM     29  C   UNL     1       5.508  -4.084   2.595  0.00  0.00    -0.039 C 
ATOM     30  C   UNL     1       5.534  -2.987   3.386  0.00  0.00    -0.001 A 
ATOM     31  C   UNL     1       4.558  -1.920   3.638  0.00  0.00    +0.010 A 
ATOM     32  C   UNL     1       4.877  -0.931   4.503  0.00  0.00    +0.001 A 
ATOM     33  C   UNL     1       6.113  -0.899   5.164  0.00  0.00    +0.002 A 
ATOM     34  C   UNL     1       7.060  -1.844   4.984  0.00  0.00    +0.026 A 
ATOM     35  C   UNL     1       6.831  -2.931   4.097  0.00  0.00    +0.043 A 
ATOM     36  N   UNL     1       7.579  -3.954   3.758  0.00  0.00    -0.380 N 
ATOM     37  C   UNL     1       6.836  -4.778   2.798  0.00  0.00    +0.144 C 
ATOM     38  H   UNL     1       8.472  -4.137   4.090  0.00  0.00    +0.160 HD
ENDBRANCH  28  29
ENDBRANCH   1  28
TORSDOF 11
