REMARK  Name = ZINC15860489
REMARK  7 active torsions:
REMARK  status: ('A' for Active; 'I' for Inactive)
REMARK    1  A    between atoms: C_1  and  C_2
REMARK    2  A    between atoms: C_5  and  C_7
REMARK    3  A    between atoms: C_7  and  C_9
REMARK    4  A    between atoms: C_7  and  N_53
REMARK    5  A    between atoms: C_9  and  N_10
REMARK    6  A    between atoms: C_11  and  C_13
REMARK    7  A    between atoms: C_26  and  C_29
REMARK                            x       y       z     vdW  Elec       q    Type
REMARK                         _______ _______ _______ _____ _____    ______ ____
ROOT
ATOM      1  C   UNL     1      -4.410   1.308   3.422  0.00  0.00    +0.097 C 
ENDROOT
BRANCH   1   2
ATOM      2  N   UNL     1      -5.826   1.599   3.661  0.00  0.00    -0.312 N 
ATOM      3  C   UNL     1      -6.662   0.613   4.042  0.00  0.00    +0.252 C 
ATOM      4  O   UNL     1      -6.240  -0.519   4.188  0.00  0.00    -0.270 OA
ATOM      5  H   UNL     1      -6.162   2.502   3.545  0.00  0.00    +0.149 HD
BRANCH   3   6
ATOM      6  C   UNL     1      -8.081   0.904   4.281  0.00  0.00    +0.093 A 
ATOM      7  C   UNL     1      -9.069   0.050   4.662  0.00  0.00    +0.068 A 
ATOM      8  C   UNL     1     -10.380   0.531   4.844  0.00  0.00    +0.008 A 
ATOM      9  C   UNL     1     -11.534  -0.194   5.239  0.00  0.00    +0.012 A 
ATOM     10  C   UNL     1     -12.735   0.426   5.364  0.00  0.00    +0.021 A 
ATOM     11  C   UNL     1     -12.883   1.786   5.112  0.00  0.00    +0.042 A 
ATOM     12  C   UNL     1     -11.784   2.529   4.726  0.00  0.00    +0.035 A 
ATOM     13  C   UNL     1     -10.559   1.912   4.595  0.00  0.00    +0.023 A 
ATOM     14  S   UNL     1      -8.935   2.464   4.138  0.00  0.00    -0.082 S 
ATOM     15 CL   UNL     1     -14.435   2.543   5.282  0.00  0.00    -0.084 Cl
ATOM     16 CL   UNL     1      -8.714  -1.629   4.926  0.00  0.00    -0.082 Cl
ENDBRANCH   3   6
ENDBRANCH   1   2
BRANCH   1  17
ATOM     17  C   UNL     1      -3.666   2.611   3.122  0.00  0.00    +0.016 C 
BRANCH  17  24
ATOM     18  C   UNL     1      -3.584   4.518   1.633  0.00  0.00    -0.078 C 
ATOM     19  C   UNL     1      -4.372   5.290   0.572  0.00  0.00    -0.015 C 
ATOM     20  C   UNL     1      -4.579   4.397  -0.654  0.00  0.00    -0.018 C 
ATOM     21  C   UNL     1      -5.309   3.120  -0.228  0.00  0.00    -0.015 C 
ATOM     22  C   UNL     1      -4.494   2.410   0.856  0.00  0.00    -0.078 C 
ATOM     23  C   UNL     1      -5.419   5.142  -1.694  0.00  0.00    +0.007 C 
ATOM     24  N   UNL     1      -4.351   3.313   2.018  0.00  0.00    +0.387 N 
ATOM     25  H   UNL     1      -5.285   3.600   2.333  0.00  0.00    -0.081 HD
ENDBRANCH  17  24
BRANCH  17  30
ATOM     26  C   UNL     1       0.366   1.235   0.422  0.00  0.00    +0.086 C 
ATOM     27  C   UNL     1      -0.486   1.701   1.574  0.00  0.00    +0.102 A 
ATOM     28  C   UNL     1      -0.043   2.010   2.806  0.00  0.00    +0.044 A 
ATOM     29  C   UNL     1      -1.174   2.396   3.563  0.00  0.00    +0.043 A 
ATOM     30  C   UNL     1      -2.240   2.300   2.748  0.00  0.00    +0.093 A 
ATOM     31  O   UNL     1      -1.816   1.884   1.543  0.00  0.00    -0.466 OA
ENDBRANCH  17  30
ENDBRANCH   1  17
TORSDOF 5
