REMARK  Name = ZINC63584646
REMARK  5 active torsions:
REMARK  status: ('A' for Active; 'I' for Inactive)
REMARK    1  A    between atoms: C_6  and  N_7
REMARK    2  A    between atoms: N_7  and  C_8
REMARK    3  A    between atoms: C_14  and  C_16
REMARK    4  A    between atoms: C_19  and  N_25
REMARK    5  A    between atoms: C_20  and  N_22
REMARK                            x       y       z     vdW  Elec       q    Type
REMARK                         _______ _______ _______ _____ _____    ______ ____
ROOT
ATOM      1  C   UNL     1      -2.507  -2.535   0.565  0.00  0.00    +0.073 C 
ATOM      2  C   UNL     1      -2.342  -2.753  -0.940  0.00  0.00    +0.041 C 
ATOM      3  C   UNL     1      -1.718  -4.131  -1.187  0.00  0.00    +0.110 C 
ATOM      4  N   UNL     1      -2.540  -5.148  -0.516  0.00  0.00    -0.297 N 
ATOM      5  C   UNL     1      -2.837  -4.986   0.914  0.00  0.00    +0.110 C 
ATOM      6  C   UNL     1      -3.447  -3.599   1.137  0.00  0.00    +0.041 C 
ATOM      7  C   UNL     1      -3.012  -6.210  -1.199  0.00  0.00    +0.247 C 
ATOM      8  O   UNL     1      -3.621  -7.086  -0.616  0.00  0.00    -0.270 OA
ENDROOT
BRANCH   7   9
ATOM      9  C   UNL     1      -2.791  -6.308  -2.654  0.00  0.00    +0.039 A 
ATOM     10  C   UNL     1      -1.524  -6.055  -3.189  0.00  0.00    +0.015 A 
ATOM     11  C   UNL     1      -1.320  -6.147  -4.546  0.00  0.00    +0.026 A 
ATOM     12  C   UNL     1      -2.374  -6.493  -5.388  0.00  0.00    +0.055 A 
ATOM     13  C   UNL     1      -3.637  -6.745  -4.859  0.00  0.00    +0.147 A 
ATOM     14  C   UNL     1      -3.845  -6.660  -3.501  0.00  0.00    +0.047 A 
BRANCH  13  15
ATOM     15  N   UNL     1      -4.755  -7.111  -5.757  0.00  0.00    +0.058 N 
ATOM     16  O   UNL     1      -5.870  -6.699  -5.534  0.00  0.00    -0.126 OA
ATOM     17  O   UNL     1      -4.554  -7.822  -6.714  0.00  0.00    -0.126 OA
ENDBRANCH  13  15
BRANCH  12  18
ATOM     18  N   UNL     1      -2.166  -6.585  -6.759  0.00  0.00    -0.356 N 
ATOM     19  H   UNL     1      -1.266  -6.528  -7.118  0.00  0.00    +0.142 HD
ATOM     20  H   UNL     1      -2.919  -6.707  -7.358  0.00  0.00    +0.142 HD
ENDBRANCH  12  18
ENDBRANCH   7   9
BRANCH   1  21
ATOM     21  N   UNL     1      -3.073  -1.205   0.806  0.00  0.00    -0.341 N 
ATOM     22  H   UNL     1      -4.030  -1.098   0.920  0.00  0.00    +0.146 HD
BRANCH  21  28
ATOM     23  C   UNL     1      -2.767   1.172   1.098  0.00  0.00    +0.026 A 
ATOM     24  C   UNL     1      -1.935   2.273   1.162  0.00  0.00    +0.040 A 
ATOM     25  C   UNL     1      -0.568   2.119   0.999  0.00  0.00    +0.124 A 
ATOM     26  C   UNL     1      -0.033   0.862   0.772  0.00  0.00    +0.040 A 
ATOM     27  C   UNL     1      -0.861  -0.241   0.706  0.00  0.00    +0.026 A 
ATOM     28  C   UNL     1      -2.232  -0.089   0.870  0.00  0.00    +0.027 A 
ATOM     29  F   UNL     1       0.244   3.197   1.062  0.00  0.00    -0.205 F 
ENDBRANCH  21  28
ENDBRANCH   1  21
TORSDOF 5
