REMARK  Name = ZINC12278566
REMARK  8 active torsions:
REMARK  status: ('A' for Active; 'I' for Inactive)
REMARK    1  A    between atoms: C_4  and  C_7
REMARK    2  A    between atoms: C_7  and  C_8
REMARK    3  A    between atoms: C_8  and  C_10
REMARK    4  A    between atoms: C_8  and  N_26
REMARK    5  A    between atoms: C_15  and  C_16
REMARK    6  A    between atoms: C_15  and  N_72
REMARK    7  A    between atoms: N_26  and  C_27
REMARK    8  A    between atoms: C_30  and  C_32
REMARK                            x       y       z     vdW  Elec       q    Type
REMARK                         _______ _______ _______ _____ _____    ______ ____
ROOT
ATOM      1  C   UNL     1       5.371  -2.391  -5.175  0.00  0.00    +0.084 C 
ENDROOT
BRANCH   1   2
ATOM      2  C   UNL     1       5.044  -1.907  -3.760  0.00  0.00    +0.006 C 
ATOM      3  C   UNL     1       5.959  -0.735  -3.396  0.00  0.00    -0.013 C 
ATOM      4  C   UNL     1       5.587  -0.217  -2.005  0.00  0.00    -0.078 C 
ATOM      5  C   UNL     1       3.283  -0.906  -2.301  0.00  0.00    -0.078 C 
ATOM      6  C   UNL     1       3.586  -1.444  -3.701  0.00  0.00    -0.013 C 
ATOM      7  N   UNL     1       4.180   0.236  -2.021  0.00  0.00    +0.382 N 
ATOM      8  H   UNL     1       4.065   0.939  -2.761  0.00  0.00    -0.081 HD
BRANCH   7   9
ATOM      9  C   UNL     1       3.831   0.845  -0.721  0.00  0.00    -0.043 C 
BRANCH   9  10
ATOM     10  C   UNL     1       2.474   1.490  -0.836  0.00  0.00    -0.060 A 
ATOM     11  C   UNL     1       1.337   0.766  -0.528  0.00  0.00    +0.005 A 
ATOM     12  C   UNL     1       0.091   1.354  -0.635  0.00  0.00    +0.049 A 
ATOM     13  C   UNL     1      -0.023   2.672  -1.051  0.00  0.00    +0.162 A 
ATOM     14  C   UNL     1       1.120   3.401  -1.358  0.00  0.00    +0.162 A 
ATOM     15  C   UNL     1       2.368   2.805  -1.250  0.00  0.00    +0.051 A 
ATOM     16  O   UNL     1       1.032   4.698  -1.760  0.00  0.00    -0.485 OA
ATOM     17  C   UNL     1      -0.250   5.145  -2.215  0.00  0.00    +0.270 C 
ATOM     18  C   UNL     1      -1.310   4.665  -1.214  0.00  0.00    +0.270 C 
ATOM     19  O   UNL     1      -1.257   3.234  -1.160  0.00  0.00    -0.485 OA
ENDBRANCH   9  10
ENDBRANCH   7   9
ENDBRANCH   1   2
BRANCH   1  20
ATOM     20  N   UNL     1       4.582  -3.589  -5.475  0.00  0.00    -0.290 N 
ATOM     21  C   UNL     1       4.845  -4.746  -4.837  0.00  0.00    +0.265 C 
ATOM     22  O   UNL     1       5.665  -4.773  -3.940  0.00  0.00    -0.268 OA
BRANCH  21  23
ATOM     23  C   UNL     1       4.133  -5.986  -5.227  0.00  0.00    +0.126 A 
ATOM     24  C   UNL     1       4.306  -7.147  -4.477  0.00  0.00    +0.033 A 
ATOM     25  C   UNL     1       3.634  -8.298  -4.855  0.00  0.00    +0.004 A 
ATOM     26  C   UNL     1       2.811  -8.248  -5.969  0.00  0.00    +0.020 A 
ATOM     27  C   UNL     1       2.686  -7.058  -6.668  0.00  0.00    +0.111 A 
ATOM     28  N   UNL     1       3.332  -5.979  -6.285  0.00  0.00    -0.250 NA
ENDBRANCH  21  23
BRANCH  20  29
ATOM     29  C   UNL     1       3.509  -3.528  -6.471  0.00  0.00    +0.077 C 
ATOM     30  C   UNL     1       2.463  -2.423  -6.315  0.00  0.00    +0.024 C 
ATOM     31  C   UNL     1       2.094  -3.875  -6.005  0.00  0.00    +0.024 C 
ENDBRANCH  20  29
ENDBRANCH   1  20
BRANCH   1  32
ATOM     32  C   UNL     1       5.030  -1.290  -6.181  0.00  0.00    +0.058 C 
BRANCH  32  36
ATOM     33  C   UNL     1       6.497  -2.388 -10.041  0.00  0.00    +0.000 A 
ATOM     34  C   UNL     1       5.154  -2.531  -9.745  0.00  0.00    +0.000 A 
ATOM     35  C   UNL     1       4.679  -2.176  -8.496  0.00  0.00    +0.004 A 
ATOM     36  C   UNL     1       5.548  -1.678  -7.543  0.00  0.00    -0.046 A 
ATOM     37  C   UNL     1       6.890  -1.529  -7.840  0.00  0.00    +0.004 A 
ATOM     38  C   UNL     1       7.365  -1.889  -9.087  0.00  0.00    +0.000 A 
ENDBRANCH  32  36
ENDBRANCH   1  32
TORSDOF 8
