REMARK  Name = ZINC36029692
REMARK  12 active torsions:
REMARK  status: ('A' for Active; 'I' for Inactive)
REMARK    1  A    between atoms: C_1  and  C_2
REMARK    2  A    between atoms: C_2  and  C_3
REMARK    3  A    between atoms: C_2  and  C_4
REMARK    4  A    between atoms: C_4  and  C_5
REMARK    5  A    between atoms: N_9  and  C_24
REMARK    6  A    between atoms: C_17  and  C_19
REMARK    7  A    between atoms: C_24  and  C_25
REMARK    8  A    between atoms: C_25  and  C_26
REMARK    9  A    between atoms: C_29  and  O_34
REMARK   10  A    between atoms: C_30  and  O_32
REMARK   11  A    between atoms: O_32  and  C_33
REMARK   12  A    between atoms: O_34  and  C_35
REMARK                            x       y       z     vdW  Elec       q    Type
REMARK                         _______ _______ _______ _____ _____    ______ ____
ROOT
ATOM      1  C   UNL     1      -1.871   0.133  -0.734  0.00  0.00    +0.019 C 
ATOM      2  C   UNL     1      -3.154  -0.618  -1.014  0.00  0.00    +0.200 C 
ATOM      3  O   UNL     1      -3.386  -1.766  -0.701  0.00  0.00    -0.277 OA
ATOM      4  N   UNL     1      -3.999   0.206  -1.669  0.00  0.00    -0.313 N 
ATOM      5  C   UNL     1      -3.355   1.508  -1.867  0.00  0.00    +0.006 C 
ATOM      6  N   UNL     1      -2.217   1.563  -0.923  0.00  0.00    +0.401 N 
ATOM      7  C   UNL     1      -4.338   2.636  -1.558  0.00  0.00    +0.025 C 
ATOM      8  C   UNL     1      -5.530   2.548  -2.517  0.00  0.00    +0.108 C 
ATOM      9  N   UNL     1      -5.027   2.536  -3.897  0.00  0.00    -0.297 N 
ATOM     10  C   UNL     1      -4.020   1.534  -4.274  0.00  0.00    +0.108 C 
ATOM     11  C   UNL     1      -2.841   1.630  -3.300  0.00  0.00    +0.025 C 
ATOM     12  C   UNL     1      -5.480   3.427  -4.801  0.00  0.00    +0.253 C 
ATOM     13  O   UNL     1      -6.208   4.335  -4.448  0.00  0.00    -0.269 OA
ATOM     14  H   UNL     1      -2.499   1.980  -0.049  0.00  0.00    -0.082 HD
ATOM     15  H   UNL     1      -1.442   2.067  -1.327  0.00  0.00    -0.082 HD
ENDROOT
BRANCH  12  16
ATOM     16  C   UNL     1      -5.095   3.301  -6.210  0.00  0.00    +0.074 A 
ATOM     17  C   UNL     1      -5.276   4.202  -7.249  0.00  0.00    +0.021 A 
ATOM     18  C   UNL     1      -4.804   3.801  -8.476  0.00  0.00    +0.008 A 
ATOM     19  C   UNL     1      -4.210   2.587  -8.588  0.00  0.00    +0.046 A 
ATOM     20  S   UNL     1      -4.266   1.955  -7.033  0.00  0.00    -0.092 S 
ENDBRANCH  12  16
BRANCH   1  21
ATOM     21  C   UNL     1      -1.408  -0.117   0.702  0.00  0.00    -0.004 C 
BRANCH  21  23
ATOM     22  C   UNL     1       0.264   0.524   2.444  0.00  0.00    +0.007 C 
ATOM     23  C   UNL     1      -0.136   0.688   0.977  0.00  0.00    -0.018 C 
ATOM     24  C   UNL     1       0.994   0.177   0.080  0.00  0.00    +0.007 C 
ENDBRANCH  21  23
ENDBRANCH   1  21
BRANCH   4  25
ATOM     25  C   UNL     1      -5.349  -0.146  -2.113  0.00  0.00    +0.110 C 
BRANCH  25  26
ATOM     26  C   UNL     1      -6.344   0.120  -0.981  0.00  0.00    +0.054 C 
BRANCH  26  27
ATOM     27  C   UNL     1      -7.717  -0.336  -1.401  0.00  0.00    -0.042 A 
ATOM     28  C   UNL     1      -8.567   0.540  -2.050  0.00  0.00    +0.007 A 
ATOM     29  C   UNL     1      -9.828   0.126  -2.438  0.00  0.00    +0.049 A 
ATOM     30  C   UNL     1     -10.242  -1.170  -2.176  0.00  0.00    +0.161 A 
ATOM     31  C   UNL     1      -9.387  -2.052  -1.523  0.00  0.00    +0.162 A 
ATOM     32  C   UNL     1      -8.123  -1.632  -1.141  0.00  0.00    +0.053 A 
BRANCH  31  33
ATOM     33  O   UNL     1      -9.789  -3.325  -1.264  0.00  0.00    -0.491 OA
ATOM     34  C   UNL     1      -8.858  -4.175  -0.590  0.00  0.00    +0.277 C 
ENDBRANCH  31  33
BRANCH  30  35
ATOM     35  O   UNL     1     -11.482  -1.579  -2.556  0.00  0.00    -0.491 OA
ATOM     36  C   UNL     1     -12.306  -0.620  -3.221  0.00  0.00    +0.277 C 
ENDBRANCH  30  35
ENDBRANCH  26  27
ENDBRANCH  25  26
ENDBRANCH   4  25
TORSDOF 8
