REMARK  Name = ZINC54446497
REMARK  10 active torsions:
REMARK  status: ('A' for Active; 'I' for Inactive)
REMARK    1  A    between atoms: C_1  and  C_2
REMARK    2  A    between atoms: C_5  and  C_29
REMARK    3  A    between atoms: N_8  and  C_10
REMARK    4  A    between atoms: C_10  and  C_11
REMARK    5  A    between atoms: C_10  and  C_12
REMARK    6  A    between atoms: C_10  and  C_13
REMARK    7  A    between atoms: C_13  and  N_14
REMARK    8  A    between atoms: N_17  and  C_18
REMARK    9  A    between atoms: C_21  and  C_25
REMARK   10  A    between atoms: N_27  and  C_28
REMARK                            x       y       z     vdW  Elec       q    Type
REMARK                         _______ _______ _______ _____ _____    ______ ____
ROOT
ATOM      1  N   UNL     1       1.983   1.660   3.424  0.00  0.00    -0.300 N 
ATOM      2  C   UNL     1       1.498   2.455   4.399  0.00  0.00    +0.304 C 
ATOM      3  O   UNL     1       1.146   1.973   5.458  0.00  0.00    -0.253 OA
ATOM      4  N   UNL     1       1.403   3.785   4.198  0.00  0.00    -0.269 N 
ATOM      5  H   UNL     1       2.264   2.044   2.579  0.00  0.00    +0.150 HD
ATOM      6  H   UNL     1       1.743   4.177   3.379  0.00  0.00    +0.156 HD
ENDROOT
BRANCH   4   7
ATOM      7  C   UNL     1       0.816   4.596   5.169  0.00  0.00    +0.036 A 
ATOM      8  C   UNL     1       1.014   4.317   6.518  0.00  0.00    +0.024 A 
ATOM      9  C   UNL     1       0.436   5.115   7.479  0.00  0.00    +0.016 A 
ATOM     10  C   UNL     1      -0.350   6.207   7.100  0.00  0.00    +0.055 A 
ATOM     11  C   UNL     1      -0.547   6.484   5.743  0.00  0.00    +0.055 A 
ATOM     12  C   UNL     1       0.039   5.684   4.786  0.00  0.00    +0.044 A 
ATOM     13 CL   UNL     1      -1.523   7.838   5.265  0.00  0.00    -0.083 Cl
BRANCH  10  14
ATOM     14  C   UNL     1      -0.971   7.064   8.127  0.00  0.00    +0.245 C 
ATOM     15  O   UNL     1      -1.655   8.013   7.795  0.00  0.00    -0.270 OA
ATOM     16  N   UNL     1      -0.780   6.795   9.434  0.00  0.00    -0.314 N 
ATOM     17  C   UNL     1      -1.397   7.646  10.455  0.00  0.00    +0.128 C 
ATOM     18  H   UNL     1      -0.235   6.037   9.699  0.00  0.00    +0.149 HD
ENDBRANCH  10  14
ENDBRANCH   4   7
BRANCH   1  19
ATOM     19  C   UNL     1       2.086   0.215   3.642  0.00  0.00    +0.093 C 
BRANCH  19  20
ATOM     20  C   UNL     1       2.761  -0.436   2.433  0.00  0.00    -0.055 C 
ATOM     21  C   UNL     1       2.797  -1.954   2.625  0.00  0.00    -0.008 C 
ATOM     22  C   UNL     1       4.190   0.095   2.300  0.00  0.00    -0.008 C 
BRANCH  20  28
ATOM     23  C   UNL     1      -0.204   1.321  -0.000  0.00  0.00    +0.005 C 
ATOM     24  C   UNL     1      -0.188  -0.203   0.124  0.00  0.00    -0.031 C 
ATOM     25  C   UNL     1       0.452  -0.811  -1.128  0.00  0.00    +0.003 C 
ATOM     26  C   UNL     1       1.909  -0.350  -1.220  0.00  0.00    -0.031 C 
ATOM     27  C   UNL     1       2.647  -0.748   0.059  0.00  0.00    -0.075 C 
ATOM     28  N   UNL     1       2.004  -0.114   1.217  0.00  0.00    +0.384 N 
ATOM     29  C   UNL     1       0.627  -0.607   1.355  0.00  0.00    -0.075 C 
ATOM     30  C   UNL     1       2.579  -1.013  -2.425  0.00  0.00    +0.005 C 
ATOM     31  H   UNL     1       1.990   0.886   1.086  0.00  0.00    -0.081 HD
ENDBRANCH  20  28
ENDBRANCH  19  20
ENDBRANCH   1  19
TORSDOF 5
