REMARK  Name = ZINC02181934
REMARK  11 active torsions:
REMARK  status: ('A' for Active; 'I' for Inactive)
REMARK    1  A    between atoms: C_1  and  C_2
REMARK    2  A    between atoms: C_2  and  C_3
REMARK    3  A    between atoms: C_2  and  C_4
REMARK    4  A    between atoms: C_2  and  C_5
REMARK    5  A    between atoms: C_5  and  C_7
REMARK    6  A    between atoms: C_5  and  N_17
REMARK    7  A    between atoms: C_8  and  C_9
REMARK    8  A    between atoms: C_18  and  C_22
REMARK    9  A    between atoms: C_22  and  N_57
REMARK   10  A    between atoms: C_27  and  N_57
REMARK   11  A    between atoms: C_28  and  N_57
REMARK                            x       y       z     vdW  Elec       q    Type
REMARK                         _______ _______ _______ _____ _____    ______ ____
ROOT
ATOM      1  C   UNL     1       3.451   0.431   0.123  0.00  0.00    +0.139 C 
ENDROOT
BRANCH   1   2
ATOM      2  N   UNL     1       1.997   0.584   0.042  0.00  0.00    -0.223 N 
ATOM      3  C   UNL     1       1.323   1.733  -0.152  0.00  0.00    +0.142 A 
ATOM      4  N   UNL     1       0.049   1.426  -0.159  0.00  0.00    -0.115 NA
ATOM      5  N   UNL     1      -0.055   0.154   0.022  0.00  0.00    -0.023 NA
ATOM      6  N   UNL     1       1.120  -0.357   0.144  0.00  0.00    -0.043 NA
BRANCH   3   7
ATOM      7  C   UNL     1       1.919   3.106  -0.330  0.00  0.00    -0.003 C 
ATOM      8  C   UNL     1       2.856   3.122  -1.555  0.00  0.00    -0.004 C 
ATOM      9  C   UNL     1       4.021   4.049  -1.130  0.00  0.00    -0.001 C 
ATOM     10  C   UNL     1       4.217   3.689   0.364  0.00  0.00    -0.001 C 
ATOM     11  C   UNL     1       2.784   3.466   0.890  0.00  0.00    -0.004 C 
BRANCH   7  14
ATOM     12  C   UNL     1       0.056   3.818  -1.703  0.00  0.00    -0.095 C 
ATOM     13  C   UNL     1      -0.006   4.161   0.693  0.00  0.00    -0.095 C 
ATOM     14  N   UNL     1       0.862   4.125  -0.503  0.00  0.00    +0.385 N 
ATOM     15  H   UNL     1       1.303   5.045  -0.623  0.00  0.00    -0.081 HD
ENDBRANCH   7  14
ENDBRANCH   3   7
ENDBRANCH   1   2
BRANCH   1  17
ATOM     16  C   UNL     1       3.388  -0.203  -2.293  0.00  0.00    +0.013 C 
ATOM     17  C   UNL     1       3.915  -0.596  -0.911  0.00  0.00    -0.012 C 
ATOM     18  C   UNL     1       5.444  -0.636  -0.941  0.00  0.00    +0.013 C 
ATOM     19  C   UNL     1       3.376  -1.978  -0.535  0.00  0.00    +0.013 C 
ENDBRANCH   1  17
BRANCH   1  20
ATOM     20  C   UNL     1       3.831  -0.040   1.503  0.00  0.00    +0.001 C 
ATOM     21  C   UNL     1       4.579   0.728   2.283  0.00  0.00    +0.007 C 
BRANCH  21  22
ATOM     22  C   UNL     1       5.051   0.219   3.588  0.00  0.00    -0.007 A 
ATOM     23  C   UNL     1       4.706  -1.068   4.004  0.00  0.00    +0.011 A 
ATOM     24  C   UNL     1       5.154  -1.540   5.220  0.00  0.00    +0.020 A 
ATOM     25  C   UNL     1       5.936  -0.736   6.033  0.00  0.00    +0.042 A 
ATOM     26  C   UNL     1       6.277   0.543   5.630  0.00  0.00    +0.040 A 
ATOM     27  C   UNL     1       5.839   1.025   4.412  0.00  0.00    +0.049 A 
ATOM     28 CL   UNL     1       6.267   2.630   3.906  0.00  0.00    -0.083 Cl
ATOM     29 CL   UNL     1       6.490  -1.335   7.565  0.00  0.00    -0.083 Cl
ENDBRANCH  21  22
ENDBRANCH   1  20
TORSDOF 6
