REMARK  Name = ZINC57335146
REMARK  8 active torsions:
REMARK  status: ('A' for Active; 'I' for Inactive)
REMARK    1  A    between atoms: C_1  and  C_2
REMARK    2  A    between atoms: C_2  and  C_3
REMARK    3  A    between atoms: C_3  and  C_4
REMARK    4  A    between atoms: C_10  and  C_12
REMARK    5  A    between atoms: C_14  and  N_20
REMARK    6  A    between atoms: C_21  and  C_23
REMARK    7  A    between atoms: C_23  and  N_24
REMARK    8  A    between atoms: C_27  and  C_30
REMARK                            x       y       z     vdW  Elec       q    Type
REMARK                         _______ _______ _______ _____ _____    ______ ____
ROOT
ATOM      1  C   UNL     1       4.847  -3.826  -1.196  0.00  0.00    +0.029 A 
ATOM      2  C   UNL     1       5.407  -5.061  -1.520  0.00  0.00    +0.036 A 
ATOM      3  C   UNL     1       6.601  -5.113  -2.221  0.00  0.00    +0.053 A 
ATOM      4  C   UNL     1       7.238  -3.936  -2.598  0.00  0.00    +0.064 A 
ATOM      5  C   UNL     1       6.683  -2.711  -2.276  0.00  0.00    +0.042 A 
ATOM      6  C   UNL     1       5.490  -2.649  -1.583  0.00  0.00    +0.052 A 
ATOM      7 CL   UNL     1       4.793  -1.109  -1.188  0.00  0.00    -0.083 Cl
ATOM      8 CL   UNL     1       8.735  -4.004  -3.476  0.00  0.00    -0.082 Cl
ENDROOT
BRANCH   1  15
ATOM      9  C   UNL     1       0.725  -2.050   1.206  0.00  0.00    +0.156 A 
ATOM     10  N   UNL     1      -0.172  -2.836   1.732  0.00  0.00    -0.132 NA
ATOM     11  N   UNL     1       0.158  -4.067   1.551  0.00  0.00    -0.120 NA
ATOM     12  C   UNL     1       1.281  -4.120   0.900  0.00  0.00    +0.218 A 
ATOM     13  N   UNL     1       1.704  -2.840   0.638  0.00  0.00    -0.190 N 
ATOM     14  N   UNL     1       2.896  -2.711  -0.062  0.00  0.00    -0.156 NA
ATOM     15  C   UNL     1       3.571  -3.763  -0.449  0.00  0.00    +0.134 A 
ATOM     16  S   UNL     1       2.563  -5.104   0.166  0.00  0.00    -0.026 S 
BRANCH   9  17
ATOM     17  C   UNL     1       0.694  -0.544   1.210  0.00  0.00    +0.078 C 
BRANCH  17  19
ATOM     18  C   UNL     1      -0.077   1.484  -0.029  0.00  0.00    +0.004 C 
ATOM     19  C   UNL     1      -0.046  -0.045  -0.033  0.00  0.00    +0.004 C 
ENDBRANCH  17  19
ENDBRANCH   9  17
ENDBRANCH   1  15
BRANCH   3  20
ATOM     20  N   UNL     1       7.167  -6.351  -2.548  0.00  0.00    -0.286 N 
ATOM     21  C   UNL     1       7.045  -7.393  -1.702  0.00  0.00    +0.201 C 
ATOM     22  O   UNL     1       6.376  -7.282  -0.696  0.00  0.00    -0.278 OA
ATOM     23  H   UNL     1       7.647  -6.459  -3.384  0.00  0.00    +0.155 HD
BRANCH  21  24
ATOM     24  C   UNL     1       7.739  -8.696  -2.006  0.00  0.00    +0.019 C 
BRANCH  24  25
ATOM     25  N   UNL     1       7.451  -9.664  -0.939  0.00  0.00    +0.385 N 
ATOM     26  C   UNL     1       8.034  -9.189   0.322  0.00  0.00    -0.078 C 
ATOM     27  C   UNL     1       7.668 -10.153   1.452  0.00  0.00    -0.016 C 
ATOM     28  C   UNL     1       8.217 -11.545   1.127  0.00  0.00    -0.018 C 
ATOM     29  C   UNL     1       7.662 -11.999  -0.226  0.00  0.00    -0.016 C 
ATOM     30  C   UNL     1       8.028 -10.967  -1.294  0.00  0.00    -0.078 C 
ATOM     31  C   UNL     1       7.788 -12.531   2.214  0.00  0.00    +0.007 C 
ATOM     32  H   UNL     1       6.452  -9.758  -0.832  0.00  0.00    -0.081 HD
ENDBRANCH  24  25
ENDBRANCH  21  24
ENDBRANCH   3  20
TORSDOF 6
