REMARK  Name = ZINC20856033
REMARK  7 active torsions:
REMARK  status: ('A' for Active; 'I' for Inactive)
REMARK    1  A    between atoms: C_10  and  C_12
REMARK    2  A    between atoms: C_18  and  C_20
REMARK    3  A    between atoms: C_20  and  O_22
REMARK    4  A    between atoms: O_22  and  C_23
REMARK    5  A    between atoms: C_23  and  C_24
REMARK    6  A    between atoms: N_26  and  C_27
REMARK    7  A    between atoms: C_29  and  N_34
REMARK                            x       y       z     vdW  Elec       q    Type
REMARK                         _______ _______ _______ _____ _____    ______ ____
ROOT
ATOM      1  C   UNL     1       0.225   0.768   0.100  0.00  0.00    +0.311 C 
ATOM      2  O   UNL     1       0.547  -0.395   0.046  0.00  0.00    -0.251 OA
ENDROOT
BRANCH   1   8
ATOM      3  C   UNL     1       2.643   1.205  -0.228  0.00  0.00    +0.089 C 
ATOM      4  C   UNL     1       3.703   2.300  -0.364  0.00  0.00    +0.013 C 
ATOM      5  C   UNL     1       3.715   3.158   0.903  0.00  0.00    +0.001 C 
ATOM      6  C   UNL     1       2.340   3.800   1.097  0.00  0.00    +0.001 C 
ATOM      7  C   UNL     1       1.280   2.705   1.233  0.00  0.00    +0.015 C 
ATOM      8  C   UNL     1       1.268   1.847  -0.034  0.00  0.00    +0.110 C 
BRANCH   3  18
ATOM      9  C   UNL     1       4.436  -2.895  -5.035  0.00  0.00    +0.000 A 
ATOM     10  C   UNL     1       3.274  -2.146  -5.065  0.00  0.00    +0.002 A 
ATOM     11  C   UNL     1       2.953  -1.321  -4.008  0.00  0.00    +0.024 A 
ATOM     12  C   UNL     1       3.798  -1.236  -2.900  0.00  0.00    +0.039 A 
ATOM     13  C   UNL     1       4.960  -1.991  -2.879  0.00  0.00    -0.024 A 
ATOM     14  C   UNL     1       5.277  -2.816  -3.941  0.00  0.00    +0.005 A 
ATOM     15  C   UNL     1       5.688  -1.719  -1.582  0.00  0.00    +0.056 C 
ATOM     16  C   UNL     1       4.802  -0.700  -0.847  0.00  0.00    +0.118 C 
ATOM     17  N   UNL     1       3.660  -0.471  -1.737  0.00  0.00    -0.271 N 
ATOM     18  C   UNL     1       2.632   0.360  -1.476  0.00  0.00    +0.224 C 
ATOM     19  O   UNL     1       1.696   0.427  -2.245  0.00  0.00    -0.275 OA
ENDBRANCH   3  18
ENDBRANCH   1   8
BRANCH   1  20
ATOM     20  O   UNL     1      -1.065   1.100   0.274  0.00  0.00    -0.455 OA
BRANCH  20  21
ATOM     21  C   UNL     1      -2.016   0.009   0.389  0.00  0.00    +0.328 C 
BRANCH  21  22
ATOM     22  C   UNL     1      -3.402   0.569   0.578  0.00  0.00    +0.255 C 
ATOM     23  O   UNL     1      -3.571   1.770   0.613  0.00  0.00    -0.272 OA
ATOM     24  N   UNL     1      -4.453  -0.264   0.709  0.00  0.00    -0.280 N 
ATOM     25  H   UNL     1      -4.290  -1.350   0.768  0.00  0.00    +0.155 HD
BRANCH  24  26
ATOM     26  C   UNL     1      -5.753   0.254   0.770  0.00  0.00    +0.071 A 
ATOM     27  C   UNL     1      -6.034   1.496   0.218  0.00  0.00    +0.059 A 
ATOM     28  C   UNL     1      -7.317   2.003   0.279  0.00  0.00    +0.128 A 
ATOM     29  C   UNL     1      -8.323   1.276   0.890  0.00  0.00    +0.035 A 
ATOM     30  C   UNL     1      -8.048   0.038   1.441  0.00  0.00    +0.042 A 
ATOM     31  C   UNL     1      -6.767  -0.478   1.379  0.00  0.00    +0.145 A 
ATOM     32  F   UNL     1      -6.499  -1.690   1.913  0.00  0.00    -0.204 F 
BRANCH  28  33
ATOM     33  N   UNL     1      -7.617   3.328  -0.310  0.00  0.00    +0.056 N 
ATOM     34  O   UNL     1      -6.732   3.969  -0.848  0.00  0.00    -0.126 OA
ATOM     35  O   UNL     1      -8.748   3.776  -0.256  0.00  0.00    -0.126 OA
ENDBRANCH  28  33
ENDBRANCH  24  26
ENDBRANCH  21  22
ENDBRANCH  20  21
ENDBRANCH   1  20
TORSDOF 7
