REMARK  Name = ZINC51267708
REMARK  11 active torsions:
REMARK  status: ('A' for Active; 'I' for Inactive)
REMARK    1  A    between atoms: C_1  and  C_2
REMARK    2  A    between atoms: C_2  and  C_3
REMARK    3  A    between atoms: C_3  and  C_4
REMARK    4  A    between atoms: C_4  and  C_6
REMARK    5  A    between atoms: C_4  and  N_7
REMARK    6  A    between atoms: C_8  and  C_10
REMARK    7  A    between atoms: N_19  and  C_20
REMARK    8  A    between atoms: C_22  and  C_28
REMARK    9  A    between atoms: C_22  and  C_29
REMARK   10  A    between atoms: C_24  and  C_26
REMARK   11  A    between atoms: C_24  and  C_27
REMARK                            x       y       z     vdW  Elec       q    Type
REMARK                         _______ _______ _______ _____ _____    ______ ____
ROOT
ATOM      1  C   UNL     1      -2.585  -3.906   0.782  0.00  0.00    +0.092 C 
ATOM      2  C   UNL     1      -2.703  -5.231   0.026  0.00  0.00    +0.016 C 
ATOM      3  C   UNL     1      -4.099  -5.819   0.238  0.00  0.00    +0.020 C 
ATOM      4  C   UNL     1      -5.147  -4.850  -0.319  0.00  0.00    +0.109 C 
ATOM      5  N   UNL     1      -4.947  -3.532   0.299  0.00  0.00    -0.285 N 
ATOM      6  C   UNL     1      -3.615  -2.915   0.233  0.00  0.00    +0.122 C 
ATOM      7  C   UNL     1      -5.966  -2.901   0.915  0.00  0.00    +0.302 C 
ATOM      8  O   UNL     1      -5.767  -1.856   1.504  0.00  0.00    -0.253 OA
ATOM      9  N   UNL     1      -7.206  -3.427   0.878  0.00  0.00    -0.296 N 
ATOM     10  H   UNL     1      -7.352  -4.296   0.472  0.00  0.00    +0.151 HD
ENDROOT
BRANCH   9  11
ATOM     11  C   UNL     1      -8.337  -2.686   1.452  0.00  0.00    +0.072 C 
ATOM     12  C   UNL     1      -8.441  -3.006   2.944  0.00  0.00    +0.009 C 
ATOM     13  C   UNL     1      -9.622  -2.251   3.554  0.00  0.00    -0.072 C 
ATOM     14  N   UNL     1     -10.864  -2.506   2.840  0.00  0.00    +0.386 N 
ATOM     15  C   UNL     1     -10.836  -2.432   1.387  0.00  0.00    -0.072 C 
ATOM     16  C   UNL     1      -9.630  -3.134   0.773  0.00  0.00    +0.009 C 
ATOM     17  C   UNL     1     -10.905  -0.984   0.893  0.00  0.00    -0.010 C 
ATOM     18  C   UNL     1     -12.102  -3.149   0.861  0.00  0.00    -0.010 C 
ATOM     19  C   UNL     1      -9.305  -0.758   3.643  0.00  0.00    -0.010 C 
ATOM     20  C   UNL     1      -9.800  -2.769   5.000  0.00  0.00    -0.010 C 
ATOM     21  H   UNL     1     -11.204  -3.433   3.108  0.00  0.00    -0.084 HD
ATOM     22  H   UNL     1     -11.572  -1.852   3.182  0.00  0.00    -0.084 HD
ENDBRANCH   9  11
BRANCH   1  24
ATOM     23  N   UNL     1      -0.864  -2.174   1.179  0.00  0.00    -0.312 N 
ATOM     24  C   UNL     1      -1.199  -3.344   0.600  0.00  0.00    +0.218 C 
ATOM     25  O   UNL     1      -0.384  -3.944  -0.069  0.00  0.00    -0.275 OA
ATOM     26  H   UNL     1      -1.516  -1.694   1.714  0.00  0.00    +0.149 HD
BRANCH  23  27
ATOM     27  C   UNL     1       0.483  -1.627   1.002  0.00  0.00    +0.070 C 
ATOM     28  C   UNL     1       1.424  -2.242   2.039  0.00  0.00    +0.028 C 
BRANCH  27  29
ATOM     29  C   UNL     1       0.446  -0.108   1.184  0.00  0.00    +0.022 C 
BRANCH  29  31
ATOM     30  C   UNL     1      -0.433   2.037   0.252  0.00  0.00    +0.004 C 
ATOM     31  C   UNL     1      -0.396   0.518   0.070  0.00  0.00    -0.002 C 
ENDBRANCH  29  31
ENDBRANCH  27  29
ENDBRANCH  23  27
ENDBRANCH   1  24
TORSDOF 5
