REMARK  Name = ZINC04150002
REMARK  11 active torsions:
REMARK  status: ('A' for Active; 'I' for Inactive)
REMARK    1  A    between atoms: C_1  and  C_2
REMARK    2  A    between atoms: N_9  and  S_10
REMARK    3  A    between atoms: S_10  and  C_13
REMARK    4  A    between atoms: C_21  and  C_41
REMARK    5  A    between atoms: C_24  and  O_40
REMARK    6  A    between atoms: C_26  and  C_30
REMARK    7  A    between atoms: C_30  and  C_32
REMARK    8  A    between atoms: C_30  and  C_33
REMARK    9  A    between atoms: N_35  and  C_36
REMARK   10  A    between atoms: N_35  and  C_37
REMARK   11  A    between atoms: C_37  and  C_38
REMARK                            x       y       z     vdW  Elec       q    Type
REMARK                         _______ _______ _______ _____ _____    ______ ____
ROOT
ATOM      1  C   UNL     1       1.281   3.794   0.342  0.00  0.00    +0.014 C 
ATOM      2  C   UNL     1       2.530   3.281  -0.378  0.00  0.00    +0.042 C 
ATOM      3  C   UNL     1       2.705   1.795  -0.096  0.00  0.00    +0.057 A 
ATOM      4  C   UNL     1       3.938   1.284   0.147  0.00  0.00    +0.015 A 
ATOM      5  S   UNL     1       3.605  -0.438   0.402  0.00  0.00    -0.056 S 
ATOM      6  C   UNL     1       1.884  -0.358   0.173  0.00  0.00    +0.178 A 
ATOM      7  N   UNL     1       1.697   0.923  -0.070  0.00  0.00    -0.228 NA
ATOM      8  N   UNL     1       0.948  -1.379   0.233  0.00  0.00    -0.194 N 
ATOM      9  C   UNL     1       5.236   2.015   0.184  0.00  0.00    +0.051 C 
ATOM     10  C   UNL     1       5.038   3.404  -0.428  0.00  0.00    -0.022 C 
ATOM     11  C   UNL     1       3.760   4.043   0.127  0.00  0.00    +0.033 C 
ATOM     12  C   UNL     1       3.694   5.487  -0.406  0.00  0.00    +0.123 C 
ATOM     13  C   UNL     1       3.569   5.423  -1.930  0.00  0.00    +0.029 C 
ATOM     14  C   UNL     1       4.790   4.722  -2.526  0.00  0.00    +0.007 C 
ATOM     15  C   UNL     1       4.912   3.309  -1.948  0.00  0.00    +0.008 C 
ATOM     16  C   UNL     1       6.238   4.286  -0.076  0.00  0.00    +0.012 C 
ATOM     17  H   UNL     1       0.009  -1.185   0.083  0.00  0.00    +0.176 HD
ENDROOT
BRANCH   8  18
ATOM     18  S   UNL     1       1.433  -2.928   0.560  0.00  0.00    +0.074 S 
ATOM     19  O   UNL     1       0.257  -3.726   0.579  0.00  0.00    -0.150 OA
ATOM     20  O   UNL     1       2.526  -3.203  -0.305  0.00  0.00    -0.150 OA
BRANCH  18  21
ATOM     21  C   UNL     1       2.075  -2.938   2.201  0.00  0.00    +0.109 A 
ATOM     22  C   UNL     1       3.418  -2.695   2.419  0.00  0.00    +0.030 A 
ATOM     23  C   UNL     1       3.921  -2.697   3.706  0.00  0.00    +0.022 A 
ATOM     24  C   UNL     1       3.082  -2.953   4.776  0.00  0.00    +0.041 A 
ATOM     25  C   UNL     1       1.739  -3.201   4.557  0.00  0.00    +0.022 A 
ATOM     26  C   UNL     1       1.236  -3.193   3.269  0.00  0.00    +0.030 A 
ATOM     27 CL   UNL     1       3.715  -2.963   6.393  0.00  0.00    -0.084 Cl
ENDBRANCH  18  21
ENDBRANCH   8  18
BRANCH  13  28
ATOM     28  C   UNL     1       3.475   6.843  -2.492  0.00  0.00    +0.078 C 
ATOM     29  C   UNL     1       2.254   7.547  -1.897  0.00  0.00    +0.017 C 
BRANCH  28  30
ATOM     30  C   UNL     1       3.339   6.783  -3.991  0.00  0.00    +0.219 C 
ATOM     31  O   UNL     1       3.011   5.746  -4.529  0.00  0.00    -0.275 OA
ATOM     32  N   UNL     1       3.580   7.881  -4.735  0.00  0.00    -0.301 N 
ATOM     33  C   UNL     1       3.882   9.156  -4.081  0.00  0.00    +0.132 C 
BRANCH  32  34
ATOM     34  C   UNL     1       3.541   7.798  -6.197  0.00  0.00    +0.134 C 
BRANCH  34  35
ATOM     35  C   UNL     1       2.143   8.088  -6.679  0.00  0.00    -0.016 C 
ATOM     36  C   UNL     1       1.938   9.035  -7.560  0.00  0.00    +0.005 C 
ENDBRANCH  34  35
ENDBRANCH  32  34
ENDBRANCH  28  30
ENDBRANCH  13  28
BRANCH  12  37
ATOM     37  O   UNL     1       4.878   6.203  -0.051  0.00  0.00    -0.391 OA
ATOM     38  H   UNL     1       4.899   7.114  -0.376  0.00  0.00    +0.210 HD
ENDBRANCH  12  37
TORSDOF 7
