REMARK  Name = ZINC35271355
REMARK  12 active torsions:
REMARK  status: ('A' for Active; 'I' for Inactive)
REMARK    1  A    between atoms: C_1  and  O_2
REMARK    2  A    between atoms: O_2  and  C_3
REMARK    3  A    between atoms: C_5  and  C_10
REMARK    4  A    between atoms: C_8  and  O_9
REMARK    5  A    between atoms: C_11  and  O_23
REMARK    6  A    between atoms: C_15  and  O_22
REMARK    7  A    between atoms: C_17  and  O_21
REMARK    8  A    between atoms: O_23  and  C_24
REMARK    9  A    between atoms: C_26  and  O_40
REMARK   10  A    between atoms: C_28  and  O_39
REMARK   11  A    between atoms: C_30  and  O_38
REMARK   12  A    between atoms: C_32  and  C_35
REMARK                            x       y       z     vdW  Elec       q    Type
REMARK                         _______ _______ _______ _____ _____    ______ ____
ROOT
ATOM      1  C   UNL     1       2.196   0.378  -4.213  0.00  0.00    +0.181 A 
ATOM      2  C   UNL     1       2.916  -0.314  -5.140  0.00  0.00    +0.214 A 
ATOM      3  C   UNL     1       3.610   0.394  -6.155  0.00  0.00    +0.238 A 
ATOM      4  O   UNL     1       4.265  -0.192  -7.003  0.00  0.00    -0.283 OA
ATOM      5  C   UNL     1       3.511   1.862  -6.146  0.00  0.00    +0.109 A 
ATOM      6  C   UNL     1       4.164   2.640  -7.110  0.00  0.00    +0.135 A 
ATOM      7  C   UNL     1       4.046   4.017  -7.068  0.00  0.00    +0.091 A 
ATOM      8  C   UNL     1       3.283   4.623  -6.075  0.00  0.00    +0.124 A 
ATOM      9  C   UNL     1       2.635   3.859  -5.117  0.00  0.00    +0.092 A 
ATOM     10  C   UNL     1       2.741   2.477  -5.143  0.00  0.00    +0.147 A 
ATOM     11  O   UNL     1       2.111   1.719  -4.221  0.00  0.00    -0.451 OA
ENDROOT
BRANCH   1  14
ATOM     12  C   UNL     1      -0.525  -0.786  -1.902  0.00  0.00    +0.162 A 
ATOM     13  C   UNL     1       0.142  -0.080  -2.884  0.00  0.00    +0.061 A 
ATOM     14  C   UNL     1       1.479  -0.373  -3.166  0.00  0.00    +0.025 A 
ATOM     15  C   UNL     1       2.135  -1.380  -2.452  0.00  0.00    +0.015 A 
ATOM     16  C   UNL     1       1.463  -2.081  -1.474  0.00  0.00    +0.050 A 
ATOM     17  C   UNL     1       0.137  -1.786  -1.191  0.00  0.00    +0.158 A 
BRANCH  12  19
ATOM     18  C   UNL     1      -2.442   0.533  -2.393  0.00  0.00    +0.277 C 
ATOM     19  O   UNL     1      -1.826  -0.503  -1.625  0.00  0.00    -0.491 OA
ENDBRANCH  12  19
BRANCH  17  20
ATOM     20  O   UNL     1      -0.519  -2.476  -0.222  0.00  0.00    -0.503 OA
ATOM     21  H   UNL     1      -0.966  -3.272  -0.540  0.00  0.00    +0.292 HD
ENDBRANCH  17  20
ENDBRANCH   1  14
BRANCH   8  22
ATOM     22  O   UNL     1       3.174   5.976  -6.043  0.00  0.00    -0.507 OA
ATOM     23  H   UNL     1       2.429   6.322  -6.553  0.00  0.00    +0.292 HD
ENDBRANCH   8  22
BRANCH   6  24
ATOM     24  O   UNL     1       4.908   2.048  -8.079  0.00  0.00    -0.506 OA
ATOM     25  H   UNL     1       4.410   1.830  -8.879  0.00  0.00    +0.292 HD
ENDBRANCH   6  24
BRANCH   2  26
ATOM     26  O   UNL     1       2.968  -1.673  -5.093  0.00  0.00    -0.453 OA
BRANCH  26  27
ATOM     27  C   UNL     1       2.434  -2.382  -6.213  0.00  0.00    +0.340 C 
ATOM     28  C   UNL     1       2.885  -3.844  -6.154  0.00  0.00    +0.214 C 
ATOM     29  C   UNL     1       2.325  -4.492  -4.884  0.00  0.00    +0.180 C 
ATOM     30  C   UNL     1       0.799  -4.354  -4.884  0.00  0.00    +0.186 C 
ATOM     31  C   UNL     1       0.429  -2.872  -4.992  0.00  0.00    +0.266 C 
ATOM     32  O   UNL     1       1.007  -2.323  -6.178  0.00  0.00    -0.322 OA
BRANCH  31  33
ATOM     33  C   UNL     1      -1.070  -2.732  -5.051  0.00  0.00    +0.387 C 
ATOM     34  O   UNL     1      -1.751  -3.056  -4.094  0.00  0.00    -0.243 OA
ATOM     35  O   UNL     1      -1.602  -2.293  -6.057  0.00  0.00    -0.243 OA
ENDBRANCH  31  33
BRANCH  30  36
ATOM     36  O   UNL     1       0.255  -5.066  -5.997  0.00  0.00    -0.386 OA
ATOM     37  H   UNL     1      -0.709  -5.021  -6.059  0.00  0.00    +0.210 HD
ENDBRANCH  30  36
BRANCH  29  38
ATOM     38  O   UNL     1       2.681  -5.876  -4.857  0.00  0.00    -0.386 OA
ATOM     39  H   UNL     1       2.358  -6.349  -4.078  0.00  0.00    +0.210 HD
ENDBRANCH  29  38
BRANCH  28  40
ATOM     40  O   UNL     1       2.397  -4.541  -7.303  0.00  0.00    -0.383 OA
ATOM     41  H   UNL     1       2.772  -4.232  -8.139  0.00  0.00    +0.210 HD
ENDBRANCH  28  40
ENDBRANCH  26  27
ENDBRANCH   2  26
TORSDOF 11
