REMARK  Name = ZINC34699001
REMARK  11 active torsions:
REMARK  status: ('A' for Active; 'I' for Inactive)
REMARK    1  A    between atoms: C_1  and  C_2
REMARK    2  A    between atoms: C_2  and  C_3
REMARK    3  A    between atoms: C_2  and  C_4
REMARK    4  A    between atoms: C_4  and  N_5
REMARK    5  A    between atoms: N_5  and  C_6
REMARK    6  A    between atoms: C_6  and  C_7
REMARK    7  A    between atoms: N_10  and  C_20
REMARK    8  A    between atoms: C_12  and  C_14
REMARK    9  A    between atoms: C_20  and  C_21
REMARK   10  A    between atoms: C_26  and  O_27
REMARK   11  A    between atoms: C_28  and  C_30
REMARK                            x       y       z     vdW  Elec       q    Type
REMARK                         _______ _______ _______ _____ _____    ______ ____
ROOT
ATOM      1  C   UNL     1       4.581  -1.220  -2.743  0.00  0.00    -0.005 C 
ATOM      2  C   UNL     1       5.330   0.130  -2.711  0.00  0.00    -0.073 C 
ATOM      3  N   UNL     1       6.479  -0.100  -1.798  0.00  0.00    +0.383 N 
ATOM      4  C   UNL     1       6.939  -1.473  -2.130  0.00  0.00    -0.070 C 
ATOM      5  C   UNL     1       5.639  -2.276  -2.362  0.00  0.00    +0.005 C 
ATOM      6  H   UNL     1       6.180  -0.052  -0.835  0.00  0.00    -0.081 HD
ENDROOT
BRANCH   5   7
ATOM      7  C   UNL     1       5.823  -3.261  -3.487  0.00  0.00    -0.046 A 
ATOM      8  C   UNL     1       6.247  -2.822  -4.727  0.00  0.00    +0.004 A 
ATOM      9  C   UNL     1       6.416  -3.726  -5.760  0.00  0.00    +0.000 A 
ATOM     10  C   UNL     1       6.162  -5.069  -5.551  0.00  0.00    +0.000 A 
ATOM     11  C   UNL     1       5.740  -5.508  -4.311  0.00  0.00    +0.000 A 
ATOM     12  C   UNL     1       5.575  -4.605  -3.277  0.00  0.00    +0.004 A 
ENDBRANCH   5   7
BRANCH   1  13
ATOM     13  C   UNL     1       3.440  -1.218  -1.723  0.00  0.00    +0.110 C 
BRANCH  13  14
ATOM     14  N   UNL     1       2.407  -0.271  -2.148  0.00  0.00    -0.297 N 
ATOM     15  C   UNL     1       2.466   1.015  -1.746  0.00  0.00    +0.249 C 
ATOM     16  O   UNL     1       3.315   1.364  -0.949  0.00  0.00    -0.270 OA
BRANCH  15  17
ATOM     17  C   UNL     1       1.500   1.998  -2.275  0.00  0.00    +0.072 A 
ATOM     18  C   UNL     1       0.131   1.720  -2.251  0.00  0.00    +0.016 A 
ATOM     19  C   UNL     1      -0.766   2.643  -2.745  0.00  0.00    +0.001 A 
ATOM     20  C   UNL     1      -0.315   3.844  -3.266  0.00  0.00    +0.003 A 
ATOM     21  C   UNL     1       1.038   4.128  -3.295  0.00  0.00    +0.039 A 
ATOM     22  C   UNL     1       1.950   3.215  -2.797  0.00  0.00    +0.135 A 
ATOM     23  F   UNL     1       3.271   3.495  -2.820  0.00  0.00    -0.205 F 
ENDBRANCH  15  17
BRANCH  14  24
ATOM     24  C   UNL     1       1.310  -0.720  -3.009  0.00  0.00    +0.111 C 
BRANCH  24  26
ATOM     25  C   UNL     1       0.208  -1.815  -1.052  0.00  0.00    +0.009 C 
ATOM     26  C   UNL     1       0.743  -2.034  -2.469  0.00  0.00    +0.000 C 
ATOM     27  C   UNL     1      -0.393  -2.510  -3.376  0.00  0.00    +0.009 C 
ENDBRANCH  24  26
ENDBRANCH  14  24
ENDBRANCH  13  14
ENDBRANCH   1  13
BRANCH   3  28
ATOM     28  C   UNL     1       7.545   0.876  -2.057  0.00  0.00    -0.039 C 
BRANCH  28  29
ATOM     29  C   UNL     1       8.644   0.702  -1.040  0.00  0.00    -0.022 A 
ATOM     30  C   UNL     1       8.717   1.545   0.051  0.00  0.00    +0.005 A 
ATOM     31  C   UNL     1       9.725   1.386   0.984  0.00  0.00    +0.000 A 
ATOM     32  C   UNL     1      10.663   0.382   0.826  0.00  0.00    +0.004 A 
ATOM     33  C   UNL     1      10.594  -0.465  -0.263  0.00  0.00    +0.045 A 
ATOM     34  C   UNL     1       9.580  -0.310  -1.197  0.00  0.00    +0.118 A 
BRANCH  34  35
ATOM     35  O   UNL     1       9.507  -1.145  -2.267  0.00  0.00    -0.507 OA
ATOM     36  H   UNL     1      10.001  -0.838  -3.040  0.00  0.00    +0.292 HD
ENDBRANCH  34  35
ENDBRANCH  28  29
ENDBRANCH   3  28
TORSDOF 9
