REMARK  Name = ZINC40485353
REMARK  9 active torsions:
REMARK  status: ('A' for Active; 'I' for Inactive)
REMARK    1  A    between atoms: C_1  and  C_2
REMARK    2  A    between atoms: C_5  and  C_8
REMARK    3  A    between atoms: C_9  and  O_32
REMARK    4  A    between atoms: N_12  and  C_24
REMARK    5  A    between atoms: C_13  and  C_15
REMARK    6  A    between atoms: C_18  and  C_21
REMARK    7  A    between atoms: C_21  and  C_22
REMARK    8  A    between atoms: C_21  and  C_23
REMARK    9  A    between atoms: C_24  and  C_25
REMARK                            x       y       z     vdW  Elec       q    Type
REMARK                         _______ _______ _______ _____ _____    ______ ____
ROOT
ATOM      1  C   UNL     1       0.132  -4.220  -0.075  0.00  0.00    +0.031 C 
ATOM      2  C   UNL     1       1.140  -5.032  -0.463  0.00  0.00    +0.185 C 
ATOM      3  C   UNL     1       0.746  -6.429  -0.261  0.00  0.00    +0.282 C 
ATOM      4  O   UNL     1       1.442  -7.393  -0.517  0.00  0.00    -0.267 OA
ATOM      5  N   UNL     1      -0.498  -6.491   0.248  0.00  0.00    -0.279 N 
ATOM      6  C   UNL     1      -0.983  -5.115   0.413  0.00  0.00    +0.142 C 
ENDROOT
BRANCH   1  11
ATOM      7  C   UNL     1       0.101   1.526  -0.228  0.00  0.00    +0.044 C 
ATOM      8  C   UNL     1       0.109   0.020  -0.188  0.00  0.00    -0.050 A 
ATOM      9  C   UNL     1       0.166  -0.700  -1.369  0.00  0.00    +0.004 A 
ATOM     10  C   UNL     1       0.174  -2.079  -1.340  0.00  0.00    +0.008 A 
ATOM     11  C   UNL     1       0.125  -2.749  -0.114  0.00  0.00    -0.016 A 
ATOM     12  C   UNL     1       0.068  -2.015   1.075  0.00  0.00    +0.008 A 
ATOM     13  C   UNL     1       0.066  -0.636   1.030  0.00  0.00    +0.004 A 
ENDBRANCH   1  11
BRANCH   6  14
ATOM     14  C   UNL     1      -1.276  -4.835   1.865  0.00  0.00    -0.022 A 
ATOM     15  C   UNL     1      -0.396  -5.261   2.842  0.00  0.00    +0.006 A 
ATOM     16  C   UNL     1      -0.665  -5.004   4.174  0.00  0.00    +0.004 A 
ATOM     17  C   UNL     1      -1.813  -4.322   4.528  0.00  0.00    -0.045 A 
ATOM     18  C   UNL     1      -2.693  -3.895   3.550  0.00  0.00    +0.004 A 
ATOM     19  C   UNL     1      -2.422  -4.148   2.219  0.00  0.00    +0.006 A 
BRANCH  17  20
ATOM     20  C   UNL     1      -2.107  -4.042   5.979  0.00  0.00    +0.013 C 
ATOM     21  C   UNL     1      -2.199  -2.531   6.200  0.00  0.00    +0.012 C 
ATOM     22  C   UNL     1      -3.435  -4.696   6.366  0.00  0.00    +0.012 C 
ENDBRANCH  17  20
ENDBRANCH   6  14
BRANCH   2  23
ATOM     23  O   UNL     1       2.334  -4.618  -0.963  0.00  0.00    -0.502 OA
ATOM     24  H   UNL     1       2.937  -5.339  -1.189  0.00  0.00    +0.292 HD
ENDBRANCH   2  23
BRANCH   5  25
ATOM     25  C   UNL     1      -1.234  -7.713   0.584  0.00  0.00    +0.145 C 
BRANCH  25  26
ATOM     26  C   UNL     1      -2.144  -8.080  -0.559  0.00  0.00    -0.012 A 
ATOM     27  C   UNL     1      -3.473  -7.699  -0.535  0.00  0.00    +0.006 A 
ATOM     28  C   UNL     1      -4.308  -8.036  -1.583  0.00  0.00    +0.000 A 
ATOM     29  C   UNL     1      -3.816  -8.755  -2.657  0.00  0.00    +0.001 A 
ATOM     30  C   UNL     1      -2.488  -9.136  -2.682  0.00  0.00    +0.020 A 
ATOM     31  C   UNL     1      -1.650  -8.794  -1.636  0.00  0.00    +0.046 A 
ATOM     32 CL   UNL     1       0.020  -9.268  -1.670  0.00  0.00    -0.083 Cl
ENDBRANCH  25  26
ENDBRANCH   5  25
TORSDOF 6
