REMARK  Name = ZINC59719854
REMARK  12 active torsions:
REMARK  status: ('A' for Active; 'I' for Inactive)
REMARK    1  A    between atoms: C_1  and  C_2
REMARK    2  A    between atoms: C_2  and  O_3
REMARK    3  A    between atoms: O_3  and  C_4
REMARK    4  A    between atoms: C_4  and  C_6
REMARK    5  A    between atoms: N_8  and  C_31
REMARK    6  A    between atoms: C_9  and  C_14
REMARK    7  A    between atoms: N_12  and  C_13
REMARK    8  A    between atoms: C_18  and  O_29
REMARK    9  A    between atoms: C_19  and  O_20
REMARK   10  A    between atoms: O_20  and  C_21
REMARK   11  A    between atoms: C_21  and  C_22
REMARK   12  A    between atoms: O_29  and  C_30
REMARK                            x       y       z     vdW  Elec       q    Type
REMARK                         _______ _______ _______ _____ _____    ______ ____
ROOT
ATOM      1  C   UNL     1       1.739  -1.765  -3.245  0.00  0.00    +0.238 C 
ATOM      2  N   UNL     1       2.157  -1.209  -4.351  0.00  0.00    -0.154 NA
ATOM      3  N   UNL     1       2.709  -2.018  -5.361  0.00  0.00    -0.199 N 
ATOM      4  C   UNL     1       2.487  -3.471  -5.284  0.00  0.00    +0.215 C 
ATOM      5  N   UNL     1       2.669  -3.880  -3.878  0.00  0.00    -0.213 NA
ATOM      6  N   UNL     1       1.838  -3.152  -3.071  0.00  0.00    -0.245 N 
ATOM      7  C   UNL     1       1.052  -3.822  -2.033  0.00  0.00    +0.152 C 
ATOM      8  H   UNL     1       2.510  -4.870  -3.766  0.00  0.00    +0.147 HD
ENDROOT
BRANCH   3   9
ATOM      9  C   UNL     1       3.446  -1.459  -6.406  0.00  0.00    +0.054 A 
ATOM     10  C   UNL     1       3.978  -2.275  -7.397  0.00  0.00    +0.026 A 
ATOM     11  C   UNL     1       4.706  -1.718  -8.430  0.00  0.00    +0.022 A 
ATOM     12  C   UNL     1       4.907  -0.350  -8.478  0.00  0.00    +0.041 A 
ATOM     13  C   UNL     1       4.378   0.465  -7.492  0.00  0.00    +0.022 A 
ATOM     14  C   UNL     1       3.643  -0.084  -6.461  0.00  0.00    +0.026 A 
ATOM     15 CL   UNL     1       5.824   0.346  -9.778  0.00  0.00    -0.084 Cl
ENDBRANCH   3   9
BRANCH   4  16
ATOM     16  C   UNL     1       1.087  -3.798  -5.735  0.00  0.00    +0.036 A 
ATOM     17  C   UNL     1       0.094  -2.839  -5.660  0.00  0.00    +0.011 A 
ATOM     18  C   UNL     1      -1.191  -3.136  -6.072  0.00  0.00    +0.004 A 
ATOM     19  C   UNL     1      -1.490  -4.394  -6.562  0.00  0.00    +0.049 A 
ATOM     20  C   UNL     1      -0.500  -5.360  -6.640  0.00  0.00    +0.162 A 
ATOM     21  C   UNL     1       0.796  -5.059  -6.230  0.00  0.00    +0.169 A 
BRANCH  20  22
ATOM     22  O   UNL     1      -0.793  -6.598  -7.121  0.00  0.00    -0.491 OA
ATOM     23  C   UNL     1      -2.142  -6.833  -7.529  0.00  0.00    +0.277 C 
ENDBRANCH  20  22
BRANCH  21  24
ATOM     24  O   UNL     1       1.772  -6.002  -6.310  0.00  0.00    -0.483 OA
BRANCH  24  25
ATOM     25  C   UNL     1       1.883  -6.915  -5.217  0.00  0.00    +0.264 C 
BRANCH  25  26
ATOM     26  C   UNL     1       3.090  -7.795  -5.417  0.00  0.00    -0.010 A 
ATOM     27  C   UNL     1       2.970  -8.987  -6.106  0.00  0.00    +0.010 A 
ATOM     28  C   UNL     1       4.077  -9.793  -6.291  0.00  0.00    +0.039 A 
ATOM     29  C   UNL     1       5.306  -9.408  -5.785  0.00  0.00    +0.123 A 
ATOM     30  C   UNL     1       5.426  -8.213  -5.095  0.00  0.00    +0.039 A 
ATOM     31  C   UNL     1       4.319  -7.405  -4.916  0.00  0.00    +0.010 A 
ATOM     32  F   UNL     1       6.389 -10.196  -5.965  0.00  0.00    -0.205 F 
ENDBRANCH  25  26
ENDBRANCH  24  25
ENDBRANCH  21  24
ENDBRANCH   4  16
BRANCH   1  33
ATOM     33  C   UNL     1       1.169  -0.934  -2.179  0.00  0.00    +0.375 C 
ATOM     34  O   UNL     1       0.711  -1.455  -1.180  0.00  0.00    -0.242 OA
BRANCH  33  35
ATOM     35  O   UNL     1       1.152   0.409  -2.306  0.00  0.00    -0.459 OA
BRANCH  35  37
ATOM     36  C   UNL     1       0.652   2.650  -1.553  0.00  0.00    +0.048 C 
ATOM     37  C   UNL     1       0.582   1.156  -1.230  0.00  0.00    +0.229 C 
ENDBRANCH  35  37
ENDBRANCH  33  35
ENDBRANCH   1  33
TORSDOF 9
