REMARK  Name = ZINC60156321
REMARK  12 active torsions:
REMARK  status: ('A' for Active; 'I' for Inactive)
REMARK    1  A    between atoms: C_1  and  C_2
REMARK    2  A    between atoms: C_2  and  O_3
REMARK    3  A    between atoms: O_3  and  C_4
REMARK    4  A    between atoms: C_4  and  C_6
REMARK    5  A    between atoms: C_9  and  S_11
REMARK    6  A    between atoms: S_11  and  N_14
REMARK    7  A    between atoms: C_17  and  C_20
REMARK    8  A    between atoms: N_22  and  C_23
REMARK    9  A    between atoms: C_23  and  C_24
REMARK   10  A    between atoms: C_24  and  C_26
REMARK   11  A    between atoms: C_24  and  N_27
REMARK   12  A    between atoms: C_30  and  C_33
REMARK                            x       y       z     vdW  Elec       q    Type
REMARK                         _______ _______ _______ _____ _____    ______ ____
ROOT
ATOM      1  N   UNL     1       2.161  -2.654  -7.937  0.00  0.00    -0.174 NA
ATOM      2  C   UNL     1       1.628  -3.617  -8.910  0.00  0.00    +0.110 C 
ATOM      3  C   UNL     1       0.110  -3.715  -8.727  0.00  0.00    +0.030 C 
ATOM      4  C   UNL     1      -0.503  -2.316  -8.827  0.00  0.00    +0.077 C 
ATOM      5  C   UNL     1       0.062  -1.429  -7.715  0.00  0.00    +0.030 C 
ATOM      6  C   UNL     1       1.575  -1.307  -7.883  0.00  0.00    +0.110 C 
ENDROOT
BRANCH   4   7
ATOM      7  C   UNL     1      -1.999  -2.412  -8.681  0.00  0.00    +0.216 C 
ATOM      8  O   UNL     1      -2.524  -3.492  -8.514  0.00  0.00    -0.276 OA
ATOM      9  N   UNL     1      -2.755  -1.297  -8.738  0.00  0.00    -0.317 N 
ATOM     10  H   UNL     1      -2.335  -0.433  -8.871  0.00  0.00    +0.149 HD
BRANCH   9  11
ATOM     11  C   UNL     1      -4.210  -1.390  -8.596  0.00  0.00    +0.088 C 
BRANCH  11  12
ATOM     12  C   UNL     1      -4.834  -0.013  -8.829  0.00  0.00    -0.054 C 
ATOM     13  C   UNL     1      -6.359  -0.128  -8.772  0.00  0.00    -0.012 C 
BRANCH  12  14
ATOM     14  N   UNL     1      -4.430   0.491 -10.149  0.00  0.00    +0.382 N 
ATOM     15  C   UNL     1      -4.997  -0.370 -11.194  0.00  0.00    -0.078 C 
ATOM     16  C   UNL     1      -4.513   0.102 -12.566  0.00  0.00    -0.016 C 
ATOM     17  C   UNL     1      -4.966   1.547 -12.792  0.00  0.00    -0.018 C 
ATOM     18  C   UNL     1      -4.431   2.423 -11.655  0.00  0.00    -0.016 C 
ATOM     19  C   UNL     1      -4.918   1.865 -10.316  0.00  0.00    -0.078 C 
ATOM     20  C   UNL     1      -4.418   2.052 -14.129  0.00  0.00    +0.007 C 
ATOM     21  H   UNL     1      -3.424   0.482 -10.217  0.00  0.00    -0.081 HD
ENDBRANCH  12  14
ENDBRANCH  11  12
ENDBRANCH   9  11
ENDBRANCH   4   7
BRANCH   1  22
ATOM     22  S   UNL     1       3.393  -3.079  -6.916  0.00  0.00    +0.094 S 
ATOM     23  O   UNL     1       4.035  -1.872  -6.529  0.00  0.00    -0.150 OA
ATOM     24  O   UNL     1       4.091  -4.146  -7.544  0.00  0.00    -0.150 OA
BRANCH  22  28
ATOM     25  C   UNL     1       1.776  -3.885  -3.457  0.00  0.00    +0.214 A 
ATOM     26  C   UNL     1       1.788  -5.148  -3.979  0.00  0.00    +0.059 A 
ATOM     27  C   UNL     1       2.353  -5.049  -5.259  0.00  0.00    +0.072 A 
ATOM     28  C   UNL     1       2.657  -3.748  -5.461  0.00  0.00    +0.259 A 
ATOM     29  O   UNL     1       2.303  -3.049  -4.375  0.00  0.00    -0.430 OA
BRANCH  25  30
ATOM     30  C   UNL     1       1.272  -3.505  -2.135  0.00  0.00    +0.375 C 
ATOM     31  O   UNL     1       0.817  -4.353  -1.391  0.00  0.00    -0.241 OA
BRANCH  30  32
ATOM     32  O   UNL     1       1.313  -2.215  -1.743  0.00  0.00    -0.459 OA
BRANCH  32  34
ATOM     33  C   UNL     1       0.934  -0.415  -0.175  0.00  0.00    +0.048 C 
ATOM     34  C   UNL     1       0.805  -1.916  -0.441  0.00  0.00    +0.229 C 
ENDBRANCH  32  34
ENDBRANCH  30  32
ENDBRANCH  25  30
ENDBRANCH  22  28
ENDBRANCH   1  22
TORSDOF 9
