REMARK  Name = ZINC50829292
REMARK  4 active torsions:
REMARK  status: ('A' for Active; 'I' for Inactive)
REMARK    1  A    between atoms: C_3  and  N_18
REMARK    2  A    between atoms: C_4  and  N_15
REMARK    3  A    between atoms: C_6  and  C_7
REMARK    4  A    between atoms: C_7  and  N_8
REMARK                            x       y       z     vdW  Elec       q    Type
REMARK                         _______ _______ _______ _____ _____    ______ ____
ROOT
ATOM      1  C   UNL     1       0.005   1.371  -0.252  0.00  0.00    +0.007 A 
ATOM      2  C   UNL     1       1.205   2.053  -0.311  0.00  0.00    +0.025 A 
ATOM      3  C   UNL     1       2.396   1.381  -0.064  0.00  0.00    +0.055 A 
ATOM      4  C   UNL     1       2.375   0.026   0.242  0.00  0.00    +0.147 A 
ATOM      5  C   UNL     1       1.172  -0.648   0.299  0.00  0.00    +0.039 A 
ATOM      6  C   UNL     1      -0.012   0.023   0.053  0.00  0.00    -0.028 A 
ENDROOT
BRANCH   4   7
ATOM      7  N   UNL     1       3.641  -0.693   0.505  0.00  0.00    +0.058 N 
ATOM      8  O   UNL     1       3.782  -1.830   0.121  0.00  0.00    -0.126 OA
ATOM      9  O   UNL     1       4.536  -0.143   1.105  0.00  0.00    -0.126 OA
ENDBRANCH   4   7
BRANCH   3  10
ATOM     10  N   UNL     1       3.611   2.067  -0.124  0.00  0.00    -0.356 N 
ATOM     11  H   UNL     1       3.619   3.032  -0.227  0.00  0.00    +0.142 HD
ATOM     12  H   UNL     1       4.447   1.579  -0.063  0.00  0.00    +0.142 HD
ENDBRANCH   3  10
BRANCH   6  13
ATOM     13  C   UNL     1      -1.323  -0.717   0.117  0.00  0.00    +0.143 C 
BRANCH  13  14
ATOM     14  N   UNL     1      -1.642  -1.262  -1.205  0.00  0.00    -0.297 N 
ATOM     15  C   UNL     1      -2.412  -0.429  -2.120  0.00  0.00    +0.108 C 
ATOM     16  C   UNL     1      -2.251  -0.922  -3.558  0.00  0.00    +0.019 C 
ATOM     17  C   UNL     1      -2.533  -2.429  -3.595  0.00  0.00    +0.011 C 
ATOM     18  C   UNL     1      -1.421  -3.149  -2.829  0.00  0.00    +0.096 C 
ATOM     19  C   UNL     1      -1.204  -2.487  -1.498  0.00  0.00    +0.216 C 
ATOM     20  O   UNL     1      -0.603  -3.102  -0.643  0.00  0.00    -0.276 OA
ENDBRANCH  13  14
ENDBRANCH   6  13
TORSDOF 4
