REMARK  Name = ZINC04380219
REMARK  3 active torsions:
REMARK  status: ('A' for Active; 'I' for Inactive)
REMARK    1  A    between atoms: C_10  and  N_11
REMARK    2  A    between atoms: N_16  and  N_17
REMARK    3  A    between atoms: C_18  and  C_19
REMARK                            x       y       z     vdW  Elec       q    Type
REMARK                         _______ _______ _______ _____ _____    ______ ____
ROOT
ATOM      1  N   UNL     1       3.588   3.260   0.019  0.00  0.00    -0.179 N 
ATOM      2  C   UNL     1       4.822   3.828  -0.087  0.00  0.00    +0.259 A 
ATOM      3  N   UNL     1       5.699   2.848  -0.043  0.00  0.00    -0.090 NA
ATOM      4  N   UNL     1       5.106   1.717   0.082  0.00  0.00    -0.021 NA
ATOM      5  N   UNL     1       3.828   1.879   0.132  0.00  0.00    -0.038 NA
ATOM      6  N   UNL     1       5.099   5.176  -0.216  0.00  0.00    -0.204 N 
ATOM      7  H   UNL     1       4.381   5.826  -0.167  0.00  0.00    +0.177 HD
ENDROOT
BRANCH   1  17
ATOM      8  C   UNL     1      -0.756   2.640  -2.480  0.00  0.00    +0.001 A 
ATOM      9  C   UNL     1       0.468   1.975  -2.493  0.00  0.00    +0.001 A 
ATOM     10  C   UNL     1       1.491   2.374  -1.688  0.00  0.00    +0.010 A 
ATOM     11  C   UNL     1       1.312   3.468  -0.827  0.00  0.00    +0.008 A 
ATOM     12  C   UNL     1       0.066   4.141  -0.808  0.00  0.00    -0.016 A 
ATOM     13  C   UNL     1      -0.968   3.700  -1.653  0.00  0.00    +0.008 A 
ATOM     14  C   UNL     1      -0.116   5.237   0.052  0.00  0.00    +0.008 A 
ATOM     15  C   UNL     1       0.903   5.643   0.860  0.00  0.00    +0.003 A 
ATOM     16  C   UNL     1       2.131   4.989   0.850  0.00  0.00    +0.028 A 
ATOM     17  C   UNL     1       2.349   3.910   0.021  0.00  0.00    +0.078 A 
ENDBRANCH   1  17
BRANCH   6  18
ATOM     18  N   UNL     1       6.418   5.604  -0.420  0.00  0.00    -0.187 NA
ATOM     19  C   UNL     1       6.679   6.874  -0.542  0.00  0.00    +0.139 C 
BRANCH  19  20
ATOM     20  C   UNL     1       8.057   7.321  -0.755  0.00  0.00    +0.010 A 
ATOM     21  C   UNL     1       8.367   8.697  -0.773  0.00  0.00    -0.009 A 
ATOM     22  C   UNL     1       7.369   9.668  -0.578  0.00  0.00    +0.009 A 
ATOM     23  C   UNL     1       7.701  10.986  -0.595  0.00  0.00    +0.001 A 
ATOM     24  C   UNL     1       9.014  11.407  -0.798  0.00  0.00    +0.001 A 
ATOM     25  C   UNL     1      10.025  10.520  -0.988  0.00  0.00    +0.008 A 
ATOM     26  C   UNL     1       9.748   9.136  -0.981  0.00  0.00    -0.017 A 
ATOM     27  C   UNL     1      10.764   8.199  -1.174  0.00  0.00    +0.017 A 
ATOM     28  C   UNL     1      10.466   6.836  -1.163  0.00  0.00    -0.017 A 
ATOM     29  C   UNL     1       9.090   6.381  -0.950  0.00  0.00    -0.009 A 
ATOM     30  C   UNL     1       8.826   5.000  -0.945  0.00  0.00    +0.009 A 
ATOM     31  C   UNL     1       9.845   4.120  -1.135  0.00  0.00    +0.001 A 
ATOM     32  C   UNL     1      11.155   4.551  -1.338  0.00  0.00    +0.001 A 
ATOM     33  C   UNL     1      11.477   5.870  -1.355  0.00  0.00    +0.008 A 
ENDBRANCH  19  20
ENDBRANCH   6  18
TORSDOF 3
