REMARK  Name = ZINC33097125
REMARK  11 active torsions:
REMARK  status: ('A' for Active; 'I' for Inactive)
REMARK    1  A    between atoms: C_1  and  C_2
REMARK    2  A    between atoms: C_2  and  O_3
REMARK    3  A    between atoms: O_3  and  C_4
REMARK    4  A    between atoms: C_6  and  C_11
REMARK    5  A    between atoms: C_9  and  O_10
REMARK    6  A    between atoms: C_18  and  C_37
REMARK    7  A    between atoms: C_19  and  C_34
REMARK    8  A    between atoms: C_20  and  C_22
REMARK    9  A    between atoms: C_31  and  O_32
REMARK   10  A    between atoms: O_32  and  C_33
REMARK   11  A    between atoms: C_34  and  C_36
REMARK                            x       y       z     vdW  Elec       q    Type
REMARK                         _______ _______ _______ _____ _____    ______ ____
ROOT
ATOM      1  C   UNL     1       4.673   5.915   4.911  0.00  0.00    +0.028 C 
ATOM      2  C   UNL     1       4.463   6.071   3.578  0.00  0.00    +0.081 A 
ATOM      3  C   UNL     1       3.443   5.460   2.715  0.00  0.00    +0.268 A 
ATOM      4  O   UNL     1       2.614   4.686   3.157  0.00  0.00    -0.266 OA
ATOM      5  N   UNL     1       3.469   5.797   1.418  0.00  0.00    -0.275 N 
ATOM      6  C   UNL     1       4.432   6.676   0.986  0.00  0.00    +0.178 A 
ATOM      7  N   UNL     1       4.554   7.077  -0.259  0.00  0.00    -0.228 NA
ATOM      8  C   UNL     1       3.776   6.694  -1.258  0.00  0.00    +0.050 C 
ATOM      9  C   UNL     1       2.738   5.807  -1.037  0.00  0.00    +0.043 C 
ATOM     10  C   UNL     1       2.533   5.299   0.371  0.00  0.00    +0.162 C 
ATOM     11  C   UNL     1       4.021   7.229  -2.646  0.00  0.00    +0.066 C 
ATOM     12  S   UNL     1       5.352   7.072   2.399  0.00  0.00    -0.046 S 
ENDROOT
BRANCH  10  13
ATOM     13  C   UNL     1       2.630   3.795   0.341  0.00  0.00    +0.029 A 
ATOM     14  C   UNL     1       3.851   3.173   0.034  0.00  0.00    -0.009 A 
ATOM     15  C   UNL     1       5.003   3.927  -0.249  0.00  0.00    +0.009 A 
ATOM     16  C   UNL     1       6.170   3.291  -0.542  0.00  0.00    +0.001 A 
ATOM     17  C   UNL     1       6.242   1.899  -0.561  0.00  0.00    +0.001 A 
ATOM     18  C   UNL     1       5.146   1.136  -0.298  0.00  0.00    +0.008 A 
ATOM     19  C   UNL     1       3.924   1.758   0.009  0.00  0.00    -0.017 A 
ATOM     20  C   UNL     1       2.773   1.001   0.292  0.00  0.00    +0.012 A 
ATOM     21  C   UNL     1       1.606   1.634   0.586  0.00  0.00    +0.046 A 
ATOM     22  C   UNL     1       1.531   3.030   0.611  0.00  0.00    +0.126 A 
BRANCH  22  23
ATOM     23  O   UNL     1       0.351   3.634   0.908  0.00  0.00    -0.495 OA
ATOM     24  C   UNL     1      -0.763   2.781   1.181  0.00  0.00    +0.277 C 
ENDBRANCH  22  23
ENDBRANCH  10  13
BRANCH   1  27
ATOM     25  C   UNL     1       6.914   7.427   7.510  0.00  0.00    +0.162 A 
ATOM     26  C   UNL     1       5.815   6.839   6.917  0.00  0.00    +0.057 A 
ATOM     27  C   UNL     1       5.838   6.541   5.548  0.00  0.00    -0.020 A 
ATOM     28  C   UNL     1       6.979   6.836   4.792  0.00  0.00    +0.012 A 
ATOM     29  C   UNL     1       8.069   7.427   5.392  0.00  0.00    +0.050 A 
ATOM     30  C   UNL     1       8.044   7.722   6.748  0.00  0.00    +0.158 A 
BRANCH  30  31
ATOM     31  O   UNL     1       9.124   8.300   7.335  0.00  0.00    -0.503 OA
ATOM     32  H   UNL     1      10.017   8.534   6.736  0.00  0.00    +0.292 HD
ENDBRANCH  30  31
BRANCH  25  33
ATOM     33  O   UNL     1       6.895   7.718   8.839  0.00  0.00    -0.489 OA
BRANCH  33  35
ATOM     34  C   UNL     1       5.870   7.786  11.026  0.00  0.00    +0.048 C 
ATOM     35  C   UNL     1       5.705   7.388   9.558  0.00  0.00    +0.226 C 
ENDBRANCH  33  35
ENDBRANCH  25  33
ENDBRANCH   1  27
BRANCH   9  36
ATOM     36  C   UNL     1       1.910   5.394  -2.079  0.00  0.00    +0.160 C 
ATOM     37  O   UNL     1       2.175   5.702  -3.226  0.00  0.00    -0.293 OA
ATOM     38  C   UNL     1       0.686   4.566  -1.785  0.00  0.00    +0.091 C 
ENDBRANCH   9  36
TORSDOF 7
