REMARK  Name = ZINC46642810
REMARK  12 active torsions:
REMARK  status: ('A' for Active; 'I' for Inactive)
REMARK    1  A    between atoms: C_1  and  C_2
REMARK    2  A    between atoms: C_2  and  N_3
REMARK    3  A    between atoms: N_3  and  C_4
REMARK    4  A    between atoms: N_3  and  S_6
REMARK    5  A    between atoms: C_4  and  C_5
REMARK    6  A    between atoms: S_6  and  C_9
REMARK    7  A    between atoms: C_11  and  C_33
REMARK    8  A    between atoms: C_12  and  C_32
REMARK    9  A    between atoms: C_13  and  N_15
REMARK   10  A    between atoms: C_16  and  C_18
REMARK   11  A    between atoms: C_21  and  S_23
REMARK   12  A    between atoms: S_23  and  N_26
REMARK                            x       y       z     vdW  Elec       q    Type
REMARK                         _______ _______ _______ _____ _____    ______ ____
ROOT
ATOM      1  N   UNL     1       1.454   2.323  -6.225  0.00  0.00    -0.279 N 
ATOM      2  C   UNL     1       2.184   1.332  -6.775  0.00  0.00    +0.284 C 
ATOM      3  O   UNL     1       1.946   0.172  -6.494  0.00  0.00    -0.266 OA
ATOM      4  H   UNL     1       1.590   3.240  -6.509  0.00  0.00    +0.155 HD
ENDROOT
BRANCH   1   9
ATOM      5  C   UNL     1      -0.314   0.591  -3.507  0.00  0.00    +0.107 A 
ATOM      6  C   UNL     1      -1.383   1.445  -3.305  0.00  0.00    +0.032 A 
ATOM      7  C   UNL     1      -1.512   2.589  -4.070  0.00  0.00    -0.044 A 
ATOM      8  C   UNL     1      -0.573   2.883  -5.040  0.00  0.00    -0.026 A 
ATOM      9  C   UNL     1       0.502   2.028  -5.245  0.00  0.00    +0.039 A 
ATOM     10  C   UNL     1       0.631   0.882  -4.471  0.00  0.00    +0.052 A 
ATOM     11  C   UNL     1      -0.715   4.130  -5.874  0.00  0.00    +0.046 C 
ATOM     12  C   UNL     1      -2.679   3.516  -3.847  0.00  0.00    +0.044 C 
BRANCH   5  13
ATOM     13  S   UNL     1      -0.155  -0.866  -2.530  0.00  0.00    +0.061 S 
ATOM     14  O   UNL     1       0.639  -1.775  -3.281  0.00  0.00    -0.153 OA
ATOM     15  O   UNL     1      -1.460  -1.193  -2.072  0.00  0.00    -0.153 OA
BRANCH  13  16
ATOM     16  N   UNL     1       0.730  -0.462  -1.189  0.00  0.00    -0.177 NA
BRANCH  16  18
ATOM     17  C   UNL     1       0.028   1.543   0.023  0.00  0.00    +0.022 C 
ATOM     18  C   UNL     1       0.052   0.013   0.020  0.00  0.00    +0.106 C 
ENDBRANCH  16  18
BRANCH  16  19
ATOM     19  C   UNL     1       2.190  -0.579  -1.212  0.00  0.00    +0.106 C 
ATOM     20  C   UNL     1       2.602  -1.931  -0.626  0.00  0.00    +0.022 C 
ENDBRANCH  16  19
ENDBRANCH  13  16
ENDBRANCH   5  13
ENDBRANCH   1   9
BRANCH   2  21
ATOM     21  C   UNL     1       3.265   1.652  -7.713  0.00  0.00    +0.192 A 
ATOM     22  C   UNL     1       4.073   0.749  -8.343  0.00  0.00    +0.057 A 
ATOM     23  C   UNL     1       4.958   1.490  -9.142  0.00  0.00    +0.072 A 
ATOM     24  C   UNL     1       4.656   2.795  -8.967  0.00  0.00    +0.259 A 
ATOM     25  O   UNL     1       3.631   2.888  -8.109  0.00  0.00    -0.432 OA
BRANCH  24  26
ATOM     26  S   UNL     1       5.470   4.151  -9.744  0.00  0.00    +0.094 S 
ATOM     27  O   UNL     1       5.258   5.283  -8.911  0.00  0.00    -0.150 OA
ATOM     28  O   UNL     1       6.770   3.696 -10.095  0.00  0.00    -0.150 OA
BRANCH  26  29
ATOM     29  N   UNL     1       4.673   4.452 -11.164  0.00  0.00    -0.174 NA
ATOM     30  C   UNL     1       5.077   3.778 -12.406  0.00  0.00    +0.109 C 
ATOM     31  C   UNL     1       3.849   3.097 -13.018  0.00  0.00    +0.017 C 
ATOM     32  C   UNL     1       2.733   4.129 -13.197  0.00  0.00    +0.003 C 
ATOM     33  C   UNL     1       2.340   4.698 -11.832  0.00  0.00    +0.017 C 
ATOM     34  C   UNL     1       3.546   5.393 -11.205  0.00  0.00    +0.109 C 
ENDBRANCH  26  29
ENDBRANCH  24  26
ENDBRANCH   2  21
TORSDOF 8
