REMARK  Name = ZINC09559497
REMARK  4 active torsions:
REMARK  status: ('A' for Active; 'I' for Inactive)
REMARK    1  A    between atoms: C_10  and  N_12
REMARK    2  A    between atoms: C_13  and  C_15
REMARK    3  A    between atoms: N_20  and  S_22
REMARK    4  A    between atoms: S_22  and  C_25
REMARK                            x       y       z     vdW  Elec       q    Type
REMARK                         _______ _______ _______ _____ _____    ______ ____
ROOT
ATOM      1  C   UNL     1      -2.420   1.336   2.974  0.00  0.00    +0.091 C 
ATOM      2  C   UNL     1      -2.998   2.732   2.731  0.00  0.00    +0.015 C 
ATOM      3  C   UNL     1      -3.676   3.234   4.008  0.00  0.00    +0.018 C 
ATOM      4  C   UNL     1      -4.826   2.291   4.377  0.00  0.00    +0.109 C 
ATOM      5  N   UNL     1      -4.302   0.921   4.471  0.00  0.00    -0.175 NA
ATOM      6  C   UNL     1      -3.555   0.371   3.331  0.00  0.00    +0.122 C 
ENDROOT
BRANCH   1   8
ATOM      7  N   UNL     1      -0.688   1.553   1.221  0.00  0.00    -0.308 N 
ATOM      8  C   UNL     1      -1.725   0.856   1.726  0.00  0.00    +0.218 C 
ATOM      9  O   UNL     1      -2.099  -0.159   1.177  0.00  0.00    -0.275 OA
ATOM     10  H   UNL     1      -0.389   2.364   1.661  0.00  0.00    +0.149 HD
BRANCH   7  20
ATOM     11  C   UNL     1      -2.263   2.448  -3.365  0.00  0.00    +0.000 A 
ATOM     12  C   UNL     1      -2.900   1.948  -2.244  0.00  0.00    +0.000 A 
ATOM     13  C   UNL     1      -2.153   1.516  -1.167  0.00  0.00    +0.006 A 
ATOM     14  C   UNL     1      -0.765   1.579  -1.200  0.00  0.00    -0.024 A 
ATOM     15  C   UNL     1      -0.132   2.080  -2.315  0.00  0.00    -0.042 A 
ATOM     16  C   UNL     1      -0.885   2.512  -3.398  0.00  0.00    +0.004 A 
ATOM     17  C   UNL     1       1.368   2.184  -2.417  0.00  0.00    +0.035 C 
ATOM     18  C   UNL     1       2.040   1.297  -1.371  0.00  0.00    +0.007 C 
ATOM     19  C   UNL     1       1.422   1.609  -0.003  0.00  0.00    +0.027 C 
ATOM     20  C   UNL     1      -0.013   1.086   0.008  0.00  0.00    +0.103 C 
ENDBRANCH   7  20
ENDBRANCH   1   8
BRANCH   5  21
ATOM     21  S   UNL     1      -4.549   0.015   5.834  0.00  0.00    +0.067 S 
ATOM     22  O   UNL     1      -5.705   0.544   6.470  0.00  0.00    -0.152 OA
ATOM     23  O   UNL     1      -4.452  -1.347   5.440  0.00  0.00    -0.152 OA
BRANCH  21  24
ATOM     24  C   UNL     1      -3.193   0.323   6.917  0.00  0.00    +0.144 A 
ATOM     25  C   UNL     1      -3.066   1.272   7.877  0.00  0.00    +0.037 A 
ATOM     26  C   UNL     1      -1.898   1.328   8.614  0.00  0.00    +0.025 A 
ATOM     27  C   UNL     1      -0.914   0.431   8.355  0.00  0.00    +0.057 A 
ATOM     28  S   UNL     1      -1.634  -0.538   7.040  0.00  0.00    -0.062 S 
ATOM     29 BR   UNL     1       0.779   0.250   9.178  0.00  0.00    -0.043 Br
ENDBRANCH  21  24
ENDBRANCH   5  21
TORSDOF 4
