REMARK  Name = ZINC35799379
REMARK  15 active torsions:
REMARK  status: ('A' for Active; 'I' for Inactive)
REMARK    1  A    between atoms: C_1  and  C_2
REMARK    2  A    between atoms: C_2  and  C_3
REMARK    3  A    between atoms: C_6  and  N_9
REMARK    4  A    between atoms: N_12  and  C_13
REMARK    5  A    between atoms: N_12  and  C_35
REMARK    6  A    between atoms: C_13  and  C_14
REMARK    7  A    between atoms: N_16  and  C_17
REMARK    8  A    between atoms: N_16  and  C_29
REMARK    9  A    between atoms: C_17  and  C_18
REMARK   10  A    between atoms: C_18  and  C_19
REMARK   11  A    between atoms: C_22  and  O_27
REMARK   12  A    between atoms: C_23  and  O_25
REMARK   13  A    between atoms: O_25  and  C_26
REMARK   14  A    between atoms: O_27  and  C_28
REMARK   15  A    between atoms: C_29  and  C_30
REMARK                            x       y       z     vdW  Elec       q    Type
REMARK                         _______ _______ _______ _____ _____    ______ ____
ROOT
ATOM      1  C   UNL     1       6.430  -3.906  -5.564  0.00  0.00    +0.233 C 
ATOM      2  O   UNL     1       5.542  -4.716  -5.404  0.00  0.00    -0.274 OA
ATOM      3  N   UNL     1       7.718  -4.301  -5.519  0.00  0.00    -0.295 N 
ENDROOT
BRANCH   1   4
ATOM      4  C   UNL     1       6.094  -2.458  -5.811  0.00  0.00    +0.205 C 
BRANCH   4   8
ATOM      5  N   UNL     1       2.645  -1.967  -4.642  0.00  0.00    -0.269 N 
ATOM      6  C   UNL     1       3.992  -2.007  -4.664  0.00  0.00    +0.307 C 
ATOM      7  O   UNL     1       4.624  -1.792  -3.648  0.00  0.00    -0.252 OA
ATOM      8  N   UNL     1       4.639  -2.288  -5.813  0.00  0.00    -0.274 N 
ATOM      9  H   UNL     1       2.138  -2.264  -5.414  0.00  0.00    +0.156 HD
BRANCH   5  13
ATOM     10  C   UNL     1       0.658  -0.565  -1.259  0.00  0.00    -0.048 A 
ATOM     11  C   UNL     1       0.123  -0.343  -2.515  0.00  0.00    +0.005 A 
ATOM     12  C   UNL     1       0.779  -0.807  -3.639  0.00  0.00    +0.023 A 
ATOM     13  C   UNL     1       1.978  -1.496  -3.506  0.00  0.00    +0.035 A 
ATOM     14  C   UNL     1       2.513  -1.716  -2.244  0.00  0.00    +0.023 A 
ATOM     15  C   UNL     1       1.854  -1.245  -1.125  0.00  0.00    +0.005 A 
BRANCH  10  17
ATOM     16  C   UNL     1       0.416   1.360   0.285  0.00  0.00    +0.009 C 
ATOM     17  C   UNL     1      -0.061  -0.058  -0.036  0.00  0.00    +0.032 C 
ENDBRANCH  10  17
ENDBRANCH   5  13
BRANCH   8  18
ATOM     18  C   UNL     1       3.887  -2.422  -7.063  0.00  0.00    +0.078 C 
ATOM     19  C   UNL     1       4.654  -2.890  -8.302  0.00  0.00    +0.024 C 
ATOM     20  C   UNL     1       4.203  -1.432  -8.187  0.00  0.00    +0.024 C 
ENDBRANCH   8  18
ENDBRANCH   4   8
ENDBRANCH   1   4
BRANCH   3  21
ATOM     21  C   UNL     1       8.045  -5.708  -5.279  0.00  0.00    +0.113 C 
BRANCH  21  22
ATOM     22  C   UNL     1       8.131  -6.448  -6.615  0.00  0.00    +0.054 C 
BRANCH  22  23
ATOM     23  C   UNL     1       8.467  -7.896  -6.367  0.00  0.00    -0.042 A 
ATOM     24  C   UNL     1       9.789  -8.298  -6.316  0.00  0.00    +0.007 A 
ATOM     25  C   UNL     1      10.102  -9.626  -6.090  0.00  0.00    +0.049 A 
ATOM     26  C   UNL     1       9.090 -10.556  -5.912  0.00  0.00    +0.161 A 
ATOM     27  C   UNL     1       7.760 -10.151  -5.963  0.00  0.00    +0.162 A 
ATOM     28  C   UNL     1       7.453  -8.818  -6.186  0.00  0.00    +0.053 A 
BRANCH  27  29
ATOM     29  O   UNL     1       6.764 -11.060  -5.789  0.00  0.00    -0.491 OA
ATOM     30  C   UNL     1       5.422 -10.572  -5.854  0.00  0.00    +0.277 C 
ENDBRANCH  27  29
BRANCH  26  31
ATOM     31  O   UNL     1       9.397 -11.862  -5.689  0.00  0.00    -0.491 OA
ATOM     32  C   UNL     1      10.784 -12.205  -5.650  0.00  0.00    +0.277 C 
ENDBRANCH  26  31
ENDBRANCH  22  23
ENDBRANCH  21  22
ENDBRANCH   3  21
BRANCH   3  33
ATOM     33  C   UNL     1       8.791  -3.322  -5.712  0.00  0.00    +0.150 C 
BRANCH  33  34
ATOM     34  C   UNL     1       9.187  -2.741  -4.379  0.00  0.00    +0.007 A 
ATOM     35  C   UNL     1      10.130  -3.171  -3.506  0.00  0.00    +0.013 A 
ATOM     36  C   UNL     1      10.323  -2.472  -2.329  0.00  0.00    +0.008 A 
ATOM     37  C   UNL     1       9.563  -1.378  -2.083  0.00  0.00    +0.045 A 
ATOM     38  S   UNL     1       8.538  -1.303  -3.542  0.00  0.00    -0.100 S 
ENDBRANCH  33  34
ENDBRANCH   3  33
TORSDOF 12
