REMARK  Name = ZINC09817326
REMARK  8 active torsions:
REMARK  status: ('A' for Active; 'I' for Inactive)
REMARK    1  A    between atoms: C_1  and  C_2
REMARK    2  A    between atoms: C_3  and  N_14
REMARK    3  A    between atoms: C_4  and  C_13
REMARK    4  A    between atoms: N_5  and  C_7
REMARK    5  A    between atoms: C_15  and  C_17
REMARK    6  A    between atoms: C_17  and  O_18
REMARK    7  A    between atoms: O_18  and  C_19
REMARK    8  A    between atoms: C_19  and  C_21
REMARK                            x       y       z     vdW  Elec       q    Type
REMARK                         _______ _______ _______ _____ _____    ______ ____
ROOT
ATOM      1  N   UNL     1       1.818   6.948   0.857  0.00  0.00    -0.280 N 
ATOM      2  C   UNL     1       0.944   7.971   0.783  0.00  0.00    +0.255 C 
ATOM      3  O   UNL     1      -0.192   7.773   0.407  0.00  0.00    -0.272 OA
ATOM      4  H   UNL     1       2.707   7.094   1.216  0.00  0.00    +0.155 HD
ENDROOT
BRANCH   1   7
ATOM      5  C   UNL     1       1.401   6.170  -2.131  0.00  0.00    +0.069 C 
ATOM      6  C   UNL     1       1.245   5.281  -0.923  0.00  0.00    +0.082 A 
ATOM      7  C   UNL     1       1.441   5.667   0.411  0.00  0.00    +0.078 A 
ATOM      8  C   UNL     1       1.198   4.587   1.197  0.00  0.00    +0.063 A 
ATOM      9  N   UNL     1       0.867   3.551   0.379  0.00  0.00    -0.235 N 
ATOM     10  N   UNL     1       0.902   4.018  -0.941  0.00  0.00    -0.170 NA
ATOM     11  C   UNL     1       1.281   4.543   2.701  0.00  0.00    +0.068 C 
BRANCH   9  12
ATOM     12  C   UNL     1       0.544   2.250   0.785  0.00  0.00    +0.066 A 
ATOM     13  C   UNL     1      -0.415   1.523   0.093  0.00  0.00    +0.028 A 
ATOM     14  C   UNL     1      -0.732   0.240   0.496  0.00  0.00    +0.002 A 
ATOM     15  C   UNL     1      -0.094  -0.321   1.587  0.00  0.00    +0.000 A 
ATOM     16  C   UNL     1       0.862   0.401   2.279  0.00  0.00    +0.002 A 
ATOM     17  C   UNL     1       1.182   1.684   1.881  0.00  0.00    +0.028 A 
ENDBRANCH   9  12
ENDBRANCH   1   7
BRANCH   2  18
ATOM     18  C   UNL     1       1.378   9.362   1.169  0.00  0.00    +0.328 C 
BRANCH  18  19
ATOM     19  O   UNL     1       0.282  10.265   1.008  0.00  0.00    -0.451 OA
BRANCH  19  20
ATOM     20  C   UNL     1       0.505  11.560   1.313  0.00  0.00    +0.346 C 
ATOM     21  O   UNL     1       1.601  11.912   1.706  0.00  0.00    -0.244 OA
BRANCH  20  22
ATOM     22  C   UNL     1      -0.571  12.540   1.171  0.00  0.00    +0.097 A 
ATOM     23  C   UNL     1      -0.547  13.905   1.430  0.00  0.00    +0.030 A 
ATOM     24  C   UNL     1      -1.677  14.651   1.230  0.00  0.00    +0.005 A 
ATOM     25  C   UNL     1      -2.804  13.956   0.762  0.00  0.00    +0.030 A 
ATOM     26  S   UNL     1      -2.252  12.291   0.614  0.00  0.00    -0.081 S 
ATOM     27  C   UNL     1      -4.074  14.618   0.497  0.00  0.00    +0.031 A 
ATOM     28  C   UNL     1      -5.272  13.951   0.291  0.00  0.00    +0.012 A 
ATOM     29  C   UNL     1      -6.427  14.673   0.064  0.00  0.00    +0.001 A 
ATOM     30  C   UNL     1      -6.388  16.057   0.042  0.00  0.00    +0.004 A 
ATOM     31  C   UNL     1      -5.199  16.733   0.239  0.00  0.00    +0.046 A 
ATOM     32  C   UNL     1      -4.029  16.030   0.460  0.00  0.00    +0.129 A 
ATOM     33  O   UNL     1      -2.844  16.665   0.613  0.00  0.00    -0.487 OA
ATOM     34  C   UNL     1      -1.829  16.149   1.472  0.00  0.00    +0.265 C 
ENDBRANCH  20  22
ENDBRANCH  19  20
ENDBRANCH  18  19
ENDBRANCH   2  18
TORSDOF 6
