REMARK  Name = ZINC39776855
REMARK  9 active torsions:
REMARK  status: ('A' for Active; 'I' for Inactive)
REMARK    1  A    between atoms: C_1  and  C_2
REMARK    2  A    between atoms: C_2  and  C_4
REMARK    3  A    between atoms: C_2  and  S_16
REMARK    4  A    between atoms: N_6  and  C_7
REMARK    5  A    between atoms: N_6  and  C_8
REMARK    6  A    between atoms: C_8  and  C_14
REMARK    7  A    between atoms: S_16  and  C_17
REMARK    8  A    between atoms: C_21  and  C_26
REMARK    9  A    between atoms: N_22  and  C_23
REMARK                            x       y       z     vdW  Elec       q    Type
REMARK                         _______ _______ _______ _____ _____    ______ ____
ROOT
ATOM      1  C   UNL     1      -2.317  -0.109  -1.299  0.00  0.00    +0.238 C 
ATOM      2  N   UNL     1      -1.687  -0.891  -2.375  0.00  0.00    -0.237 N 
ATOM      3  N   UNL     1      -1.367   0.017  -3.391  0.00  0.00    -0.169 NA
ATOM      4  C   UNL     1      -1.719   1.233  -3.069  0.00  0.00    +0.147 C 
ATOM      5  N   UNL     1      -2.315   1.274  -1.803  0.00  0.00    -0.282 N 
ATOM      6  H   UNL     1      -1.526  -1.848  -2.380  0.00  0.00    +0.171 HD
ENDROOT
BRANCH   4   7
ATOM      7  C   UNL     1      -1.524   2.356  -3.888  0.00  0.00    +0.022 C 
ATOM      8  C   UNL     1      -0.901   2.393  -5.136  0.00  0.00    +0.006 A 
ATOM      9  C   UNL     1      -0.304   1.393  -5.932  0.00  0.00    +0.010 A 
ATOM     10  C   UNL     1       0.238   1.723  -7.133  0.00  0.00    +0.001 A 
ATOM     11  C   UNL     1       0.220   3.036  -7.607  0.00  0.00    +0.002 A 
ATOM     12  C   UNL     1      -0.336   4.046  -6.895  0.00  0.00    +0.026 A 
ATOM     13  C   UNL     1      -0.922   3.779  -5.631  0.00  0.00    +0.043 A 
ATOM     14  N   UNL     1      -1.517   4.571  -4.760  0.00  0.00    -0.380 N 
ATOM     15  C   UNL     1      -1.953   3.779  -3.605  0.00  0.00    +0.152 C 
ATOM     16  H   UNL     1      -1.649   5.525  -4.868  0.00  0.00    +0.160 HD
ENDBRANCH   4   7
BRANCH   5  17
ATOM     17  C   UNL     1      -2.834   2.458  -1.113  0.00  0.00    +0.078 C 
ATOM     18  C   UNL     1      -3.391   2.266   0.299  0.00  0.00    +0.024 C 
ATOM     19  C   UNL     1      -4.343   2.529  -0.870  0.00  0.00    +0.024 C 
ENDBRANCH   5  17
BRANCH   1  20
ATOM     20  S   UNL     1      -1.343  -0.230   0.227  0.00  0.00    -0.106 S 
BRANCH  20  22
ATOM     21  C   UNL     1       0.514   1.573  -0.657  0.00  0.00    +0.029 C 
ATOM     22  C   UNL     1       0.359   0.091  -0.313  0.00  0.00    +0.133 C 
BRANCH  22  23
ATOM     23  C   UNL     1       1.314  -0.270   0.796  0.00  0.00    +0.229 C 
ATOM     24  O   UNL     1       0.915  -0.349   1.938  0.00  0.00    -0.274 OA
ATOM     25  N   UNL     1       2.612  -0.505   0.517  0.00  0.00    -0.285 N 
ATOM     26  C   UNL     1       3.094  -0.409  -0.863  0.00  0.00    +0.133 C 
BRANCH  25  27
ATOM     27  C   UNL     1       3.540  -0.855   1.595  0.00  0.00    +0.124 C 
ATOM     28  C   UNL     1       3.581   0.278   2.622  0.00  0.00    +0.041 C 
ATOM     29  C   UNL     1       4.551  -0.088   3.747  0.00  0.00    +0.003 C 
ATOM     30  C   UNL     1       5.950  -0.300   3.166  0.00  0.00    +0.000 C 
ATOM     31  C   UNL     1       5.909  -1.434   2.139  0.00  0.00    +0.003 C 
ATOM     32  C   UNL     1       4.939  -1.068   1.014  0.00  0.00    +0.041 C 
BRANCH  27  33
ATOM     33  C   UNL     1       3.087  -2.094   2.249  0.00  0.00    +0.089 C 
ATOM     34  N   UNL     1       2.738  -3.049   2.754  0.00  0.00    -0.194 NA
ENDBRANCH  27  33
ENDBRANCH  25  27
ENDBRANCH  22  23
ENDBRANCH  20  22
ENDBRANCH   1  20
TORSDOF 7
