REMARK  Name = ZINC12881028
REMARK  3 active torsions:
REMARK  status: ('A' for Active; 'I' for Inactive)
REMARK    1  A    between atoms: C_1  and  C_2
REMARK    2  A    between atoms: C_22  and  C_29
REMARK    3  A    between atoms: C_29  and  C_31
REMARK                            x       y       z     vdW  Elec       q    Type
REMARK                         _______ _______ _______ _____ _____    ______ ____
ROOT
ATOM      1  C   UNL     1       4.251  -2.905   0.015  0.00  0.00    +0.044 C 
ATOM      2  C   UNL     1       3.510  -1.592   0.036  0.00  0.00    -0.050 A 
ATOM      3  C   UNL     1       4.212  -0.401   0.062  0.00  0.00    +0.005 A 
ATOM      4  C   UNL     1       3.540   0.803   0.082  0.00  0.00    +0.024 A 
ATOM      5  C   UNL     1       2.147   0.828   0.075  0.00  0.00    +0.036 A 
ATOM      6  C   UNL     1       1.452  -0.377   0.049  0.00  0.00    -0.026 A 
ATOM      7  C   UNL     1       2.127  -1.577   0.030  0.00  0.00    +0.008 A 
ATOM      8  C   UNL     1      -0.009  -0.014   0.048  0.00  0.00    +0.060 C 
ATOM      9  C   UNL     1      -0.029   1.494   0.075  0.00  0.00    +0.212 C 
ATOM     10  O   UNL     1      -1.012   2.204   0.076  0.00  0.00    -0.277 OA
ATOM     11  N   UNL     1       1.254   1.900   0.090  0.00  0.00    -0.286 N 
ATOM     12  C   UNL     1      -0.716  -0.551  -1.193  0.00  0.00    +0.085 C 
ATOM     13  C   UNL     1      -0.799   0.468  -2.290  0.00  0.00    -0.011 A 
ATOM     14  C   UNL     1      -1.331   1.735  -2.374  0.00  0.00    +0.006 A 
ATOM     15  C   UNL     1      -1.246   2.446  -3.558  0.00  0.00    +0.000 A 
ATOM     16  C   UNL     1      -0.625   1.881  -4.657  0.00  0.00    +0.002 A 
ATOM     17  C   UNL     1      -0.092   0.612  -4.579  0.00  0.00    +0.023 A 
ATOM     18  C   UNL     1      -0.173  -0.111  -3.391  0.00  0.00    +0.038 A 
ATOM     19  N   UNL     1       0.284  -1.392  -3.069  0.00  0.00    -0.285 N 
ATOM     20  C   UNL     1       0.004  -1.725  -1.794  0.00  0.00    +0.228 C 
ATOM     21  O   UNL     1       0.279  -2.768  -1.240  0.00  0.00    -0.275 OA
ATOM     22  C   UNL     1      -2.114  -0.953  -0.683  0.00  0.00    +0.066 C 
ATOM     23  C   UNL     1      -1.791  -1.450   0.749  0.00  0.00    -0.055 C 
ATOM     24  C   UNL     1      -1.384   0.537   1.980  0.00  0.00    -0.076 C 
ATOM     25  C   UNL     1      -2.556  -0.178   2.696  0.00  0.00    -0.020 C 
ATOM     26  C   UNL     1      -3.013  -1.221   1.651  0.00  0.00    -0.016 C 
ATOM     27  H   UNL     1       1.526   2.831   0.109  0.00  0.00    +0.155 HD
ATOM     28  H   UNL     1       0.749  -1.973  -3.692  0.00  0.00    +0.155 HD
ATOM     29  N   UNL     1      -0.739  -0.562   1.223  0.00  0.00    +0.395 N 
ATOM     30  H   UNL     1      -0.087  -1.072   1.830  0.00  0.00    -0.079 HD
ENDROOT
BRANCH  22  31
ATOM     31  C   UNL     1      -3.038   0.237  -0.646  0.00  0.00    +0.166 C 
ATOM     32  O   UNL     1      -3.161   0.878   0.377  0.00  0.00    -0.292 OA
BRANCH  31  33
ATOM     33  C   UNL     1      -3.789   0.621  -1.847  0.00  0.00    +0.021 A 
ATOM     34  C   UNL     1      -3.645  -0.114  -3.031  0.00  0.00    +0.015 A 
ATOM     35  C   UNL     1      -4.355   0.245  -4.154  0.00  0.00    +0.050 A 
ATOM     36  C   UNL     1      -5.207   1.342  -4.123  0.00  0.00    +0.166 A 
ATOM     37  C   UNL     1      -5.353   2.082  -2.948  0.00  0.00    +0.167 A 
ATOM     38  C   UNL     1      -4.649   1.726  -1.816  0.00  0.00    +0.061 A 
ATOM     39  O   UNL     1      -6.237   3.096  -3.180  0.00  0.00    -0.453 OA
ATOM     40  C   UNL     1      -6.318   3.215  -4.612  0.00  0.00    +0.466 C 
ATOM     41  O   UNL     1      -6.001   1.893  -5.085  0.00  0.00    -0.453 OA
ENDBRANCH  31  33
ENDBRANCH  22  31
TORSDOF 2
