REMARK  Name = ZINC16569859
REMARK  10 active torsions:
REMARK  status: ('A' for Active; 'I' for Inactive)
REMARK    1  A    between atoms: C_1  and  C_2
REMARK    2  A    between atoms: C_2  and  C_3
REMARK    3  A    between atoms: C_3  and  C_4
REMARK    4  A    between atoms: C_4  and  N_5
REMARK    5  A    between atoms: N_5  and  C_6
REMARK    6  A    between atoms: C_6  and  C_7
REMARK    7  A    between atoms: C_21  and  C_23
REMARK    8  A    between atoms: C_26  and  C_29
REMARK    9  A    between atoms: N_32  and  C_33
REMARK   10  A    between atoms: C_33  and  C_34
REMARK                            x       y       z     vdW  Elec       q    Type
REMARK                         _______ _______ _______ _____ _____    ______ ____
ROOT
ATOM      1  C   UNL     1       2.847   0.949  -1.441  0.00  0.00    +0.238 C 
ATOM      2  O   UNL     1       2.113   1.265  -2.353  0.00  0.00    -0.273 OA
ATOM      3  N   UNL     1       4.047   0.394  -1.703  0.00  0.00    -0.255 N 
ATOM      4  C   UNL     1       4.486   0.270  -3.028  0.00  0.00    +0.061 A 
ATOM      5  C   UNL     1       3.573   0.124  -4.062  0.00  0.00    +0.025 A 
ATOM      6  C   UNL     1       4.019   0.012  -5.365  0.00  0.00    +0.002 A 
ATOM      7  C   UNL     1       5.373   0.046  -5.647  0.00  0.00    +0.002 A 
ATOM      8  C   UNL     1       6.293   0.187  -4.623  0.00  0.00    +0.028 A 
ATOM      9  C   UNL     1       5.854   0.294  -3.318  0.00  0.00    +0.068 A 
ATOM     10  N   UNL     1       6.748   0.414  -2.244  0.00  0.00    -0.316 N 
ATOM     11  C   UNL     1       8.074   0.691  -2.238  0.00  0.00    +0.092 A 
ATOM     12  C   UNL     1       8.495   0.707  -0.954  0.00  0.00    +0.020 A 
ATOM     13  C   UNL     1       7.379   0.425  -0.136  0.00  0.00    +0.025 A 
ATOM     14  C   UNL     1       6.327   0.248  -0.942  0.00  0.00    +0.049 A 
ATOM     15  C   UNL     1       4.897  -0.075  -0.597  0.00  0.00    +0.159 C 
ENDROOT
BRANCH  15  16
ATOM     16  C   UNL     1       4.742  -1.564  -0.429  0.00  0.00    -0.021 A 
ATOM     17  C   UNL     1       4.646  -2.379  -1.541  0.00  0.00    +0.006 A 
ATOM     18  C   UNL     1       4.509  -3.746  -1.387  0.00  0.00    +0.004 A 
ATOM     19  C   UNL     1       4.456  -4.297  -0.121  0.00  0.00    -0.050 A 
ATOM     20  C   UNL     1       4.547  -3.482   0.992  0.00  0.00    +0.004 A 
ATOM     21  C   UNL     1       4.690  -2.115   0.838  0.00  0.00    +0.006 A 
ATOM     22  C   UNL     1       4.300  -5.786   0.047  0.00  0.00    +0.044 C 
ENDBRANCH  15  16
BRANCH   1  23
ATOM     23  C   UNL     1       2.417   1.176  -0.014  0.00  0.00    +0.205 C 
BRANCH  23  24
ATOM     24  N   UNL     1       1.139   1.892   0.003  0.00  0.00    -0.277 N 
ATOM     25  C   UNL     1      -0.019   1.204   0.001  0.00  0.00    +0.303 C 
ATOM     26  O   UNL     1      -0.004  -0.012  -0.016  0.00  0.00    -0.253 OA
ATOM     27  N   UNL     1      -1.195   1.863   0.011  0.00  0.00    -0.295 N 
ATOM     28  H   UNL     1      -1.207   2.833   0.023  0.00  0.00    +0.151 HD
BRANCH  24  29
ATOM     29  C   UNL     1       1.121   3.357   0.022  0.00  0.00    +0.110 C 
BRANCH  29  30
ATOM     30  C   UNL     1       1.123   3.848   1.471  0.00  0.00    +0.019 C 
BRANCH  30  32
ATOM     31  C   UNL     1       1.106   5.869   2.940  0.00  0.00    +0.004 C 
ATOM     32  C   UNL     1       1.104   5.378   1.491  0.00  0.00    -0.002 C 
ENDBRANCH  30  32
ENDBRANCH  29  30
ENDBRANCH  24  29
BRANCH  27  33
ATOM     33  C   UNL     1      -2.454   1.115   0.002  0.00  0.00    +0.141 C 
BRANCH  33  34
ATOM     34  C   UNL     1      -3.612   2.079   0.016  0.00  0.00    -0.030 A 
ATOM     35  C   UNL     1      -4.145   2.502   1.220  0.00  0.00    +0.005 A 
ATOM     36  C   UNL     1      -5.204   3.390   1.233  0.00  0.00    +0.000 A 
ATOM     37  C   UNL     1      -5.736   3.849   0.042  0.00  0.00    +0.000 A 
ATOM     38  C   UNL     1      -5.206   3.423  -1.161  0.00  0.00    +0.000 A 
ATOM     39  C   UNL     1      -4.144   2.538  -1.174  0.00  0.00    +0.005 A 
ENDBRANCH  33  34
ENDBRANCH  27  33
ENDBRANCH  23  24
ENDBRANCH   1  23
TORSDOF 8
