REMARK  Name = ZINC03871104
REMARK  5 active torsions:
REMARK  status: ('A' for Active; 'I' for Inactive)
REMARK    1  A    between atoms: N_9  and  C_10
REMARK    2  A    between atoms: C_13  and  O_22
REMARK    3  A    between atoms: C_15  and  C_18
REMARK    4  A    between atoms: C_18  and  O_19
REMARK    5  A    between atoms: O_19  and  P_20
REMARK                            x       y       z     vdW  Elec       q    Type
REMARK                         _______ _______ _______ _____ _____    ______ ____
ROOT
ATOM      1  C   UNL     1       1.805   2.468  -2.204  0.00  0.00    +0.226 C 
ATOM      2  C   UNL     1       2.033   1.260  -1.275  0.00  0.00    +0.088 C 
ATOM      3  C   UNL     1       1.260   1.623   0.016  0.00  0.00    +0.150 C 
ATOM      4  C   UNL     1       1.146   3.164  -0.096  0.00  0.00    +0.175 C 
ATOM      5  O   UNL     1       0.944   3.385  -1.509  0.00  0.00    -0.348 OA
ENDROOT
BRANCH   1  14
ATOM      6  C   UNL     1       3.417   4.285  -1.874  0.00  0.00    +0.113 A 
ATOM      7  C   UNL     1       4.599   4.878  -2.145  0.00  0.00    +0.098 A 
ATOM      8  C   UNL     1       5.470   4.279  -3.088  0.00  0.00    +0.268 A 
ATOM      9  O   UNL     1       6.539   4.798  -3.354  0.00  0.00    -0.267 OA
ATOM     10  N   UNL     1       5.104   3.129  -3.690  0.00  0.00    -0.274 N 
ATOM     11  H   UNL     1       5.713   2.700  -4.357  0.00  0.00    +0.173 HD
ATOM     12  C   UNL     1       3.921   2.557  -3.397  0.00  0.00    +0.331 A 
ATOM     13  O   UNL     1       3.605   1.520  -3.947  0.00  0.00    -0.246 OA
ATOM     14  N   UNL     1       3.085   3.115  -2.503  0.00  0.00    -0.273 N 
ATOM     15 BR   UNL     1       5.083   6.490  -1.283  0.00  0.00    -0.043 Br
ENDBRANCH   1  14
BRANCH   3  16
ATOM     16  O   UNL     1      -0.034   1.015   0.024  0.00  0.00    -0.389 OA
ATOM     17  H   UNL     1      -0.014   0.049   0.047  0.00  0.00    +0.210 HD
ENDBRANCH   3  16
BRANCH   4  18
ATOM     18  C   UNL     1      -0.052   3.676   0.707  0.00  0.00    +0.206 C 
BRANCH  18  19
ATOM     19  O   UNL     1      -0.067   5.104   0.684  0.00  0.00    -0.281 OA
BRANCH  19  20
ATOM     20  P   UNL     1      -1.192   5.982   1.428  0.00  0.00    +0.532 P 
ATOM     21  O   UNL     1      -2.533   5.559   0.967  0.00  0.00    -0.222 OA
ATOM     22  O   UNL     1      -1.078   5.764   3.019  0.00  0.00    -0.115 OA
ATOM     23  O   UNL     1      -0.973   7.540   1.083  0.00  0.00    -0.115 OA
ENDBRANCH  19  20
ENDBRANCH  18  19
ENDBRANCH   4  18
TORSDOF 5
