REMARK  Name = ZINC03441289
REMARK  6 active torsions:
REMARK  status: ('A' for Active; 'I' for Inactive)
REMARK    1  A    between atoms: C_1  and  C_2
REMARK    2  A    between atoms: C_8  and  C_10
REMARK    3  A    between atoms: C_10  and  S_11
REMARK    4  A    between atoms: S_11  and  C_12
REMARK    5  A    between atoms: N_24  and  C_25
REMARK    6  A    between atoms: C_25  and  C_26
REMARK                            x       y       z     vdW  Elec       q    Type
REMARK                         _______ _______ _______ _____ _____    ______ ____
ROOT
ATOM      1  C   UNL     1      -4.479  -5.603   2.697  0.00  0.00    +0.173 A 
ATOM      2  N   UNL     1      -5.054  -5.043   1.651  0.00  0.00    -0.216 NA
ATOM      3  C   UNL     1      -6.303  -5.350   1.319  0.00  0.00    +0.117 A 
ATOM      4  C   UNL     1      -7.064  -6.272   2.052  0.00  0.00    +0.076 A 
ATOM      5  C   UNL     1      -8.433  -6.512   1.564  0.00  0.00    -0.023 A 
ATOM      6  C   UNL     1      -8.816  -5.831   0.472  0.00  0.00    -0.004 A 
ATOM      7  S   UNL     1      -7.408  -4.840   0.029  0.00  0.00    -0.073 S 
ATOM      8  C   UNL     1     -10.228  -6.159   0.065  0.00  0.00    +0.043 C 
ATOM      9  C   UNL     1     -10.549  -7.475   0.806  0.00  0.00    +0.010 C 
ATOM     10  C   UNL     1      -9.601  -7.392   2.018  0.00  0.00    +0.037 C 
ATOM     11  C   UNL     1      -6.416  -6.864   3.181  0.00  0.00    +0.263 A 
ATOM     12  O   UNL     1      -7.003  -7.676   3.876  0.00  0.00    -0.267 OA
ATOM     13  N   UNL     1      -5.147  -6.514   3.461  0.00  0.00    -0.285 N 
ENDROOT
BRANCH   1  14
ATOM     14  S   UNL     1      -2.821  -5.173   3.109  0.00  0.00    -0.078 S 
BRANCH  14  15
ATOM     15  C   UNL     1      -2.469  -3.980   1.794  0.00  0.00    +0.173 C 
BRANCH  15  23
ATOM     16  C   UNL     1      -0.019   1.526   0.010  0.00  0.00    +0.007 C 
ATOM     17  C   UNL     1       0.002  -0.004   0.002  0.00  0.00    -0.011 C 
ATOM     18  C   UNL     1      -1.434  -0.533   0.011  0.00  0.00    +0.022 C 
ATOM     19  C   UNL     1      -1.409  -2.065  -0.032  0.00  0.00    +0.108 C 
ATOM     20  N   UNL     1      -0.578  -2.556   1.075  0.00  0.00    -0.301 N 
ATOM     21  C   UNL     1       0.791  -2.042   1.212  0.00  0.00    +0.108 C 
ATOM     22  C   UNL     1       0.742  -0.511   1.242  0.00  0.00    +0.022 C 
ATOM     23  C   UNL     1      -1.062  -3.462   1.948  0.00  0.00    +0.226 C 
ATOM     24  O   UNL     1      -0.366  -3.860   2.857  0.00  0.00    -0.275 OA
ENDBRANCH  15  23
ENDBRANCH  14  15
ENDBRANCH   1  14
BRANCH  13  25
ATOM     25  C   UNL     1      -4.472  -7.120   4.612  0.00  0.00    +0.159 C 
BRANCH  25  26
ATOM     26  C   UNL     1      -4.723  -6.267   5.857  0.00  0.00    +0.138 C 
ATOM     27  C   UNL     1      -3.922  -6.832   7.050  0.00  0.00    +0.035 C 
ATOM     28  C   UNL     1      -4.918  -6.658   8.228  0.00  0.00    +0.031 C 
ATOM     29  C   UNL     1      -6.269  -6.899   7.509  0.00  0.00    +0.160 C 
ATOM     30  O   UNL     1      -6.111  -6.313   6.207  0.00  0.00    -0.375 OA
ENDBRANCH  25  26
ENDBRANCH  13  25
TORSDOF 5
