REMARK  Name = ZINC16908596
REMARK  8 active torsions:
REMARK  status: ('A' for Active; 'I' for Inactive)
REMARK    1  A    between atoms: C_1  and  C_2
REMARK    2  A    between atoms: C_2  and  C_3
REMARK    3  A    between atoms: C_3  and  C_5
REMARK    4  A    between atoms: C_3  and  O_7
REMARK    5  A    between atoms: O_7  and  C_8
REMARK    6  A    between atoms: C_12  and  C_14
REMARK    7  A    between atoms: N_18  and  N_22
REMARK    8  A    between atoms: C_23  and  C_25
REMARK                            x       y       z     vdW  Elec       q    Type
REMARK                         _______ _______ _______ _____ _____    ______ ____
ROOT
ATOM      1  C   UNL     1       3.849   3.105   2.103  0.00  0.00    +0.028 C 
ATOM      2  C   UNL     1       3.380   2.416   1.033  0.00  0.00    +0.079 C 
ATOM      3  C   UNL     1       2.746   1.081   0.976  0.00  0.00    +0.275 C 
ATOM      4  O   UNL     1       2.570   0.413   1.977  0.00  0.00    -0.267 OA
ATOM      5  N   UNL     1       2.381   0.651  -0.221  0.00  0.00    -0.169 N 
ATOM      6  C   UNL     1       2.584   1.392  -1.329  0.00  0.00    +0.138 C 
ATOM      7  S   UNL     1       2.191   1.009  -2.950  0.00  0.00    -0.026 S 
ATOM      8  S   UNL     1       3.359   2.871  -0.695  0.00  0.00    -0.059 S 
ENDROOT
BRANCH   1  13
ATOM      9  C   UNL     1       4.320   2.278   5.733  0.00  0.00    +0.122 A 
ATOM     10  C   UNL     1       3.101   1.682   6.031  0.00  0.00    +0.046 A 
ATOM     11  C   UNL     1       2.131   1.552   5.053  0.00  0.00    +0.004 A 
ATOM     12  C   UNL     1       2.365   2.016   3.776  0.00  0.00    +0.008 A 
ATOM     13  C   UNL     1       3.592   2.612   3.464  0.00  0.00    -0.020 A 
ATOM     14  C   UNL     1       4.571   2.743   4.455  0.00  0.00    +0.053 A 
BRANCH   9  15
ATOM     15  O   UNL     1       5.268   2.403   6.699  0.00  0.00    -0.477 OA
BRANCH  15  16
ATOM     16  C   UNL     1       4.987   1.804   7.966  0.00  0.00    +0.285 C 
BRANCH  16  17
ATOM     17  C   UNL     1       4.185   2.761   8.808  0.00  0.00    +0.396 C 
ATOM     18  O   UNL     1       3.885   3.846   8.369  0.00  0.00    -0.242 OA
ATOM     19  O   UNL     1       3.804   2.410  10.046  0.00  0.00    -0.242 OA
ENDBRANCH  16  17
BRANCH  16  21
ATOM     20  C   UNL     1       7.059   0.409   7.884  0.00  0.00    +0.008 C 
ATOM     21  C   UNL     1       6.301   1.476   8.678  0.00  0.00    +0.053 C 
ENDBRANCH  16  21
ENDBRANCH  15  16
ENDBRANCH   9  15
ENDBRANCH   1  13
BRANCH   5  22
ATOM     22  N   UNL     1       1.776  -0.607  -0.340  0.00  0.00    -0.222 N 
ATOM     23  C   UNL     1       0.450  -0.698  -0.564  0.00  0.00    +0.262 C 
ATOM     24  O   UNL     1      -0.222   0.312  -0.657  0.00  0.00    -0.269 OA
ATOM     25  H   UNL     1       2.311  -1.412  -0.266  0.00  0.00    +0.174 HD
BRANCH  23  26
ATOM     26  C   UNL     1      -0.188  -2.023  -0.696  0.00  0.00    +0.057 A 
ATOM     27  C   UNL     1       0.580  -3.185  -0.589  0.00  0.00    +0.016 A 
ATOM     28  C   UNL     1      -0.020  -4.419  -0.713  0.00  0.00    +0.021 A 
ATOM     29  C   UNL     1      -1.384  -4.510  -0.943  0.00  0.00    +0.042 A 
ATOM     30  C   UNL     1      -2.152  -3.364  -1.050  0.00  0.00    +0.040 A 
ATOM     31  C   UNL     1      -1.563  -2.121  -0.922  0.00  0.00    +0.054 A 
ATOM     32 CL   UNL     1      -2.529  -0.684  -1.048  0.00  0.00    -0.083 Cl
ATOM     33 CL   UNL     1      -2.132  -6.069  -1.098  0.00  0.00    -0.083 Cl
ENDBRANCH  23  26
ENDBRANCH   5  22
TORSDOF 7
