REMARK  Name = ZINC04855456
REMARK  8 active torsions:
REMARK  status: ('A' for Active; 'I' for Inactive)
REMARK    1  A    between atoms: C_1  and  C_2
REMARK    2  A    between atoms: C_2  and  C_3
REMARK    3  A    between atoms: C_3  and  C_4
REMARK    4  A    between atoms: C_7  and  C_19
REMARK    5  A    between atoms: C_9  and  C_15
REMARK    6  A    between atoms: C_9  and  C_17
REMARK    7  A    between atoms: C_10  and  N_14
REMARK    8  A    between atoms: C_11  and  C_12
REMARK                            x       y       z     vdW  Elec       q    Type
REMARK                         _______ _______ _______ _____ _____    ______ ____
ROOT
ATOM      1  C   UNL     1      -1.162   2.149   0.019  0.00  0.00    -0.022 C 
ATOM      2  C   UNL     1      -0.031   1.495  -0.212  0.00  0.00    -0.032 C 
ATOM      3  C   UNL     1       1.258   2.235  -0.505  0.00  0.00    +0.047 C 
ATOM      4  C   UNL     1       1.959   1.497  -1.654  0.00  0.00    +0.063 C 
ATOM      5  C   UNL     1       2.315   0.083  -1.200  0.00  0.00    +0.188 C 
ATOM      6  C   UNL     1       1.111  -0.635  -0.666  0.00  0.00    +0.054 C 
ATOM      7  C   UNL     1       0.016   0.015  -0.198  0.00  0.00    +0.074 C 
ENDROOT
BRANCH   4   8
ATOM      8  C   UNL     1       3.217   2.235  -2.034  0.00  0.00    -0.041 A 
ATOM      9  C   UNL     1       4.213   2.432  -1.097  0.00  0.00    +0.004 A 
ATOM     10  C   UNL     1       5.369   3.105  -1.447  0.00  0.00    +0.000 A 
ATOM     11  C   UNL     1       5.524   3.589  -2.732  0.00  0.00    +0.000 A 
ATOM     12  C   UNL     1       4.525   3.397  -3.669  0.00  0.00    +0.000 A 
ATOM     13  C   UNL     1       3.371   2.720  -3.320  0.00  0.00    +0.004 A 
ENDBRANCH   4   8
BRANCH   6  14
ATOM     14  N   UNL     1       1.117  -2.002  -0.651  0.00  0.00    -0.358 N 
ATOM     15  H   UNL     1       0.246  -2.551  -0.265  0.00  0.00    +0.142 HD
ATOM     16  H   UNL     1       1.992  -2.552  -1.026  0.00  0.00    +0.142 HD
ENDBRANCH   6  14
BRANCH   7  17
ATOM     17  C   UNL     1      -1.095  -0.731   0.311  0.00  0.00    +0.101 C 
ATOM     18  N   UNL     1      -1.976  -1.323   0.715  0.00  0.00    -0.191 NA
ENDBRANCH   7  17
BRANCH   5  19
ATOM     19  C   UNL     1       3.339   0.158  -0.145  0.00  0.00    +0.091 C 
ATOM     20  N   UNL     1       4.129   0.216   0.668  0.00  0.00    -0.194 NA
ENDBRANCH   5  19
BRANCH   5  21
ATOM     21  C   UNL     1       2.856  -0.668  -2.345  0.00  0.00    +0.091 C 
ATOM     22  N   UNL     1       3.273  -1.248  -3.228  0.00  0.00    -0.194 NA
ENDBRANCH   5  21
BRANCH   1  23
ATOM     23  C   UNL     1      -1.153   3.651   0.141  0.00  0.00    +0.027 C 
BRANCH  23  25
ATOM     24  C   UNL     1      -1.801   5.585   1.585  0.00  0.00    +0.004 C 
ATOM     25  C   UNL     1      -1.810   4.060   1.461  0.00  0.00    +0.001 C 
ENDBRANCH  23  25
ENDBRANCH   1  23
TORSDOF 7
