REMARK  Name = ZINC38746059
REMARK  7 active torsions:
REMARK  status: ('A' for Active; 'I' for Inactive)
REMARK    1  A    between atoms: C_1  and  O_2
REMARK    2  A    between atoms: O_2  and  C_3
REMARK    3  A    between atoms: C_6  and  C_9
REMARK    4  A    between atoms: C_11  and  C_15
REMARK    5  A    between atoms: C_19  and  C_24
REMARK    6  A    between atoms: C_24  and  O_25
REMARK    7  A    between atoms: O_25  and  C_26
REMARK                            x       y       z     vdW  Elec       q    Type
REMARK                         _______ _______ _______ _____ _____    ______ ____
ROOT
ATOM      1  C   UNL     1      -7.097  -4.886  -1.204  0.00  0.00    +0.182 C 
ATOM      2  N   UNL     1      -8.573  -5.069  -1.219  0.00  0.00    -0.265 N 
ATOM      3  N   UNL     1      -9.001  -6.254  -1.739  0.00  0.00    -0.221 N 
ATOM      4  C   UNL     1     -10.167  -6.764  -2.282  0.00  0.00    +0.189 A 
ATOM      5  N   UNL     1      -9.964  -8.017  -2.565  0.00  0.00    -0.128 NA
ATOM      6  N   UNL     1      -8.758  -8.348  -2.263  0.00  0.00    -0.121 NA
ATOM      7  C   UNL     1      -8.136  -7.318  -1.782  0.00  0.00    +0.211 A 
ATOM      8  S   UNL     1      -6.602  -6.663  -1.155  0.00  0.00    -0.058 S 
ATOM      9  H   UNL     1      -8.966  -4.913  -0.303  0.00  0.00    +0.168 HD
ENDROOT
BRANCH   1  12
ATOM     10  C   UNL     1      -4.963  -2.620   0.035  0.00  0.00    +0.091 C 
ATOM     11  C   UNL     1      -5.128  -3.957   0.039  0.00  0.00    +0.034 C 
ATOM     12  C   UNL     1      -6.635  -4.138   0.048  0.00  0.00    +0.185 C 
ATOM     13  N   UNL     1      -7.139  -2.755   0.047  0.00  0.00    -0.177 NA
ATOM     14  N   UNL     1      -6.170  -1.994   0.045  0.00  0.00    -0.154 NA
BRANCH  10  18
ATOM     15  C   UNL     1      -1.200  -0.637   0.010  0.00  0.00    +0.120 A 
ATOM     16  C   UNL     1      -2.374   0.104   0.019  0.00  0.00    +0.046 A 
ATOM     17  C   UNL     1      -3.595  -0.536   0.027  0.00  0.00    +0.013 A 
ATOM     18  C   UNL     1      -3.651  -1.928   0.026  0.00  0.00    +0.002 A 
ATOM     19  C   UNL     1      -2.471  -2.670   0.016  0.00  0.00    +0.013 A 
ATOM     20  C   UNL     1      -1.252  -2.025   0.003  0.00  0.00    +0.046 A 
BRANCH  15  22
ATOM     21  C   UNL     1      -0.017   1.425   0.010  0.00  0.00    +0.277 C 
ATOM     22  O   UNL     1       0.002  -0.004   0.002  0.00  0.00    -0.495 OA
ENDBRANCH  15  22
ENDBRANCH  10  18
ENDBRANCH   1  12
BRANCH   4  23
ATOM     23  C   UNL     1     -11.447  -6.001  -2.505  0.00  0.00    +0.306 C 
BRANCH  23  24
ATOM     24  O   UNL     1     -11.431  -5.413  -3.807  0.00  0.00    -0.484 OA
BRANCH  24  25
ATOM     25  C   UNL     1     -12.520  -4.685  -4.170  0.00  0.00    +0.121 A 
ATOM     26  C   UNL     1     -13.580  -4.535  -3.288  0.00  0.00    +0.047 A 
ATOM     27  C   UNL     1     -14.686  -3.795  -3.658  0.00  0.00    +0.023 A 
ATOM     28  C   UNL     1     -14.737  -3.204  -4.907  0.00  0.00    +0.041 A 
ATOM     29  C   UNL     1     -13.681  -3.352  -5.789  0.00  0.00    +0.023 A 
ATOM     30  C   UNL     1     -12.570  -4.086  -5.420  0.00  0.00    +0.047 A 
ATOM     31 CL   UNL     1     -16.128  -2.274  -5.370  0.00  0.00    -0.084 Cl
ENDBRANCH  24  25
ENDBRANCH  23  24
ENDBRANCH   4  23
TORSDOF 6
