REMARK  Name = ZINC13499097
REMARK  12 active torsions:
REMARK  status: ('A' for Active; 'I' for Inactive)
REMARK    1  A    between atoms: C_1  and  C_2
REMARK    2  A    between atoms: C_4  and  C_37
REMARK    3  A    between atoms: C_7  and  C_14
REMARK    4  A    between atoms: C_14  and  N_72
REMARK    5  A    between atoms: C_15  and  N_72
REMARK    6  A    between atoms: C_21  and  C_23
REMARK    7  A    between atoms: C_21  and  C_34
REMARK    8  A    between atoms: C_21  and  N_72
REMARK    9  A    between atoms: N_27  and  C_28
REMARK   10  A    between atoms: C_28  and  C_29
REMARK   11  A    between atoms: C_34  and  C_35
REMARK   12  A    between atoms: C_34  and  C_36
REMARK                            x       y       z     vdW  Elec       q    Type
REMARK                         _______ _______ _______ _____ _____    ______ ____
ROOT
ATOM      1  N   UNL     1      -0.068   0.730   2.136  0.00  0.00    +0.391 N 
ATOM      2  H   UNL     1      -0.767   0.559   2.868  0.00  0.00    -0.080 HD
ENDROOT
BRANCH   1   3
ATOM      3  C   UNL     1       0.524  -0.561   1.726  0.00  0.00    -0.067 C 
ATOM      4  C   UNL     1       1.411  -0.377   0.493  0.00  0.00    -0.015 C 
ATOM      5  C   UNL     1       2.007  -1.727   0.088  0.00  0.00    -0.002 C 
ATOM      6  C   UNL     1       0.878  -2.706  -0.238  0.00  0.00    -0.000 C 
ATOM      7  C   UNL     1      -0.009  -2.890   0.995  0.00  0.00    -0.002 C 
ATOM      8  C   UNL     1      -0.606  -1.540   1.400  0.00  0.00    -0.015 C 
ENDBRANCH   1   3
BRANCH   1   9
ATOM      9  C   UNL     1       0.983   1.619   2.673  0.00  0.00    -0.036 C 
BRANCH   9  16
ATOM     10  C   UNL     1       4.338  -1.762   9.071  0.00  0.00    +0.044 C 
ATOM     11  C   UNL     1       3.881  -1.217   7.742  0.00  0.00    -0.048 A 
ATOM     12  C   UNL     1       4.621  -1.486   6.599  0.00  0.00    +0.007 A 
ATOM     13  C   UNL     1       4.225  -1.001   5.385  0.00  0.00    -0.041 A 
ATOM     14  C   UNL     1       3.064  -0.226   5.293  0.00  0.00    +0.002 A 
ATOM     15  C   UNL     1       2.608   0.305   4.007  0.00  0.00    +0.017 A 
ATOM     16  C   UNL     1       1.477   1.054   3.979  0.00  0.00    +0.001 A 
ATOM     17  C   UNL     1       0.759   1.300   5.169  0.00  0.00    +0.251 A 
ATOM     18  O   UNL     1      -0.257   1.972   5.121  0.00  0.00    -0.268 OA
ATOM     19  N   UNL     1       1.167   0.812   6.354  0.00  0.00    -0.322 N 
ATOM     20  H   UNL     1       0.650   1.000   7.152  0.00  0.00    +0.169 HD
ATOM     21  C   UNL     1       2.311   0.048   6.450  0.00  0.00    +0.050 A 
ATOM     22  C   UNL     1       2.734  -0.457   7.675  0.00  0.00    +0.029 A 
ATOM     23  C   UNL     1       5.035  -1.299   4.149  0.00  0.00    +0.044 C 
ENDBRANCH   9  16
ENDBRANCH   1   9
BRANCH   1  24
ATOM     24  C   UNL     1      -0.730   1.371   0.980  0.00  0.00    +0.006 C 
BRANCH  24  25
ATOM     25  C   UNL     1       0.245   2.242   0.232  0.00  0.00    +0.139 A 
ATOM     26  N   UNL     1       1.039   3.149   0.747  0.00  0.00    -0.115 NA
ATOM     27  N   UNL     1       1.719   3.675  -0.213  0.00  0.00    -0.023 NA
ATOM     28  N   UNL     1       1.373   3.132  -1.328  0.00  0.00    -0.044 NA
ATOM     29  N   UNL     1       0.467   2.243  -1.095  0.00  0.00    -0.223 N 
BRANCH  29  30
ATOM     30  C   UNL     1      -0.196   1.395  -2.089  0.00  0.00    +0.221 C 
BRANCH  30  31
ATOM     31  C   UNL     1      -1.355   2.144  -2.695  0.00  0.00    +0.126 A 
ATOM     32  C   UNL     1      -1.321   2.858  -3.835  0.00  0.00    +0.046 A 
ATOM     33  C   UNL     1      -2.619   3.384  -4.028  0.00  0.00    +0.041 A 
ATOM     34  C   UNL     1      -3.366   2.968  -2.989  0.00  0.00    +0.195 A 
ATOM     35  O   UNL     1      -2.595   2.218  -2.186  0.00  0.00    -0.466 OA
ENDBRANCH  30  31
ENDBRANCH  29  30
ENDBRANCH  24  25
BRANCH  24  36
ATOM     36  C   UNL     1      -1.887   2.229   1.497  0.00  0.00    -0.024 C 
ATOM     37  C   UNL     1      -1.346   3.295   2.451  0.00  0.00    +0.006 C 
ATOM     38  C   UNL     1      -2.889   1.341   2.239  0.00  0.00    +0.006 C 
ENDBRANCH  24  36
ENDBRANCH   1  24
TORSDOF 8
