REMARK  Name = ZINC51752183
REMARK  5 active torsions:
REMARK  status: ('A' for Active; 'I' for Inactive)
REMARK    1  A    between atoms: C_1  and  C_2
REMARK    2  A    between atoms: C_7  and  C_10
REMARK    3  A    between atoms: C_11  and  C_13
REMARK    4  A    between atoms: C_16  and  N_22
REMARK    5  A    between atoms: C_17  and  N_19
REMARK                            x       y       z     vdW  Elec       q    Type
REMARK                         _______ _______ _______ _____ _____    ______ ____
ROOT
ATOM      1  C   UNL     1      -3.154  -3.723   1.595  0.00  0.00    +0.039 A 
ATOM      2  C   UNL     1      -3.841  -3.142   0.525  0.00  0.00    +0.015 A 
ATOM      3  C   UNL     1      -5.200  -3.320   0.404  0.00  0.00    +0.026 A 
ATOM      4  C   UNL     1      -5.891  -4.077   1.347  0.00  0.00    +0.055 A 
ATOM      5  C   UNL     1      -5.209  -4.656   2.414  0.00  0.00    +0.147 A 
ATOM      6  C   UNL     1      -3.849  -4.487   2.536  0.00  0.00    +0.047 A 
ENDROOT
BRANCH   1  15
ATOM      7  C   UNL     1       0.017   1.612   2.271  0.00  0.00    +0.007 C 
ATOM      8  C   UNL     1      -0.211   0.291   1.534  0.00  0.00    -0.011 C 
ATOM      9  C   UNL     1      -1.710  -0.013   1.483  0.00  0.00    +0.022 C 
ATOM     10  C   UNL     1      -1.937  -1.318   0.714  0.00  0.00    +0.108 C 
ATOM     11  N   UNL     1      -1.128  -2.377   1.332  0.00  0.00    -0.295 N 
ATOM     12  C   UNL     1       0.313  -2.152   1.512  0.00  0.00    +0.074 C 
ATOM     13  C   UNL     1       0.514  -0.837   2.272  0.00  0.00    +0.025 C 
ATOM     14  C   UNL     1       0.917  -3.308   2.312  0.00  0.00    +0.028 C 
ATOM     15  C   UNL     1      -1.696  -3.534   1.726  0.00  0.00    +0.247 C 
ATOM     16  O   UNL     1      -1.008  -4.423   2.191  0.00  0.00    -0.270 OA
ENDBRANCH   1  15
BRANCH   5  17
ATOM     17  N   UNL     1      -5.947  -5.459   3.415  0.00  0.00    +0.058 N 
ATOM     18  O   UNL     1      -5.642  -5.398   4.583  0.00  0.00    -0.126 OA
ATOM     19  O   UNL     1      -6.856  -6.175   3.064  0.00  0.00    -0.126 OA
ENDBRANCH   5  17
BRANCH   4  20
ATOM     20  N   UNL     1      -7.264  -4.255   1.223  0.00  0.00    -0.356 N 
ATOM     21  H   UNL     1      -7.750  -3.799   0.518  0.00  0.00    +0.142 HD
ATOM     22  H   UNL     1      -7.736  -4.834   1.841  0.00  0.00    +0.142 HD
ENDBRANCH   4  20
TORSDOF 3
