REMARK  Name = ZINC37376257
REMARK  4 active torsions:
REMARK  status: ('A' for Active; 'I' for Inactive)
REMARK    1  A    between atoms: C_3  and  N_9
REMARK    2  A    between atoms: C_4  and  N_8
REMARK    3  A    between atoms: N_9  and  S_10
REMARK    4  A    between atoms: S_10  and  C_13
REMARK                            x       y       z     vdW  Elec       q    Type
REMARK                         _______ _______ _______ _____ _____    ______ ____
ROOT
ATOM      1  N   UNL     1       3.493   2.105   0.068  0.00  0.00    -0.214 N 
ATOM      2  H   UNL     1       4.240   1.681  -0.382  0.00  0.00    +0.174 HD
ENDROOT
BRANCH   1   5
ATOM      3  C   UNL     1       0.284   0.926   1.429  0.00  0.00    +0.040 A 
ATOM      4  C   UNL     1       1.492   1.590   1.318  0.00  0.00    +0.029 A 
ATOM      5  C   UNL     1       2.269   1.433   0.181  0.00  0.00    +0.069 A 
ATOM      6  C   UNL     1       1.829   0.603  -0.851  0.00  0.00    +0.050 A 
ATOM      7  C   UNL     1       0.617  -0.060  -0.734  0.00  0.00    +0.063 A 
ATOM      8  C   UNL     1      -0.154   0.103   0.406  0.00  0.00    +0.125 A 
ATOM      9  F   UNL     1      -1.335  -0.543   0.519  0.00  0.00    -0.205 F 
BRANCH   6  10
ATOM     10  N   UNL     1       2.609   0.441  -2.002  0.00  0.00    -0.356 N 
ATOM     11  H   UNL     1       3.457   0.905  -2.082  0.00  0.00    +0.142 HD
ATOM     12  H   UNL     1       2.302  -0.137  -2.718  0.00  0.00    +0.142 HD
ENDBRANCH   6  10
ENDBRANCH   1   5
BRANCH   1  13
ATOM     13  S   UNL     1       3.664   3.626   0.702  0.00  0.00    +0.074 S 
ATOM     14  O   UNL     1       3.264   3.546   2.063  0.00  0.00    -0.150 OA
ATOM     15  O   UNL     1       4.951   4.086   0.312  0.00  0.00    -0.150 OA
BRANCH  13  16
ATOM     16  C   UNL     1       2.492   4.663  -0.108  0.00  0.00    +0.135 A 
ATOM     17  C   UNL     1       1.457   5.242   0.604  0.00  0.00    +0.058 A 
ATOM     18  C   UNL     1       0.573   6.035  -0.050  0.00  0.00    +0.081 A 
ATOM     19  S   UNL     1       1.194   5.981  -1.722  0.00  0.00    -0.063 S 
ATOM     20  C   UNL     1       2.594   4.910  -1.437  0.00  0.00    +0.106 A 
ATOM     21 CL   UNL     1       3.777   4.333  -2.569  0.00  0.00    -0.074 Cl
ATOM     22 CL   UNL     1      -0.807   6.882   0.577  0.00  0.00    -0.076 Cl
ENDBRANCH  13  16
ENDBRANCH   1  13
TORSDOF 4
