REMARK  Name = ZINC02452897
REMARK  7 active torsions:
REMARK  status: ('A' for Active; 'I' for Inactive)
REMARK    1  A    between atoms: C_1  and  C_2
REMARK    2  A    between atoms: C_5  and  C_8
REMARK    3  A    between atoms: N_9  and  N_10
REMARK    4  A    between atoms: C_11  and  C_13
REMARK    5  A    between atoms: C_14  and  C_24
REMARK    6  A    between atoms: C_24  and  S_25
REMARK    7  A    between atoms: S_25  and  C_26
REMARK                            x       y       z     vdW  Elec       q    Type
REMARK                         _______ _______ _______ _____ _____    ______ ____
ROOT
ATOM      1  C   UNL     1       0.126  -8.459   2.247  0.00  0.00    +0.173 A 
ATOM      2  C   UNL     1       0.137  -9.263   3.351  0.00  0.00    +0.089 A 
ATOM      3  N   UNL     1       0.153 -10.539   2.904  0.00  0.00    -0.191 N 
ATOM      4  N   UNL     1       0.151 -10.477   1.503  0.00  0.00    -0.058 NA
ATOM      5  N   UNL     1       0.131  -9.238   1.151  0.00  0.00    -0.124 NA
ATOM      6  C   UNL     1       0.168 -11.697   3.688  0.00  0.00    +0.240 A 
ATOM      7  C   UNL     1       0.191 -13.074   3.185  0.00  0.00    +0.206 A 
ATOM      8  N   UNL     1       0.201 -13.884   4.207  0.00  0.00    -0.032 NA
ATOM      9  O   UNL     1       0.186 -13.098   5.385  0.00  0.00    -0.239 OA
ATOM     10  N   UNL     1       0.170 -11.737   4.990  0.00  0.00    -0.027 NA
ATOM     11  N   UNL     1       0.201 -13.451   1.846  0.00  0.00    -0.337 N 
ATOM     12  H   UNL     1       0.191 -12.774   1.152  0.00  0.00    +0.144 HD
ATOM     13  H   UNL     1       0.216 -14.391   1.607  0.00  0.00    +0.144 HD
ENDROOT
BRANCH   1  15
ATOM     14  N   UNL     1       0.092  -6.304   1.091  0.00  0.00    -0.202 N 
ATOM     15  C   UNL     1       0.107  -6.984   2.255  0.00  0.00    +0.285 C 
ATOM     16  O   UNL     1       0.104  -6.381   3.311  0.00  0.00    -0.267 OA
ATOM     17  H   UNL     1       0.094  -6.784   0.248  0.00  0.00    +0.178 HD
BRANCH  14  19
ATOM     18  C   UNL     1       0.059  -4.248  -0.021  0.00  0.00    +0.138 C 
ATOM     19  N   UNL     1       0.073  -4.903   1.099  0.00  0.00    -0.187 NA
BRANCH  18  24
ATOM     20  C   UNL     1      -0.018   1.503   0.010  0.00  0.00    +0.044 C 
ATOM     21  C   UNL     1       0.002  -0.004   0.002  0.00  0.00    -0.050 A 
ATOM     22  C   UNL     1       0.006  -0.686  -1.202  0.00  0.00    +0.004 A 
ATOM     23  C   UNL     1       0.024  -2.065  -1.217  0.00  0.00    +0.010 A 
ATOM     24  C   UNL     1       0.040  -2.773  -0.013  0.00  0.00    -0.005 A 
ATOM     25  C   UNL     1       0.036  -2.078   1.198  0.00  0.00    +0.010 A 
ATOM     26  C   UNL     1       0.023  -0.699   1.198  0.00  0.00    +0.004 A 
ENDBRANCH  18  24
ENDBRANCH  14  19
ENDBRANCH   1  15
BRANCH   2  27
ATOM     27  C   UNL     1       0.132  -8.815   4.789  0.00  0.00    +0.132 C 
BRANCH  27  28
ATOM     28  S   UNL     1       1.839  -8.612   5.366  0.00  0.00    -0.119 S 
BRANCH  28  29
ATOM     29  C   UNL     1       1.665  -8.093   7.040  0.00  0.00    +0.008 A 
ATOM     30  C   UNL     1       0.400  -7.943   7.595  0.00  0.00    +0.016 A 
ATOM     31  C   UNL     1       0.267  -7.535   8.908  0.00  0.00    +0.021 A 
ATOM     32  C   UNL     1       1.392  -7.276   9.671  0.00  0.00    +0.041 A 
ATOM     33  C   UNL     1       2.654  -7.425   9.121  0.00  0.00    +0.021 A 
ATOM     34  C   UNL     1       2.793  -7.838   7.811  0.00  0.00    +0.016 A 
ATOM     35 CL   UNL     1       1.220  -6.764  11.320  0.00  0.00    -0.084 Cl
ENDBRANCH  28  29
ENDBRANCH  27  28
ENDBRANCH   2  27
TORSDOF 6
