REMARK  Name = ZINC39682570
REMARK  7 active torsions:
REMARK  status: ('A' for Active; 'I' for Inactive)
REMARK    1  A    between atoms: C_4  and  C_7
REMARK    2  A    between atoms: C_7  and  C_9
REMARK    3  A    between atoms: C_7  and  N_13
REMARK    4  A    between atoms: C_9  and  C_10
REMARK    5  A    between atoms: C_14  and  C_16
REMARK    6  A    between atoms: C_27  and  C_29
REMARK    7  A    between atoms: C_32  and  C_34
REMARK                            x       y       z     vdW  Elec       q    Type
REMARK                         _______ _______ _______ _____ _____    ______ ____
ROOT
ATOM      1  C   UNL     1       4.373  -3.138   2.445  0.00  0.00    +0.100 C 
ATOM      2  C   UNL     1       3.297  -2.698   3.463  0.00  0.00    +0.121 C 
ATOM      3  N   UNL     1       3.824  -3.135   4.777  0.00  0.00    -0.294 N 
ATOM      4  C   UNL     1       5.278  -2.857   4.703  0.00  0.00    +0.115 C 
ATOM      5  C   UNL     1       5.672  -3.240   3.263  0.00  0.00    -0.004 C 
ATOM      6  C   UNL     1       6.714  -2.264   2.724  0.00  0.00    -0.010 C 
ATOM      7  C   UNL     1       8.015  -2.426   3.514  0.00  0.00    -0.082 C 
ATOM      8  N   UNL     1       8.498  -3.806   3.390  0.00  0.00    +0.379 N 
ATOM      9  C   UNL     1       7.531  -4.731   3.995  0.00  0.00    -0.082 C 
ATOM     10  C   UNL     1       6.210  -4.667   3.224  0.00  0.00    -0.010 C 
ATOM     11  C   UNL     1       3.136  -3.667   5.807  0.00  0.00    +0.282 C 
ATOM     12  O   UNL     1       3.717  -3.978   6.831  0.00  0.00    -0.267 OA
ATOM     13  H   UNL     1       8.613  -4.034   2.414  0.00  0.00    -0.086 HD
ATOM     14  H   UNL     1       9.386  -3.894   3.861  0.00  0.00    -0.086 HD
ENDROOT
BRANCH  11  15
ATOM     15  C   UNL     1       1.690  -3.871   5.695  0.00  0.00    +0.190 A 
ATOM     16  C   UNL     1       0.869  -4.397   6.669  0.00  0.00    +0.055 A 
ATOM     17  C   UNL     1      -0.425  -4.410   6.141  0.00  0.00    +0.051 A 
ATOM     18  C   UNL     1      -0.350  -3.897   4.878  0.00  0.00    +0.139 A 
ATOM     19  O   UNL     1       0.928  -3.571   4.622  0.00  0.00    -0.450 OA
BRANCH  18  20
ATOM     20  C   UNL     1      -1.484  -3.724   3.950  0.00  0.00    +0.052 A 
ATOM     21  C   UNL     1      -2.363  -4.783   3.710  0.00  0.00    +0.014 A 
ATOM     22  C   UNL     1      -3.421  -4.614   2.842  0.00  0.00    +0.001 A 
ATOM     23  C   UNL     1      -3.615  -3.399   2.207  0.00  0.00    +0.003 A 
ATOM     24  C   UNL     1      -2.750  -2.345   2.438  0.00  0.00    +0.039 A 
ATOM     25  C   UNL     1      -1.688  -2.497   3.310  0.00  0.00    +0.134 A 
ATOM     26  F   UNL     1      -0.847  -1.465   3.540  0.00  0.00    -0.205 F 
ENDBRANCH  18  20
ENDBRANCH  11  15
BRANCH   1  28
ATOM     27  N   UNL     1       4.890  -2.483   0.117  0.00  0.00    -0.308 N 
ATOM     28  C   UNL     1       4.518  -2.106   1.356  0.00  0.00    +0.219 C 
ATOM     29  O   UNL     1       4.301  -0.937   1.595  0.00  0.00    -0.275 OA
ATOM     30  H   UNL     1       5.131  -3.406  -0.058  0.00  0.00    +0.149 HD
BRANCH  27  31
ATOM     31  C   UNL     1       4.928  -1.498  -0.967  0.00  0.00    +0.114 C 
BRANCH  31  35
ATOM     32  C   UNL     1       4.188  -3.450  -4.694  0.00  0.00    +0.000 A 
ATOM     33  C   UNL     1       3.635  -2.208  -4.442  0.00  0.00    +0.000 A 
ATOM     34  C   UNL     1       3.874  -1.577  -3.236  0.00  0.00    +0.005 A 
ATOM     35  C   UNL     1       4.667  -2.187  -2.282  0.00  0.00    -0.027 A 
ATOM     36  C   UNL     1       5.220  -3.429  -2.534  0.00  0.00    +0.005 A 
ATOM     37  C   UNL     1       4.981  -4.059  -3.740  0.00  0.00    +0.000 A 
ENDBRANCH  31  35
BRANCH  31  38
ATOM     38  C   UNL     1       6.307  -0.835  -1.005  0.00  0.00    +0.152 C 
BRANCH  38  39
ATOM     39  C   UNL     1       6.296   0.291  -2.006  0.00  0.00    +0.358 C 
ATOM     40  O   UNL     1       5.251   0.619  -2.543  0.00  0.00    -0.246 OA
ATOM     41  O   UNL     1       7.331   0.874  -2.280  0.00  0.00    -0.246 OA
ENDBRANCH  38  39
ENDBRANCH  31  38
ENDBRANCH  27  31
ENDBRANCH   1  28
TORSDOF 7
