REMARK  Name = ZINC67295119
REMARK  3 active torsions:
REMARK  status: ('A' for Active; 'I' for Inactive)
REMARK    1  A    between atoms: C_4  and  N_11
REMARK    2  A    between atoms: C_5  and  C_7
REMARK    3  A    between atoms: C_13  and  C_23
REMARK                            x       y       z     vdW  Elec       q    Type
REMARK                         _______ _______ _______ _____ _____    ______ ____
ROOT
ATOM      1  N   UNL     1       3.528  -0.615   0.012  0.00  0.00    -0.325 N 
ATOM      2  C   UNL     1       4.664   0.017  -0.186  0.00  0.00    +0.212 A 
ATOM      3  C   UNL     1       5.908  -0.725  -0.471  0.00  0.00    +0.098 A 
ATOM      4  C   UNL     1       6.886  -0.063  -1.202  0.00  0.00    +0.030 A 
ATOM      5  C   UNL     1       6.597   1.309  -1.624  0.00  0.00    +0.019 A 
ATOM      6  C   UNL     1       7.398   1.949  -2.578  0.00  0.00    +0.026 A 
ATOM      7  C   UNL     1       7.102   3.239  -2.960  0.00  0.00    +0.019 A 
ATOM      8  C   UNL     1       6.016   3.903  -2.407  0.00  0.00    +0.019 A 
ATOM      9  C   UNL     1       5.219   3.286  -1.465  0.00  0.00    +0.048 A 
ATOM     10  C   UNL     1       5.499   1.988  -1.063  0.00  0.00    +0.137 A 
ATOM     11  O   UNL     1       4.728   1.372  -0.139  0.00  0.00    -0.439 OA
ATOM     12 BR   UNL     1       8.181   4.108  -4.247  0.00  0.00    -0.050 Br
ATOM     13  H   UNL     1       3.484  -1.578  -0.096  0.00  0.00    +0.169 HD
ENDROOT
BRANCH   3  14
ATOM     14  C   UNL     1       6.104  -2.106   0.000  0.00  0.00    +0.254 C 
ATOM     15  O   UNL     1       7.096  -2.727  -0.331  0.00  0.00    -0.270 OA
ATOM     16  N   UNL     1       5.183  -2.683   0.798  0.00  0.00    -0.266 N 
ATOM     17  C   UNL     1       5.348  -4.004   1.210  0.00  0.00    +0.125 A 
ATOM     18  C   UNL     1       6.609  -4.588   1.163  0.00  0.00    +0.044 A 
ATOM     19  C   UNL     1       6.758  -5.900   1.575  0.00  0.00    +0.005 A 
ATOM     20  C   UNL     1       5.637  -6.586   2.021  0.00  0.00    +0.020 A 
ATOM     21  C   UNL     1       4.415  -5.943   2.041  0.00  0.00    +0.113 A 
ATOM     22  N   UNL     1       4.303  -4.689   1.647  0.00  0.00    -0.240 NA
ATOM     23  H   UNL     1       4.406  -2.179   1.085  0.00  0.00    +0.157 HD
ENDBRANCH   3  14
BRANCH   1  27
ATOM     24  C   UNL     1       0.142   1.504   1.090  0.00  0.00    +0.001 A 
ATOM     25  C   UNL     1       1.325   1.698   1.782  0.00  0.00    +0.002 A 
ATOM     26  C   UNL     1       2.458   0.995   1.428  0.00  0.00    +0.026 A 
ATOM     27  C   UNL     1       2.409   0.085   0.368  0.00  0.00    +0.054 A 
ATOM     28  C   UNL     1       1.211  -0.105  -0.325  0.00  0.00    +0.078 A 
ATOM     29  C   UNL     1       0.086   0.605   0.040  0.00  0.00    +0.014 A 
BRANCH  28  30
ATOM     30  C   UNL     1       1.148  -1.084  -1.469  0.00  0.00    +0.419 C 
ATOM     31  F   UNL     1      -0.146  -1.099  -2.000  0.00  0.00    -0.166 F 
ATOM     32  F   UNL     1       2.055  -0.699  -2.462  0.00  0.00    -0.166 F 
ATOM     33  F   UNL     1       1.477  -2.363  -1.008  0.00  0.00    -0.166 F 
ENDBRANCH  28  30
ENDBRANCH   1  27
TORSDOF 3
