REMARK  Name = ZINC39486292
REMARK  4 active torsions:
REMARK  status: ('A' for Active; 'I' for Inactive)
REMARK    1  A    between atoms: C_4  and  O_34
REMARK    2  A    between atoms: C_5  and  C_7
REMARK    3  A    between atoms: C_7  and  C_9
REMARK    4  A    between atoms: C_11  and  C_27
REMARK                            x       y       z     vdW  Elec       q    Type
REMARK                         _______ _______ _______ _____ _____    ______ ____
ROOT
ATOM      1  C   UNL     1      -0.036  -2.932  -0.014  0.00  0.00    +0.097 C 
ATOM      2  C   UNL     1       0.196  -4.308  -0.631  0.00  0.00    +0.062 C 
ATOM      3  C   UNL     1      -1.033  -5.168  -0.523  0.00  0.00    -0.025 A 
ATOM      4  C   UNL     1      -1.192  -6.223  -1.400  0.00  0.00    +0.054 A 
ATOM      5  C   UNL     1      -2.313  -7.038  -1.327  0.00  0.00    +0.167 A 
ATOM      6  C   UNL     1      -3.293  -6.798  -0.361  0.00  0.00    +0.167 A 
ATOM      7  C   UNL     1      -3.145  -5.747   0.520  0.00  0.00    +0.061 A 
ATOM      8  C   UNL     1      -2.014  -4.925   0.442  0.00  0.00    +0.026 A 
ATOM      9  C   UNL     1      -1.867  -3.797   1.378  0.00  0.00    +0.182 C 
ATOM     10  O   UNL     1      -2.788  -3.441   2.082  0.00  0.00    -0.290 OA
ATOM     11  C   UNL     1      -0.525  -3.097   1.431  0.00  0.00    +0.163 C 
ATOM     12 CL   UNL     1      -0.707  -1.480   2.206  0.00  0.00    -0.113 Cl
ATOM     13  O   UNL     1      -4.280  -7.731  -0.500  0.00  0.00    -0.453 OA
ATOM     14  C   UNL     1      -4.096  -8.290  -1.814  0.00  0.00    +0.466 C 
ATOM     15  O   UNL     1      -2.689  -8.120  -2.066  0.00  0.00    -0.453 OA
ENDROOT
BRANCH   2  16
ATOM     16  C   UNL     1       0.556  -4.143  -2.085  0.00  0.00    -0.037 A 
ATOM     17  C   UNL     1      -0.327  -3.523  -2.949  0.00  0.00    +0.004 A 
ATOM     18  C   UNL     1       0.002  -3.371  -4.283  0.00  0.00    +0.003 A 
ATOM     19  C   UNL     1       1.215  -3.839  -4.754  0.00  0.00    +0.038 A 
ATOM     20  C   UNL     1       2.100  -4.460  -3.889  0.00  0.00    +0.124 A 
ATOM     21  C   UNL     1       1.772  -4.606  -2.552  0.00  0.00    +0.042 A 
ATOM     22  F   UNL     1       3.285  -4.918  -4.349  0.00  0.00    -0.205 F 
ENDBRANCH   2  16
BRANCH   1  23
ATOM     23  C   UNL     1       1.254  -2.153  -0.022  0.00  0.00    +0.172 C 
ATOM     24  O   UNL     1       2.316  -2.738  -0.035  0.00  0.00    -0.292 OA
BRANCH  23  29
ATOM     25  C   UNL     1      -0.017   1.373   0.010  0.00  0.00    +0.001 A 
ATOM     26  C   UNL     1       1.170   2.089   0.002  0.00  0.00    +0.004 A 
ATOM     27  C   UNL     1       2.384   1.432  -0.013  0.00  0.00    +0.046 A 
ATOM     28  C   UNL     1       2.425   0.046  -0.021  0.00  0.00    +0.127 A 
ATOM     29  C   UNL     1       1.225  -0.685  -0.013  0.00  0.00    +0.059 A 
ATOM     30  C   UNL     1       0.002  -0.004   0.002  0.00  0.00    +0.015 A 
BRANCH  28  31
ATOM     31  O   UNL     1       3.617  -0.601  -0.036  0.00  0.00    -0.506 OA
ATOM     32  H   UNL     1       3.971  -0.793   0.843  0.00  0.00    +0.292 HD
ENDBRANCH  28  31
ENDBRANCH  23  29
ENDBRANCH   1  23
TORSDOF 4
