REMARK  Name = ZINC15959308
REMARK  6 active torsions:
REMARK  status: ('A' for Active; 'I' for Inactive)
REMARK    1  A    between atoms: C_1  and  C_2
REMARK    2  A    between atoms: C_2  and  C_3
REMARK    3  A    between atoms: C_3  and  C_5
REMARK    4  A    between atoms: C_3  and  C_6
REMARK    5  A    between atoms: N_14  and  C_17
REMARK    6  A    between atoms: C_17  and  C_18
REMARK                            x       y       z     vdW  Elec       q    Type
REMARK                         _______ _______ _______ _____ _____    ______ ____
ROOT
ATOM      1  C   UNL     1      -1.416  -2.058  -0.121  0.00  0.00    +0.070 C 
ATOM      2  C   UNL     1      -2.857  -2.611  -0.151  0.00  0.00    +0.107 C 
ATOM      3  C   UNL     1      -2.809  -3.788  -1.165  0.00  0.00    +0.122 C 
ATOM      4  C   UNL     1      -3.070  -5.002  -0.302  0.00  0.00    +0.229 C 
ATOM      5  O   UNL     1      -3.112  -6.147  -0.698  0.00  0.00    -0.275 OA
ATOM      6  N   UNL     1      -3.248  -4.615   0.967  0.00  0.00    -0.237 N 
ATOM      7  C   UNL     1      -3.158  -3.281   1.171  0.00  0.00    +0.227 C 
ATOM      8  O   UNL     1      -3.292  -2.709   2.231  0.00  0.00    -0.275 OA
ATOM      9  C   UNL     1      -1.365  -3.800  -1.679  0.00  0.00    +0.136 C 
ATOM     10  N   UNL     1      -0.825  -2.455  -1.427  0.00  0.00    -0.295 NA
ATOM     11  C   UNL     1      -0.536  -4.841  -0.983  0.00  0.00    +0.003 A 
ATOM     12  C   UNL     1      -0.203  -5.063   0.335  0.00  0.00    +0.008 A 
ATOM     13  C   UNL     1       0.601  -6.136   0.675  0.00  0.00    +0.000 A 
ATOM     14  C   UNL     1       1.071  -6.984  -0.312  0.00  0.00    +0.002 A 
ATOM     15  C   UNL     1       0.739  -6.766  -1.633  0.00  0.00    +0.023 A 
ATOM     16  C   UNL     1      -0.070  -5.689  -1.984  0.00  0.00    +0.039 A 
ATOM     17  N   UNL     1      -0.537  -5.266  -3.230  0.00  0.00    -0.283 N 
ATOM     18  C   UNL     1      -1.305  -4.164  -3.138  0.00  0.00    +0.243 C 
ATOM     19  O   UNL     1      -1.844  -3.578  -4.053  0.00  0.00    -0.273 OA
ATOM     20  H   UNL     1      -1.106  -1.821  -2.159  0.00  0.00    +0.124 HD
ATOM     21  H   UNL     1      -0.331  -5.714  -4.066  0.00  0.00    +0.155 HD
ENDROOT
BRANCH   1  22
ATOM     22  C   UNL     1      -1.433  -0.534   0.013  0.00  0.00    +0.003 C 
ATOM     23  C   UNL     1      -2.110  -0.145   1.329  0.00  0.00    +0.009 C 
BRANCH  22  25
ATOM     24  C   UNL     1      -0.019   1.526   0.010  0.00  0.00    +0.004 C 
ATOM     25  C   UNL     1       0.002  -0.004   0.002  0.00  0.00    +0.001 C 
ENDBRANCH  22  25
ENDBRANCH   1  22
BRANCH   6  26
ATOM     26  C   UNL     1      -3.525  -5.561   2.051  0.00  0.00    +0.151 C 
BRANCH  26  27
ATOM     27  C   UNL     1      -2.226  -6.021   2.660  0.00  0.00    -0.030 A 
ATOM     28  C   UNL     1      -1.583  -7.137   2.156  0.00  0.00    +0.005 A 
ATOM     29  C   UNL     1      -0.392  -7.559   2.715  0.00  0.00    +0.000 A 
ATOM     30  C   UNL     1       0.158  -6.867   3.777  0.00  0.00    +0.000 A 
ATOM     31  C   UNL     1      -0.484  -5.750   4.281  0.00  0.00    +0.000 A 
ATOM     32  C   UNL     1      -1.673  -5.325   3.719  0.00  0.00    +0.005 A 
ENDBRANCH  26  27
ENDBRANCH   6  26
TORSDOF 4
