REMARK  Name = ZINC35747591
REMARK  11 active torsions:
REMARK  status: ('A' for Active; 'I' for Inactive)
REMARK    1  A    between atoms: C_2  and  C_3
REMARK    2  A    between atoms: C_3  and  C_4
REMARK    3  A    between atoms: C_4  and  C_5
REMARK    4  A    between atoms: C_5  and  C_7
REMARK    5  A    between atoms: C_5  and  O_34
REMARK    6  A    between atoms: C_7  and  N_8
REMARK    7  A    between atoms: N_8  and  C_9
REMARK    8  A    between atoms: N_8  and  C_15
REMARK    9  A    between atoms: C_9  and  C_10
REMARK   10  A    between atoms: C_15  and  C_16
REMARK   11  A    between atoms: C_22  and  C_27
REMARK                            x       y       z     vdW  Elec       q    Type
REMARK                         _______ _______ _______ _____ _____    ______ ____
ROOT
ATOM      1  C   UNL     1       5.367  -5.981   3.063  0.00  0.00    +0.094 A 
ATOM      2  N   UNL     1       5.591  -7.042   3.881  0.00  0.00    -0.312 N 
ATOM      3  H   UNL     1       4.901  -7.315   4.506  0.00  0.00    +0.170 HD
ATOM      4  C   UNL     1       6.751  -7.723   3.840  0.00  0.00    +0.260 A 
ATOM      5  O   UNL     1       6.937  -8.673   4.580  0.00  0.00    -0.267 OA
ATOM      6  C   UNL     1       7.764  -7.314   2.914  0.00  0.00    +0.080 A 
ATOM      7  C   UNL     1       9.086  -7.882   2.683  0.00  0.00    +0.004 A 
ATOM      8  C   UNL     1       9.882  -7.320   1.741  0.00  0.00    +0.056 A 
ATOM      9  S   UNL     1       8.888  -5.983   1.107  0.00  0.00    -0.076 S 
ATOM     10  C   UNL     1       7.442  -6.208   2.111  0.00  0.00    +0.116 A 
ATOM     11  N   UNL     1       6.269  -5.588   2.205  0.00  0.00    -0.229 NA
ENDROOT
BRANCH   7  12
ATOM     12  C   UNL     1       9.552  -9.053   3.464  0.00  0.00    -0.015 A 
ATOM     13  C   UNL     1       9.449  -9.052   4.855  0.00  0.00    +0.008 A 
ATOM     14  C   UNL     1       9.884 -10.145   5.577  0.00  0.00    +0.002 A 
ATOM     15  C   UNL     1      10.423 -11.239   4.925  0.00  0.00    +0.020 A 
ATOM     16  C   UNL     1      10.528 -11.246   3.544  0.00  0.00    +0.042 A 
ATOM     17  C   UNL     1      10.090 -10.160   2.811  0.00  0.00    +0.028 A 
ATOM     18 CL   UNL     1      11.206 -12.623   2.734  0.00  0.00    -0.084 Cl
ENDBRANCH   7  12
BRANCH   1  19
ATOM     19  C   UNL     1       4.052  -5.249   3.144  0.00  0.00    -0.003 C 
BRANCH  19  20
ATOM     20  N   UNL     1       4.042  -4.152   2.167  0.00  0.00    +0.391 N 
ATOM     21  H   UNL     1       4.851  -3.566   2.310  0.00  0.00    -0.080 HD
BRANCH  20  22
ATOM     22  C   UNL     1       2.821  -3.353   2.340  0.00  0.00    -0.046 C 
BRANCH  22  23
ATOM     23  C   UNL     1       2.881  -2.615   3.679  0.00  0.00    +0.098 C 
BRANCH  23  24
ATOM     24  O   UNL     1       2.784  -3.559   4.748  0.00  0.00    -0.394 OA
ATOM     25  H   UNL     1       1.967  -4.076   4.743  0.00  0.00    +0.210 HD
ENDBRANCH  23  24
BRANCH  23  26
ATOM     26  C   UNL     1       1.719  -1.624   3.768  0.00  0.00    +0.033 C 
BRANCH  26  27
ATOM     27  C   UNL     1       1.849  -0.799   5.050  0.00  0.00    +0.029 C 
BRANCH  27  29
ATOM     28  C   UNL     1      -0.064   0.194   6.197  0.00  0.00    +0.004 C 
ATOM     29  C   UNL     1       0.705   0.178   5.136  0.00  0.00    -0.034 C 
ENDBRANCH  27  29
ENDBRANCH  26  27
ENDBRANCH  23  26
ENDBRANCH  22  23
ENDBRANCH  20  22
BRANCH  20  30
ATOM     30  C   UNL     1       4.074  -4.708   0.807  0.00  0.00    -0.002 C 
BRANCH  30  31
ATOM     31  C   UNL     1       4.209  -3.586  -0.191  0.00  0.00    +0.089 A 
ATOM     32  C   UNL     1       5.361  -3.143  -0.724  0.00  0.00    +0.042 A 
ATOM     33  C   UNL     1       5.026  -2.088  -1.604  0.00  0.00    +0.041 A 
ATOM     34  C   UNL     1       3.689  -1.950  -1.555  0.00  0.00    +0.195 A 
ATOM     35  O   UNL     1       3.199  -2.864  -0.702  0.00  0.00    -0.470 OA
ENDBRANCH  30  31
ENDBRANCH  20  30
ENDBRANCH  19  20
ENDBRANCH   1  19
TORSDOF 11
