REMARK  Name = ZINC00928379
REMARK  7 active torsions:
REMARK  status: ('A' for Active; 'I' for Inactive)
REMARK    1  A    between atoms: C_1  and  C_2
REMARK    2  A    between atoms: C_5  and  O_29
REMARK    3  A    between atoms: C_6  and  N_8
REMARK    4  A    between atoms: C_9  and  C_11
REMARK    5  A    between atoms: C_11  and  S_12
REMARK    6  A    between atoms: S_12  and  C_13
REMARK    7  A    between atoms: O_29  and  C_30
REMARK                            x       y       z     vdW  Elec       q    Type
REMARK                         _______ _______ _______ _____ _____    ______ ____
ROOT
ATOM      1  C   UNL     1      -7.139  -0.102  -1.901  0.00  0.00    +0.198 A 
ATOM      2  N   UNL     1      -6.210  -0.128  -2.829  0.00  0.00    -0.122 NA
ATOM      3  N   UNL     1      -5.061   0.149  -2.319  0.00  0.00    -0.128 NA
ATOM      4  C   UNL     1      -5.191   0.369  -1.034  0.00  0.00    +0.173 A 
ATOM      5  N   UNL     1      -6.524   0.217  -0.722  0.00  0.00    -0.260 N 
ATOM      6  C   UNL     1      -6.960   0.388   0.559  0.00  0.00    +0.208 A 
ATOM      7  N   UNL     1      -6.138   0.697   1.521  0.00  0.00    -0.230 NA
ATOM      8  C   UNL     1      -4.834   0.864   1.316  0.00  0.00    +0.114 A 
ATOM      9  C   UNL     1      -4.247   0.720   0.050  0.00  0.00    +0.056 A 
ATOM     10  C   UNL     1      -2.847   0.925  -0.031  0.00  0.00    -0.024 A 
ATOM     11  C   UNL     1      -2.191   1.240   1.110  0.00  0.00    -0.004 A 
ATOM     12  S   UNL     1      -3.453   1.274   2.355  0.00  0.00    -0.073 S 
ATOM     13  C   UNL     1      -0.723   1.498   1.280  0.00  0.00    +0.043 C 
ATOM     14  C   UNL     1       0.001   0.995   0.022  0.00  0.00    +0.005 C 
ATOM     15  C   UNL     1      -0.741   1.512  -1.214  0.00  0.00    +0.005 C 
ATOM     16  C   UNL     1      -2.088   0.801  -1.350  0.00  0.00    +0.037 C 
ENDROOT
BRANCH   1  17
ATOM     17  S   UNL     1      -8.857  -0.418  -2.132  0.00  0.00    -0.076 S 
BRANCH  17  18
ATOM     18  C   UNL     1      -9.004  -0.772  -3.905  0.00  0.00    +0.173 C 
BRANCH  18  20
ATOM     19  N   UNL     1     -10.793  -1.357  -5.510  0.00  0.00    -0.282 N 
ATOM     20  C   UNL     1     -10.443  -1.064  -4.242  0.00  0.00    +0.228 C 
ATOM     21  O   UNL     1     -11.287  -1.035  -3.371  0.00  0.00    -0.275 OA
ATOM     22  H   UNL     1     -10.134  -1.301  -6.220  0.00  0.00    +0.155 HD
BRANCH  19  28
ATOM     23  C   UNL     1     -15.062  -3.304  -4.039  0.00  0.00    +0.044 C 
ATOM     24  C   UNL     1     -14.200  -2.687  -5.110  0.00  0.00    -0.048 A 
ATOM     25  C   UNL     1     -14.708  -2.501  -6.382  0.00  0.00    +0.007 A 
ATOM     26  C   UNL     1     -13.922  -1.937  -7.369  0.00  0.00    +0.048 A 
ATOM     27  C   UNL     1     -12.621  -1.555  -7.085  0.00  0.00    +0.141 A 
ATOM     28  C   UNL     1     -12.108  -1.741  -5.803  0.00  0.00    +0.076 A 
ATOM     29  C   UNL     1     -12.901  -2.313  -4.819  0.00  0.00    +0.030 A 
BRANCH  27  30
ATOM     30  O   UNL     1     -11.846  -0.999  -8.055  0.00  0.00    -0.493 OA
ATOM     31  C   UNL     1     -12.438  -0.839  -9.345  0.00  0.00    +0.277 C 
ENDBRANCH  27  30
ENDBRANCH  19  28
ENDBRANCH  18  20
ENDBRANCH  17  18
ENDBRANCH   1  17
TORSDOF 5
