REMARK  Name = ZINC36124004
REMARK  12 active torsions:
REMARK  status: ('A' for Active; 'I' for Inactive)
REMARK    1  A    between atoms: C_1  and  C_2
REMARK    2  A    between atoms: C_7  and  O_8
REMARK    3  A    between atoms: O_8  and  C_9
REMARK    4  A    between atoms: C_9  and  C_10
REMARK    5  A    between atoms: C_20  and  C_22
REMARK    6  A    between atoms: C_22  and  N_23
REMARK    7  A    between atoms: N_23  and  C_24
REMARK    8  A    between atoms: C_24  and  C_25
REMARK    9  A    between atoms: N_33  and  C_34
REMARK   10  A    between atoms: C_34  and  C_35
REMARK   11  A    between atoms: C_34  and  C_36
REMARK   12  A    between atoms: C_34  and  C_37
REMARK                            x       y       z     vdW  Elec       q    Type
REMARK                         _______ _______ _______ _____ _____    ______ ____
ROOT
ATOM      1  C   UNL     1       0.047   0.104   4.793  0.00  0.00    +0.144 C 
ATOM      2  C   UNL     1      -1.133   1.071   4.710  0.00  0.00    -0.014 A 
ATOM      3  C   UNL     1      -2.454   0.685   4.931  0.00  0.00    +0.013 A 
ATOM      4  C   UNL     1      -3.449   1.596   4.836  0.00  0.00    +0.046 A 
ATOM      5  S   UNL     1      -2.550   3.082   4.419  0.00  0.00    -0.101 S 
ATOM      6  C   UNL     1      -0.921   2.381   4.405  0.00  0.00    -0.004 A 
ATOM      7  C   UNL     1       0.380   3.061   4.131  0.00  0.00    +0.061 C 
ATOM      8  C   UNL     1       1.444   1.991   3.841  0.00  0.00    +0.114 C 
ATOM      9  N   UNL     1       1.281   0.900   4.815  0.00  0.00    -0.289 N 
ATOM     10  C   UNL     1       2.249   0.637   5.715  0.00  0.00    +0.234 C 
ATOM     11  O   UNL     1       2.105  -0.264   6.515  0.00  0.00    -0.274 OA
ENDROOT
BRANCH   1  12
ATOM     12  C   UNL     1       0.048  -0.820   3.574  0.00  0.00    +0.256 C 
BRANCH  12  13
ATOM     13  O   UNL     1       0.025  -0.033   2.381  0.00  0.00    -0.490 OA
BRANCH  13  20
ATOM     14  C   UNL     1      -0.018   1.503   0.010  0.00  0.00    +0.047 C 
ATOM     15  C   UNL     1       0.002  -0.004   0.002  0.00  0.00    -0.009 A 
ATOM     16  C   UNL     1       0.006  -0.689  -1.198  0.00  0.00    +0.007 A 
ATOM     17  C   UNL     1       0.024  -2.071  -1.206  0.00  0.00    +0.000 A 
ATOM     18  C   UNL     1       0.039  -2.772  -0.014  0.00  0.00    +0.004 A 
ATOM     19  C   UNL     1       0.036  -2.092   1.188  0.00  0.00    +0.046 A 
ATOM     20  C   UNL     1       0.023  -0.705   1.199  0.00  0.00    +0.123 A 
ENDBRANCH  13  20
ENDBRANCH  12  13
ENDBRANCH   1  12
BRANCH  10  21
ATOM     21  C   UNL     1       3.511   1.460   5.727  0.00  0.00    +0.205 C 
BRANCH  21  22
ATOM     22  N   UNL     1       4.398   0.979   6.790  0.00  0.00    -0.274 N 
ATOM     23  C   UNL     1       4.312   1.504   8.028  0.00  0.00    +0.303 C 
ATOM     24  O   UNL     1       3.498   2.376   8.264  0.00  0.00    -0.253 OA
ATOM     25  N   UNL     1       5.127   1.061   9.006  0.00  0.00    -0.294 N 
ATOM     26  H   UNL     1       5.776   0.365   8.818  0.00  0.00    +0.151 HD
BRANCH  25  27
ATOM     27  C   UNL     1       5.033   1.631  10.352  0.00  0.00    +0.028 C 
ATOM     28  C   UNL     1       3.628   1.396  10.909  0.00  0.00    +0.031 C 
ATOM     29  C   UNL     1       6.062   0.958  11.264  0.00  0.00    +0.031 C 
ATOM     30  C   UNL     1       5.312   3.134  10.290  0.00  0.00    +0.031 C 
ENDBRANCH  25  27
BRANCH  22  31
ATOM     31  C   UNL     1       5.378  -0.072   6.506  0.00  0.00    +0.141 C 
BRANCH  31  32
ATOM     32  C   UNL     1       6.692   0.566   6.050  0.00  0.00    +0.136 C 
ATOM     33  C   UNL     1       7.691  -0.534   5.633  0.00  0.00    +0.035 C 
ATOM     34  C   UNL     1       9.036   0.015   6.184  0.00  0.00    +0.031 C 
ATOM     35  C   UNL     1       8.555   0.730   7.472  0.00  0.00    +0.160 C 
ATOM     36  O   UNL     1       7.278   1.298   7.133  0.00  0.00    -0.375 OA
ENDBRANCH  31  32
ENDBRANCH  22  31
ENDBRANCH  21  22
ENDBRANCH  10  21
TORSDOF 8
