REMARK  Name = ZINC45917456
REMARK  12 active torsions:
REMARK  status: ('A' for Active; 'I' for Inactive)
REMARK    1  A    between atoms: C_1  and  C_2
REMARK    2  A    between atoms: C_2  and  N_3
REMARK    3  A    between atoms: N_3  and  C_4
REMARK    4  A    between atoms: C_4  and  C_5
REMARK    5  A    between atoms: N_7  and  C_8
REMARK    6  A    between atoms: C_8  and  C_9
REMARK    7  A    between atoms: C_14  and  C_16
REMARK    8  A    between atoms: C_16  and  O_17
REMARK    9  A    between atoms: O_17  and  C_18
REMARK   10  A    between atoms: C_18  and  C_20
REMARK   11  A    between atoms: C_22  and  C_30
REMARK   12  A    between atoms: C_26  and  C_29
REMARK                            x       y       z     vdW  Elec       q    Type
REMARK                         _______ _______ _______ _____ _____    ______ ____
ROOT
ATOM      1  O   UNL     1      -2.040  -0.071   3.822  0.00  0.00    -0.452 OA
ENDROOT
BRANCH   1   2
ATOM      2  C   UNL     1      -1.522  -0.139   5.064  0.00  0.00    +0.341 C 
ATOM      3  O   UNL     1      -0.354   0.134   5.250  0.00  0.00    -0.245 OA
BRANCH   2   4
ATOM      4  C   UNL     1      -2.377  -0.545   6.201  0.00  0.00    +0.075 A 
ATOM      5  C   UNL     1      -3.718  -0.181   6.256  0.00  0.00    +0.047 A 
ATOM      6  C   UNL     1      -4.490  -0.588   7.351  0.00  0.00    +0.111 A 
ATOM      7  N   UNL     1      -3.967  -1.311   8.333  0.00  0.00    -0.207 NA
ATOM      8  C   UNL     1      -2.697  -1.683   8.328  0.00  0.00    +0.260 A 
ATOM      9  C   UNL     1      -1.857  -1.320   7.261  0.00  0.00    +0.077 A 
ATOM     10  C   UNL     1      -0.542  -1.885   7.551  0.00  0.00    +0.091 A 
ATOM     11  N   UNL     1      -0.633  -2.518   8.682  0.00  0.00    -0.080 NA
ATOM     12  O   UNL     1      -1.948  -2.402   9.188  0.00  0.00    -0.334 OA
ATOM     13  C   UNL     1       0.693  -1.758   6.697  0.00  0.00    +0.070 C 
BRANCH   6  14
ATOM     14  C   UNL     1      -5.912  -0.205   7.414  0.00  0.00    +0.153 A 
ATOM     15  C   UNL     1      -6.782  -0.521   8.414  0.00  0.00    +0.051 A 
ATOM     16  C   UNL     1      -8.022   0.045   8.066  0.00  0.00    +0.042 A 
ATOM     17  C   UNL     1      -7.853   0.672   6.884  0.00  0.00    +0.196 A 
ATOM     18  O   UNL     1      -6.577   0.524   6.496  0.00  0.00    -0.461 OA
ENDBRANCH   6  14
ENDBRANCH   2   4
ENDBRANCH   1   2
BRANCH   1  19
ATOM     19  C   UNL     1      -1.158   0.329   2.772  0.00  0.00    +0.328 C 
BRANCH  19  21
ATOM     20  N   UNL     1      -1.273   0.697   0.329  0.00  0.00    -0.290 N 
ATOM     21  C   UNL     1      -1.908   0.347   1.465  0.00  0.00    +0.254 C 
ATOM     22  O   UNL     1      -3.083   0.047   1.436  0.00  0.00    -0.272 OA
BRANCH  20  24
ATOM     23  C   UNL     1       0.282   2.565   0.601  0.00  0.00    +0.024 C 
ATOM     24  C   UNL     1       0.146   1.059   0.364  0.00  0.00    +0.105 C 
ENDBRANCH  20  24
BRANCH  20  25
ATOM     25  C   UNL     1      -2.003   0.714  -0.942  0.00  0.00    +0.203 C 
BRANCH  25  26
ATOM     26  C   UNL     1      -1.900  -0.638  -1.598  0.00  0.00    +0.231 C 
ATOM     27  O   UNL     1      -1.279  -1.529  -1.058  0.00  0.00    -0.274 OA
ATOM     28  N   UNL     1      -2.499  -0.858  -2.786  0.00  0.00    -0.309 N 
ATOM     29  H   UNL     1      -2.995  -0.145  -3.218  0.00  0.00    +0.149 HD
BRANCH  28  30
ATOM     30  C   UNL     1      -2.399  -2.173  -3.424  0.00  0.00    +0.146 C 
BRANCH  30  31
ATOM     31  C   UNL     1      -3.149  -2.155  -4.731  0.00  0.00    +0.007 A 
ATOM     32  C   UNL     1      -2.698  -1.842  -5.970  0.00  0.00    +0.013 A 
ATOM     33  C   UNL     1      -3.575  -1.895  -7.037  0.00  0.00    +0.008 A 
ATOM     34  C   UNL     1      -4.862  -2.259  -6.812  0.00  0.00    +0.045 A 
ATOM     35  S   UNL     1      -4.861  -2.547  -5.050  0.00  0.00    -0.100 S 
ENDBRANCH  30  31
ENDBRANCH  28  30
ENDBRANCH  25  26
ENDBRANCH  20  25
ENDBRANCH  19  21
ENDBRANCH   1  19
TORSDOF 10
