REMARK  Name = ZINC27012353
REMARK  5 active torsions:
REMARK  status: ('A' for Active; 'I' for Inactive)
REMARK    1  A    between atoms: C_1  and  C_2
REMARK    2  A    between atoms: C_2  and  C_3
REMARK    3  A    between atoms: C_2  and  C_4
REMARK    4  A    between atoms: N_12  and  C_15
REMARK    5  A    between atoms: C_19  and  N_21
REMARK                            x       y       z     vdW  Elec       q    Type
REMARK                         _______ _______ _______ _____ _____    ______ ____
ROOT
ATOM      1  C   UNL     1       0.720   0.275  -1.320  0.00  0.00    +0.070 C 
ATOM      2  C   UNL     1       0.796  -0.984  -2.179  0.00  0.00    +0.107 C 
ATOM      3  C   UNL     1       1.855  -1.760  -1.311  0.00  0.00    +0.123 C 
ATOM      4  C   UNL     1       1.724  -3.108  -1.809  0.00  0.00    +0.233 C 
ATOM      5  O   UNL     1       2.593  -3.947  -1.906  0.00  0.00    -0.274 OA
ATOM      6  N   UNL     1       0.398  -3.232  -2.148  0.00  0.00    -0.210 N 
ATOM      7  C   UNL     1      -0.277  -2.025  -2.134  0.00  0.00    +0.232 C 
ATOM      8  O   UNL     1      -1.475  -1.843  -2.090  0.00  0.00    -0.274 OA
ATOM      9  C   UNL     1       2.846  -0.766  -0.911  0.00  0.00    +0.136 C 
ATOM     10  N   UNL     1       2.179   0.569  -1.092  0.00  0.00    -0.295 NA
ATOM     11  C   UNL     1       3.308  -0.877   0.520  0.00  0.00    +0.003 A 
ATOM     12  C   UNL     1       2.641  -0.905   1.724  0.00  0.00    +0.008 A 
ATOM     13  C   UNL     1       3.352  -1.015   2.906  0.00  0.00    +0.000 A 
ATOM     14  C   UNL     1       4.732  -1.097   2.874  0.00  0.00    +0.002 A 
ATOM     15  C   UNL     1       5.404  -1.070   1.669  0.00  0.00    +0.023 A 
ATOM     16  C   UNL     1       4.695  -0.960   0.474  0.00  0.00    +0.039 A 
ATOM     17  N   UNL     1       5.138  -0.912  -0.848  0.00  0.00    -0.283 N 
ATOM     18  C   UNL     1       4.122  -0.800  -1.721  0.00  0.00    +0.243 C 
ATOM     19  O   UNL     1       4.211  -0.737  -2.929  0.00  0.00    -0.273 OA
ATOM     20  H   UNL     1       2.576   1.061  -1.879  0.00  0.00    +0.124 HD
ATOM     21  H   UNL     1       6.072  -0.955  -1.107  0.00  0.00    +0.155 HD
ENDROOT
BRANCH   6  22
ATOM     22  C   UNL     1      -0.208  -4.451  -2.486  0.00  0.00    +0.046 A 
ATOM     23  C   UNL     1       0.538  -5.622  -2.485  0.00  0.00    +0.025 A 
ATOM     24  C   UNL     1      -0.060  -6.821  -2.817  0.00  0.00    +0.024 A 
ATOM     25  C   UNL     1      -1.402  -6.856  -3.153  0.00  0.00    +0.071 A 
ATOM     26  C   UNL     1      -2.148  -5.690  -3.155  0.00  0.00    +0.146 A 
ATOM     27  C   UNL     1      -1.555  -4.489  -2.817  0.00  0.00    +0.058 A 
ATOM     28 CL   UNL     1      -2.152  -8.365  -3.571  0.00  0.00    -0.081 Cl
BRANCH  26  29
ATOM     29  N   UNL     1      -3.583  -5.731  -3.515  0.00  0.00    +0.058 N 
ATOM     30  O   UNL     1      -4.235  -4.713  -3.517  0.00  0.00    -0.126 OA
ATOM     31  O   UNL     1      -4.104  -6.783  -3.807  0.00  0.00    -0.126 OA
ENDBRANCH  26  29
ENDBRANCH   6  22
BRANCH   1  33
ATOM     32  C   UNL     1       0.234   1.163   0.964  0.00  0.00    +0.009 C 
ATOM     33  C   UNL     1       0.002  -0.004   0.002  0.00  0.00    +0.001 C 
ATOM     34  C   UNL     1      -1.498  -0.163  -0.255  0.00  0.00    +0.009 C 
ENDBRANCH   1  33
TORSDOF 3
