REMARK  Name = ZINC04011984
REMARK  5 active torsions:
REMARK  status: ('A' for Active; 'I' for Inactive)
REMARK    1  A    between atoms: C_6  and  C_7
REMARK    2  A    between atoms: N_9  and  C_27
REMARK    3  A    between atoms: C_12  and  C_14
REMARK    4  A    between atoms: C_14  and  C_16
REMARK    5  A    between atoms: C_14  and  N_55
REMARK                            x       y       z     vdW  Elec       q    Type
REMARK                         _______ _______ _______ _____ _____    ______ ____
ROOT
ATOM      1  C   UNL     1       4.292   4.315  -0.081  0.00  0.00    +0.078 C 
ATOM      2  N   UNL     1       3.170   3.671  -0.110  0.00  0.00    -0.176 NA
ATOM      3  N   UNL     1       2.065   4.507   0.015  0.00  0.00    -0.160 N 
ATOM      4  C   UNL     1       2.439   5.796   0.146  0.00  0.00    +0.247 C 
ATOM      5  O   UNL     1       1.717   6.762   0.277  0.00  0.00    -0.273 OA
ATOM      6  C   UNL     1       3.954   5.781   0.093  0.00  0.00    +0.119 C 
ENDROOT
BRANCH   1  12
ATOM      7  C   UNL     1       6.760   4.566  -0.290  0.00  0.00    +0.011 A 
ATOM      8  C   UNL     1       8.020   4.014  -0.388  0.00  0.00    +0.020 A 
ATOM      9  C   UNL     1       8.178   2.638  -0.402  0.00  0.00    +0.041 A 
ATOM     10  C   UNL     1       7.074   1.807  -0.310  0.00  0.00    +0.020 A 
ATOM     11  C   UNL     1       5.809   2.346  -0.206  0.00  0.00    +0.011 A 
ATOM     12  C   UNL     1       5.642   3.733  -0.192  0.00  0.00    -0.001 A 
ATOM     13 CL   UNL     1       9.767   1.953  -0.533  0.00  0.00    -0.084 Cl
ENDBRANCH   1  12
BRANCH   3  14
ATOM     14  C   UNL     1       0.736   4.067   0.011  0.00  0.00    +0.060 A 
ATOM     15  C   UNL     1       0.452   2.715  -0.130  0.00  0.00    +0.027 A 
ATOM     16  C   UNL     1      -0.860   2.283  -0.133  0.00  0.00    +0.022 A 
ATOM     17  C   UNL     1      -1.891   3.197  -0.001  0.00  0.00    +0.041 A 
ATOM     18  C   UNL     1      -1.610   4.544   0.145  0.00  0.00    +0.022 A 
ATOM     19  C   UNL     1      -0.300   4.981   0.149  0.00  0.00    +0.027 A 
ATOM     20 CL   UNL     1      -3.539   2.651  -0.011  0.00  0.00    -0.084 Cl
ENDBRANCH   3  14
BRANCH   6  21
ATOM     21  C   UNL     1       4.543   6.321   1.398  0.00  0.00    -0.020 C 
BRANCH  21  22
ATOM     22  C   UNL     1       4.205   7.783   1.536  0.00  0.00    -0.060 A 
ATOM     23  C   UNL     1       2.999   8.163   2.096  0.00  0.00    +0.003 A 
ATOM     24  C   UNL     1       2.690   9.504   2.228  0.00  0.00    +0.020 A 
ATOM     25  C   UNL     1       3.583  10.465   1.788  0.00  0.00    +0.041 A 
ATOM     26  C   UNL     1       4.787  10.084   1.223  0.00  0.00    +0.020 A 
ATOM     27  C   UNL     1       5.097   8.743   1.097  0.00  0.00    +0.003 A 
ATOM     28 CL   UNL     1       3.192  12.149   1.946  0.00  0.00    -0.084 Cl
ENDBRANCH  21  22
BRANCH  21  33
ATOM     29  C   UNL     1       4.508   4.191   2.578  0.00  0.00    -0.078 C 
ATOM     30  C   UNL     1       4.255   3.762   4.045  0.00  0.00    -0.020 C 
ATOM     31  C   UNL     1       4.538   5.058   4.838  0.00  0.00    -0.020 C 
ATOM     32  C   UNL     1       4.368   6.199   3.818  0.00  0.00    -0.078 C 
ATOM     33  N   UNL     1       3.981   5.565   2.558  0.00  0.00    +0.385 N 
ATOM     34  H   UNL     1       2.957   5.543   2.480  0.00  0.00    -0.081 HD
ENDBRANCH  21  33
ENDBRANCH   6  21
TORSDOF 5
