REMARK  Name = ZINC35990978
REMARK  9 active torsions:
REMARK  status: ('A' for Active; 'I' for Inactive)
REMARK    1  A    between atoms: C_1  and  C_2
REMARK    2  A    between atoms: C_2  and  O_3
REMARK    3  A    between atoms: O_3  and  C_4
REMARK    4  A    between atoms: C_4  and  C_6
REMARK    5  A    between atoms: C_7  and  C_25
REMARK    6  A    between atoms: N_8  and  C_22
REMARK    7  A    between atoms: C_12  and  C_14
REMARK    8  A    between atoms: C_22  and  C_23
REMARK    9  A    between atoms: C_25  and  N_26
REMARK                            x       y       z     vdW  Elec       q    Type
REMARK                         _______ _______ _______ _____ _____    ______ ____
ROOT
ATOM      1  C   UNL     1      -1.891  -2.443   0.076  0.00  0.00    +0.076 C 
ATOM      2  C   UNL     1      -2.370  -3.704   0.003  0.00  0.00    +0.011 C 
ATOM      3  N   UNL     1      -3.713  -3.950   0.023  0.00  0.00    -0.257 N 
ATOM      4  C   UNL     1      -4.643  -2.991   0.114  0.00  0.00    +0.307 C 
ATOM      5  O   UNL     1      -5.816  -3.308   0.124  0.00  0.00    -0.252 OA
ATOM      6  N   UNL     1      -4.320  -1.685   0.194  0.00  0.00    -0.288 N 
ATOM      7  C   UNL     1      -2.895  -1.313   0.187  0.00  0.00    +0.143 C 
ATOM      8  H   UNL     1      -5.010  -1.006   0.259  0.00  0.00    +0.151 HD
ENDROOT
BRANCH   7   9
ATOM      9  C   UNL     1      -2.670  -0.377  -0.972  0.00  0.00    -0.021 A 
ATOM     10  C   UNL     1      -3.184  -0.684  -2.218  0.00  0.00    +0.007 A 
ATOM     11  C   UNL     1      -2.979   0.174  -3.282  0.00  0.00    +0.022 A 
ATOM     12  C   UNL     1      -2.258   1.341  -3.100  0.00  0.00    +0.059 A 
ATOM     13  C   UNL     1      -1.743   1.648  -1.853  0.00  0.00    +0.060 A 
ATOM     14  C   UNL     1      -1.955   0.791  -0.788  0.00  0.00    +0.027 A 
ATOM     15 CL   UNL     1      -0.838   3.112  -1.623  0.00  0.00    -0.082 Cl
ATOM     16 CL   UNL     1      -1.998   2.418  -4.437  0.00  0.00    -0.082 Cl
ENDBRANCH   7   9
BRANCH   1  17
ATOM     17  C   UNL     1      -0.500  -2.187   0.056  0.00  0.00    +0.339 C 
ATOM     18  O   UNL     1       0.283  -3.096  -0.143  0.00  0.00    -0.245 OA
BRANCH  17  19
ATOM     19  O   UNL     1      -0.043  -0.933   0.257  0.00  0.00    -0.462 OA
BRANCH  19  21
ATOM     20  C   UNL     1       1.700   0.727   0.470  0.00  0.00    +0.048 C 
ATOM     21  C   UNL     1       1.374  -0.747   0.223  0.00  0.00    +0.229 C 
ENDBRANCH  19  21
ENDBRANCH  17  19
ENDBRANCH   1  17
BRANCH   3  22
ATOM     22  C   UNL     1      -4.162  -5.342  -0.060  0.00  0.00    +0.141 C 
BRANCH  22  23
ATOM     23  C   UNL     1      -4.318  -5.904   1.330  0.00  0.00    -0.015 C 
ATOM     24  C   UNL     1      -5.443  -6.473   1.683  0.00  0.00    +0.005 C 
ENDBRANCH  22  23
ENDBRANCH   3  22
BRANCH   2  25
ATOM     25  C   UNL     1      -1.406  -4.858  -0.103  0.00  0.00    -0.026 C 
BRANCH  25  26
ATOM     26  N   UNL     1      -0.960  -4.997  -1.496  0.00  0.00    +0.383 N 
ATOM     27  C   UNL     1      -2.104  -5.364  -2.340  0.00  0.00    -0.078 C 
ATOM     28  C   UNL     1      -1.662  -5.430  -3.804  0.00  0.00    -0.019 C 
ATOM     29  C   UNL     1      -0.558  -6.482  -3.951  0.00  0.00    -0.004 C 
ATOM     30  C   UNL     1       0.598  -6.130  -3.010  0.00  0.00    -0.019 C 
ATOM     31  C   UNL     1       0.072  -6.037  -1.577  0.00  0.00    -0.078 C 
ATOM     32  H   UNL     1      -0.578  -4.119  -1.815  0.00  0.00    -0.081 HD
ENDBRANCH  25  26
ENDBRANCH   2  25
TORSDOF 8
