REMARK  Name = ZINC09690982
REMARK  14 active torsions:
REMARK  status: ('A' for Active; 'I' for Inactive)
REMARK    1  A    between atoms: C_1  and  C_2
REMARK    2  A    between atoms: C_2  and  C_3
REMARK    3  A    between atoms: C_6  and  C_9
REMARK    4  A    between atoms: C_9  and  C_11
REMARK    5  A    between atoms: C_9  and  N_59
REMARK    6  A    between atoms: C_11  and  C_12
REMARK    7  A    between atoms: C_11  and  C_13
REMARK    8  A    between atoms: C_14  and  C_15
REMARK    9  A    between atoms: C_14  and  N_59
REMARK   10  A    between atoms: N_17  and  C_18
REMARK   11  A    between atoms: C_20  and  S_25
REMARK   12  A    between atoms: S_25  and  N_28
REMARK   13  A    between atoms: N_28  and  C_29
REMARK   14  A    between atoms: N_28  and  C_30
REMARK                            x       y       z     vdW  Elec       q    Type
REMARK                         _______ _______ _______ _____ _____    ______ ____
ROOT
ATOM      1  C   UNL     1       2.055   4.285   0.114  0.00  0.00    +0.200 C 
ATOM      2  O   UNL     1       3.066   3.617   0.086  0.00  0.00    -0.278 OA
ATOM      3  N   UNL     1       0.850   3.688   0.031  0.00  0.00    -0.286 N 
ATOM      4  H   UNL     1       0.044   4.226  -0.018  0.00  0.00    +0.155 HD
ENDROOT
BRANCH   3   5
ATOM      5  C   UNL     1       0.760   2.291   0.015  0.00  0.00    +0.054 A 
ATOM      6  C   UNL     1       1.755   1.537  -0.594  0.00  0.00    +0.053 A 
ATOM      7  C   UNL     1       1.664   0.159  -0.608  0.00  0.00    +0.107 A 
ATOM      8  C   UNL     1       0.584  -0.471  -0.017  0.00  0.00    +0.030 A 
ATOM      9  C   UNL     1      -0.408   0.276   0.590  0.00  0.00    +0.024 A 
ATOM     10  C   UNL     1      -0.324   1.655   0.608  0.00  0.00    +0.062 A 
ATOM     11 CL   UNL     1      -1.574   2.593   1.364  0.00  0.00    -0.082 Cl
BRANCH   7  12
ATOM     12  S   UNL     1       2.926  -0.798  -1.380  0.00  0.00    +0.060 S 
ATOM     13  O   UNL     1       4.100   0.003  -1.381  0.00  0.00    -0.153 OA
ATOM     14  O   UNL     1       2.883  -2.086  -0.781  0.00  0.00    -0.153 OA
BRANCH  12  15
ATOM     15  N   UNL     1       2.489  -0.998  -2.965  0.00  0.00    -0.183 NA
ATOM     16  C   UNL     1       2.915  -0.022  -3.971  0.00  0.00    +0.131 C 
ATOM     17  C   UNL     1       1.676  -2.150  -3.360  0.00  0.00    +0.131 C 
ENDBRANCH  12  15
ENDBRANCH   7  12
ENDBRANCH   3   5
BRANCH   1  18
ATOM     18  C   UNL     1       2.145   5.784   0.242  0.00  0.00    +0.016 C 
BRANCH  18  19
ATOM     19  N   UNL     1       3.565   6.178   0.313  0.00  0.00    +0.389 N 
ATOM     20  H   UNL     1       4.019   5.672   1.082  0.00  0.00    -0.084 HD
ATOM     21  H   UNL     1       4.027   5.941  -0.573  0.00  0.00    -0.084 HD
BRANCH  19  22
ATOM     22  C   UNL     1       3.682   7.630   0.550  0.00  0.00    -0.038 C 
BRANCH  22  26
ATOM     23  C   UNL     1       7.316   8.417   2.653  0.00  0.00    -0.048 A 
ATOM     24  C   UNL     1       6.165   9.109   2.980  0.00  0.00    +0.004 A 
ATOM     25  C   UNL     1       4.989   8.854   2.299  0.00  0.00    +0.002 A 
ATOM     26  C   UNL     1       4.965   7.907   1.292  0.00  0.00    -0.061 A 
ATOM     27  C   UNL     1       6.114   7.212   0.969  0.00  0.00    +0.002 A 
ATOM     28  C   UNL     1       7.292   7.470   1.646  0.00  0.00    +0.004 A 
BRANCH  23  30
ATOM     29  C   UNL     1       8.694   7.771   4.611  0.00  0.00    +0.009 C 
ATOM     30  C   UNL     1       8.598   8.694   3.396  0.00  0.00    +0.032 C 
ENDBRANCH  23  30
ENDBRANCH  22  26
BRANCH  22  31
ATOM     31  C   UNL     1       3.699   8.366  -0.790  0.00  0.00    -0.027 C 
ATOM     32  C   UNL     1       3.840   9.870  -0.545  0.00  0.00    +0.006 C 
ATOM     33  C   UNL     1       4.880   7.873  -1.629  0.00  0.00    +0.006 C 
ENDBRANCH  22  31
ENDBRANCH  19  22
ENDBRANCH  18  19
ENDBRANCH   1  18
TORSDOF 9
