REMARK  Name = ZINC16846826
REMARK  8 active torsions:
REMARK  status: ('A' for Active; 'I' for Inactive)
REMARK    1  A    between atoms: C_1  and  C_2
REMARK    2  A    between atoms: C_2  and  C_3
REMARK    3  A    between atoms: C_3  and  C_32
REMARK    4  A    between atoms: C_13  and  S_18
REMARK    5  A    between atoms: S_18  and  C_19
REMARK    6  A    between atoms: C_19  and  C_20
REMARK    7  A    between atoms: N_22  and  C_23
REMARK    8  A    between atoms: C_28  and  C_29
REMARK                            x       y       z     vdW  Elec       q    Type
REMARK                         _______ _______ _______ _____ _____    ______ ____
ROOT
ATOM      1  C   UNL     1      -2.446   1.096  -0.325  0.00  0.00    +0.071 C 
ATOM      2  C   UNL     1      -1.356   2.085   0.093  0.00  0.00    +0.071 C 
ATOM      3  C   UNL     1      -0.018   1.350   0.076  0.00  0.00    -0.019 A 
ATOM      4  C   UNL     1       0.001  -0.003   0.075  0.00  0.00    +0.021 A 
ATOM      5  S   UNL     1       1.716  -0.435   0.045  0.00  0.00    -0.071 S 
ATOM      6  C   UNL     1       2.403   1.203   0.036  0.00  0.00    +0.116 A 
ATOM      7  C   UNL     1       1.271   2.031   0.056  0.00  0.00    +0.056 A 
ATOM      8  C   UNL     1       1.556   3.482   0.053  0.00  0.00    +0.174 A 
ATOM      9  N   UNL     1       0.807   4.557   0.066  0.00  0.00    -0.128 NA
ATOM     10  N   UNL     1       1.554   5.606   0.056  0.00  0.00    -0.122 NA
ATOM     11  C   UNL     1       2.821   5.264   0.036  0.00  0.00    +0.199 A 
ATOM     12  N   UNL     1       2.870   3.896   0.033  0.00  0.00    -0.241 N 
ATOM     13  C   UNL     1       3.886   2.979   0.016  0.00  0.00    +0.202 A 
ATOM     14  N   UNL     1       3.641   1.691   0.017  0.00  0.00    -0.208 NA
ATOM     15  N   UNL     1       5.190   3.418  -0.004  0.00  0.00    -0.328 N 
ATOM     16  C   UNL     1      -1.194  -0.905   0.095  0.00  0.00    +0.203 C 
ATOM     17  O   UNL     1      -2.341  -0.110   0.437  0.00  0.00    -0.368 OA
ATOM     18  C   UNL     1      -2.284   0.772  -1.811  0.00  0.00    +0.042 C 
ATOM     19  H   UNL     1       5.918   2.776  -0.016  0.00  0.00    +0.145 HD
ATOM     20  H   UNL     1       5.382   4.369  -0.005  0.00  0.00    +0.145 HD
ENDROOT
BRANCH   1  22
ATOM     21  C   UNL     1      -4.912   0.747  -0.528  0.00  0.00    +0.007 C 
ATOM     22  C   UNL     1      -3.821   1.726  -0.089  0.00  0.00    +0.032 C 
ENDBRANCH   1  22
BRANCH  11  23
ATOM     23  S   UNL     1       4.200   6.360   0.017  0.00  0.00    -0.076 S 
BRANCH  23  24
ATOM     24  C   UNL     1       3.449   8.011   0.030  0.00  0.00    +0.173 C 
BRANCH  24  25
ATOM     25  C   UNL     1       4.534   9.057   0.015  0.00  0.00    +0.227 C 
ATOM     26  O   UNL     1       5.699   8.722  -0.003  0.00  0.00    -0.275 OA
ATOM     27  N   UNL     1       4.209  10.365   0.022  0.00  0.00    -0.285 N 
ATOM     28  H   UNL     1       3.280  10.634  -0.044  0.00  0.00    +0.155 HD
BRANCH  27  29
ATOM     29  C   UNL     1       5.213  11.335   0.125  0.00  0.00    +0.036 A 
ATOM     30  C   UNL     1       6.428  11.018   0.719  0.00  0.00    +0.023 A 
ATOM     31  C   UNL     1       7.418  11.976   0.814  0.00  0.00    +0.002 A 
ATOM     32  C   UNL     1       7.197  13.252   0.328  0.00  0.00    +0.000 A 
ATOM     33  C   UNL     1       5.987  13.571  -0.259  0.00  0.00    +0.005 A 
ATOM     34  C   UNL     1       4.994  12.616  -0.362  0.00  0.00    -0.029 A 
ATOM     35  C   UNL     1       3.675  12.966  -1.001  0.00  0.00    +0.045 C 
ENDBRANCH  27  29
ENDBRANCH  24  25
ENDBRANCH  23  24
ENDBRANCH  11  23
TORSDOF 5
