REMARK  Name = ZINC43307515
REMARK  9 active torsions:
REMARK  status: ('A' for Active; 'I' for Inactive)
REMARK    1  A    between atoms: C_1  and  C_2
REMARK    2  A    between atoms: C_2  and  N_9
REMARK    3  A    between atoms: N_9  and  N_10
REMARK    4  A    between atoms: N_13  and  C_14
REMARK    5  A    between atoms: C_14  and  C_15
REMARK    6  A    between atoms: C_15  and  C_17
REMARK    7  A    between atoms: C_15  and  N_24
REMARK    8  A    between atoms: N_24  and  C_25
REMARK    9  A    between atoms: N_24  and  C_26
REMARK                            x       y       z     vdW  Elec       q    Type
REMARK                         _______ _______ _______ _____ _____    ______ ____
ROOT
ATOM      1  N   UNL     1      -2.821   0.725  -1.070  0.00  0.00    -0.234 N 
ATOM      2  C   UNL     1      -4.013   0.102  -1.166  0.00  0.00    +0.313 C 
ATOM      3  O   UNL     1      -4.760   0.360  -2.090  0.00  0.00    -0.252 OA
ATOM      4  N   UNL     1      -4.377  -0.805  -0.238  0.00  0.00    -0.300 N 
ATOM      5  H   UNL     1      -2.560   1.378  -1.737  0.00  0.00    +0.171 HD
ATOM      6  H   UNL     1      -3.780  -1.010   0.499  0.00  0.00    +0.150 HD
ENDROOT
BRANCH   1   7
ATOM      7  N   UNL     1      -1.982   0.435  -0.032  0.00  0.00    -0.232 NA
ATOM      8  H   UNL     1      -2.440   0.581   0.856  0.00  0.00    +0.145 HD
BRANCH   7  10
ATOM      9  C   UNL     1      -1.108   2.708  -0.091  0.00  0.00    +0.031 C 
ATOM     10  C   UNL     1      -0.745   1.222  -0.120  0.00  0.00    +0.054 C 
ATOM     11  C   UNL     1      -0.064   0.910  -1.452  0.00  0.00    +0.047 C 
ATOM     12  C   UNL     1       1.474   1.100  -1.329  0.00  0.00    +0.168 C 
ATOM     13  S   UNL     1       1.736   0.397   0.359  0.00  0.00    -0.029 S 
ATOM     14  O   UNL     1       2.792   1.100   0.999  0.00  0.00    -0.174 OA
ATOM     15  O   UNL     1       1.785  -1.020   0.273  0.00  0.00    -0.174 OA
ATOM     16  C   UNL     1       0.132   0.904   1.107  0.00  0.00    +0.189 C 
ENDBRANCH   7  10
ENDBRANCH   1   7
BRANCH   4  17
ATOM     17  C   UNL     1      -5.672  -1.481  -0.343  0.00  0.00    +0.095 C 
BRANCH  17  18
ATOM     18  C   UNL     1      -5.785  -2.540   0.756  0.00  0.00    -0.020 C 
BRANCH  18  19
ATOM     19  C   UNL     1      -4.753  -3.613   0.528  0.00  0.00    -0.041 A 
ATOM     20  C   UNL     1      -3.577  -3.608   1.255  0.00  0.00    +0.003 A 
ATOM     21  C   UNL     1      -2.630  -4.592   1.046  0.00  0.00    +0.000 A 
ATOM     22  C   UNL     1      -2.857  -5.583   0.109  0.00  0.00    +0.001 A 
ATOM     23  C   UNL     1      -4.032  -5.590  -0.619  0.00  0.00    +0.020 A 
ATOM     24  C   UNL     1      -4.983  -4.608  -0.406  0.00  0.00    +0.043 A 
ATOM     25 CL   UNL     1      -6.462  -4.619  -1.315  0.00  0.00    -0.083 Cl
ENDBRANCH  18  19
BRANCH  18  26
ATOM     26  N   UNL     1      -5.558  -1.913   2.065  0.00  0.00    +0.382 N 
ATOM     27  C   UNL     1      -6.480  -0.781   2.232  0.00  0.00    -0.096 C 
ATOM     28  C   UNL     1      -5.796  -2.898   3.128  0.00  0.00    -0.096 C 
ATOM     29  H   UNL     1      -4.606  -1.582   2.119  0.00  0.00    -0.082 HD
ENDBRANCH  18  26
ENDBRANCH  17  18
ENDBRANCH   4  17
TORSDOF 6
