REMARK  Name = ZINC36157185
REMARK  13 active torsions:
REMARK  status: ('A' for Active; 'I' for Inactive)
REMARK    1  A    between atoms: C_1  and  C_2
REMARK    2  A    between atoms: C_5  and  C_8
REMARK    3  A    between atoms: C_8  and  N_9
REMARK    4  A    between atoms: N_9  and  C_10
REMARK    5  A    between atoms: N_9  and  C_14
REMARK    6  A    between atoms: C_10  and  C_11
REMARK    7  A    between atoms: C_11  and  O_12
REMARK    8  A    between atoms: O_12  and  C_13
REMARK    9  A    between atoms: C_14  and  C_15
REMARK   10  A    between atoms: C_18  and  C_20
REMARK   11  A    between atoms: C_20  and  C_21
REMARK   12  A    between atoms: C_20  and  C_28
REMARK   13  A    between atoms: C_20  and  O_35
REMARK                            x       y       z     vdW  Elec       q    Type
REMARK                         _______ _______ _______ _____ _____    ______ ____
ROOT
ATOM      1  C   UNL     1       1.554  -6.239   1.120  0.00  0.00    +0.089 A 
ATOM      2  C   UNL     1       2.276  -6.711   2.151  0.00  0.00    +0.043 A 
ATOM      3  C   UNL     1       3.584  -6.940   1.665  0.00  0.00    +0.048 A 
ATOM      4  C   UNL     1       3.583  -6.594   0.365  0.00  0.00    +0.146 A 
ATOM      5  O   UNL     1       2.349  -6.176   0.039  0.00  0.00    -0.463 OA
ENDROOT
BRANCH   1   6
ATOM      6  C   UNL     1       0.098  -5.852   1.167  0.00  0.00    -0.003 C 
BRANCH   6   7
ATOM      7  N   UNL     1      -0.020  -4.431   1.520  0.00  0.00    +0.389 N 
ATOM      8  H   UNL     1       0.471  -4.257   2.384  0.00  0.00    -0.081 HD
BRANCH   7   9
ATOM      9  C   UNL     1      -1.438  -4.084   1.683  0.00  0.00    -0.042 C 
BRANCH   9  14
ATOM     10  C   UNL     1      -3.606  -6.911   6.233  0.00  0.00    +0.044 C 
ATOM     11  C   UNL     1      -3.040  -6.174   5.046  0.00  0.00    -0.050 A 
ATOM     12  C   UNL     1      -2.367  -4.981   5.231  0.00  0.00    +0.003 A 
ATOM     13  C   UNL     1      -1.848  -4.304   4.142  0.00  0.00    +0.002 A 
ATOM     14  C   UNL     1      -2.002  -4.821   2.870  0.00  0.00    -0.064 A 
ATOM     15  C   UNL     1      -2.675  -6.015   2.685  0.00  0.00    +0.002 A 
ATOM     16  C   UNL     1      -3.190  -6.694   3.774  0.00  0.00    +0.003 A 
ENDBRANCH   9  14
ENDBRANCH   7   9
BRANCH   7  17
ATOM     17  C   UNL     1       0.565  -3.611   0.451  0.00  0.00    -0.049 C 
BRANCH  17  18
ATOM     18  C   UNL     1       0.587  -2.145   0.887  0.00  0.00    +0.141 C 
BRANCH  18  19
ATOM     19  O   UNL     1       1.478  -1.990   1.994  0.00  0.00    -0.385 OA
ATOM     20  C   UNL     1       1.573  -0.651   2.481  0.00  0.00    +0.193 C 
ENDBRANCH  18  19
ENDBRANCH  17  18
ENDBRANCH   7  17
ENDBRANCH   6   7
ENDBRANCH   1   6
BRANCH   4  21
ATOM     21  C   UNL     1       4.763  -6.669  -0.568  0.00  0.00    +0.174 C 
BRANCH  21  22
ATOM     22  C   UNL     1       4.279  -6.923  -1.972  0.00  0.00    -0.002 A 
ATOM     23  C   UNL     1       4.592  -8.111  -2.607  0.00  0.00    +0.007 A 
ATOM     24  C   UNL     1       4.148  -8.346  -3.895  0.00  0.00    +0.003 A 
ATOM     25  C   UNL     1       3.390  -7.393  -4.550  0.00  0.00    +0.038 A 
ATOM     26  C   UNL     1       3.076  -6.204  -3.915  0.00  0.00    +0.124 A 
ATOM     27  C   UNL     1       3.516  -5.972  -2.623  0.00  0.00    +0.045 A 
ATOM     28  F   UNL     1       2.336  -5.271  -4.555  0.00  0.00    -0.205 F 
ENDBRANCH  21  22
BRANCH  21  29
ATOM     29  C   UNL     1       5.520  -5.366  -0.527  0.00  0.00    -0.002 A 
ATOM     30  C   UNL     1       4.831  -4.168  -0.484  0.00  0.00    +0.007 A 
ATOM     31  C   UNL     1       5.524  -2.972  -0.446  0.00  0.00    +0.003 A 
ATOM     32  C   UNL     1       6.906  -2.973  -0.450  0.00  0.00    +0.038 A 
ATOM     33  C   UNL     1       7.596  -4.172  -0.493  0.00  0.00    +0.124 A 
ATOM     34  C   UNL     1       6.902  -5.370  -0.525  0.00  0.00    +0.045 A 
ATOM     35  F   UNL     1       8.947  -4.174  -0.497  0.00  0.00    -0.205 F 
ENDBRANCH  21  29
BRANCH  21  36
ATOM     36  O   UNL     1       5.625  -7.734  -0.162  0.00  0.00    -0.372 OA
ATOM     37  H   UNL     1       5.204  -8.604  -0.165  0.00  0.00    +0.212 HD
ENDBRANCH  21  36
ENDBRANCH   4  21
TORSDOF 11
