REMARK  Name = ZINC13943247
REMARK  9 active torsions:
REMARK  status: ('A' for Active; 'I' for Inactive)
REMARK    1  A    between atoms: C_1  and  C_2
REMARK    2  A    between atoms: C_2  and  O_3
REMARK    3  A    between atoms: O_3  and  C_4
REMARK    4  A    between atoms: C_6  and  C_21
REMARK    5  A    between atoms: C_9  and  O_10
REMARK    6  A    between atoms: O_10  and  S_11
REMARK    7  A    between atoms: S_11  and  C_14
REMARK    8  A    between atoms: C_17  and  C_20
REMARK    9  A    between atoms: N_25  and  C_29
REMARK                            x       y       z     vdW  Elec       q    Type
REMARK                         _______ _______ _______ _____ _____    ______ ____
ROOT
ATOM      1  C   UNL     1      -6.089   2.782  -0.137  0.00  0.00    +0.165 A 
ATOM      2  C   UNL     1      -5.013   1.919  -0.060  0.00  0.00    +0.057 A 
ATOM      3  C   UNL     1      -3.709   2.430  -0.065  0.00  0.00    -0.020 A 
ATOM      4  C   UNL     1      -3.504   3.812  -0.159  0.00  0.00    +0.012 A 
ATOM      5  C   UNL     1      -4.583   4.664  -0.241  0.00  0.00    +0.053 A 
ATOM      6  C   UNL     1      -5.875   4.156  -0.231  0.00  0.00    +0.198 A 
ENDROOT
BRANCH   3   7
ATOM      7  C   UNL     1      -2.561   1.519   0.022  0.00  0.00    +0.028 C 
ATOM      8  C   UNL     1      -2.758   0.202   0.286  0.00  0.00    +0.077 C 
ATOM      9  C   UNL     1      -1.793  -0.916   0.271  0.00  0.00    +0.258 C 
ATOM     10  O   UNL     1      -0.621  -0.745  -0.007  0.00  0.00    -0.269 OA
ATOM     11  N   UNL     1      -2.267  -2.112   0.579  0.00  0.00    -0.258 N 
ATOM     12  C   UNL     1      -3.567  -2.297   0.886  0.00  0.00    +0.120 C 
ATOM     13  S   UNL     1      -4.362  -3.753   1.307  0.00  0.00    -0.027 S 
ATOM     14  S   UNL     1      -4.257  -0.656   0.746  0.00  0.00    -0.061 S 
ATOM     15  C   UNL     1      -1.358  -3.261   0.586  0.00  0.00    +0.139 C 
ENDBRANCH   3   7
BRANCH   1  16
ATOM     16  O   UNL     1      -7.356   2.290  -0.127  0.00  0.00    -0.488 OA
BRANCH  16  18
ATOM     17  C   UNL     1      -8.988   0.509  -0.032  0.00  0.00    +0.048 C 
ATOM     18  C   UNL     1      -7.501   0.872  -0.029  0.00  0.00    +0.226 C 
ENDBRANCH  16  18
ENDBRANCH   1  16
BRANCH   6  19
ATOM     19  O   UNL     1      -6.935   5.002  -0.312  0.00  0.00    -0.339 OA
BRANCH  19  20
ATOM     20  S   UNL     1      -7.391   5.288  -1.736  0.00  0.00    +0.151 S 
ATOM     21  O   UNL     1      -8.351   6.332  -1.653  0.00  0.00    -0.131 OA
ATOM     22  O   UNL     1      -6.214   5.397  -2.525  0.00  0.00    -0.131 OA
BRANCH  20  23
ATOM     23  C   UNL     1      -8.249   3.859  -2.306  0.00  0.00    +0.128 A 
ATOM     24  C   UNL     1      -7.559   2.851  -2.954  0.00  0.00    +0.031 A 
ATOM     25  C   UNL     1      -8.232   1.728  -3.397  0.00  0.00    +0.005 A 
ATOM     26  C   UNL     1      -9.595   1.616  -3.201  0.00  0.00    -0.050 A 
ATOM     27  C   UNL     1     -10.286   2.626  -2.558  0.00  0.00    +0.005 A 
ATOM     28  C   UNL     1      -9.613   3.748  -2.111  0.00  0.00    +0.031 A 
ATOM     29  C   UNL     1     -10.329   0.394  -3.688  0.00  0.00    +0.044 C 
ENDBRANCH  20  23
ENDBRANCH  19  20
ENDBRANCH   6  19
TORSDOF 6
