REMARK  Name = ZINC08847397
REMARK  10 active torsions:
REMARK  status: ('A' for Active; 'I' for Inactive)
REMARK    1  A    between atoms: C_1  and  C_2
REMARK    2  A    between atoms: C_2  and  C_4
REMARK    3  A    between atoms: C_2  and  N_16
REMARK    4  A    between atoms: N_6  and  C_7
REMARK    5  A    between atoms: C_12  and  O_13
REMARK    6  A    between atoms: O_13  and  C_14
REMARK    7  A    between atoms: C_27  and  C_31
REMARK    8  A    between atoms: C_31  and  C_32
REMARK    9  A    between atoms: C_31  and  C_33
REMARK   10  A    between atoms: C_31  and  C_34
REMARK                            x       y       z     vdW  Elec       q    Type
REMARK                         _______ _______ _______ _____ _____    ______ ____
ROOT
ATOM      1  N   UNL     1      -0.026  -6.345   1.634  0.00  0.00    -0.287 N 
ATOM      2  C   UNL     1      -1.279  -6.725   1.286  0.00  0.00    +0.204 A 
ATOM      3  N   UNL     1      -2.181  -5.886   0.828  0.00  0.00    -0.230 NA
ATOM      4  C   UNL     1      -1.824  -4.611   0.708  0.00  0.00    +0.116 A 
ATOM      5  C   UNL     1      -0.544  -4.117   1.043  0.00  0.00    +0.076 A 
ATOM      6  C   UNL     1       0.411  -5.067   1.540  0.00  0.00    +0.263 A 
ATOM      7  O   UNL     1       1.543  -4.744   1.858  0.00  0.00    -0.267 OA
ATOM      8  C   UNL     1      -0.333  -2.695   0.846  0.00  0.00    -0.023 A 
ATOM      9  C   UNL     1      -1.381  -1.987   0.362  0.00  0.00    -0.004 A 
ATOM     10  S   UNL     1      -2.684  -3.174   0.150  0.00  0.00    -0.073 S 
ATOM     11  C   UNL     1      -1.427  -0.519   0.070  0.00  0.00    +0.046 C 
ATOM     12  C   UNL     1       0.011   0.018   0.049  0.00  0.00    -0.000 C 
ATOM     13  C   UNL     1       0.745  -0.499   1.290  0.00  0.00    +0.009 C 
ATOM     14  C   UNL     1       0.991  -2.002   1.159  0.00  0.00    +0.037 C 
ENDROOT
BRANCH  12  15
ATOM     15  C   UNL     1      -0.012   1.548   0.066  0.00  0.00    -0.035 C 
ATOM     16  C   UNL     1       1.423   2.079   0.066  0.00  0.00    +0.011 C 
ATOM     17  C   UNL     1      -0.746   2.061  -1.174  0.00  0.00    +0.011 C 
ATOM     18  C   UNL     1      -0.736   2.033   1.324  0.00  0.00    +0.011 C 
ENDBRANCH  12  15
BRANCH   1  20
ATOM     19  C   UNL     1       1.099  -8.441   1.065  0.00  0.00    +0.041 C 
ATOM     20  C   UNL     1       0.899  -7.365   2.134  0.00  0.00    +0.174 C 
BRANCH  20  21
ATOM     21  C   UNL     1       0.328  -7.994   3.379  0.00  0.00    +0.240 C 
ATOM     22  O   UNL     1      -0.746  -7.626   3.807  0.00  0.00    -0.273 OA
ATOM     23  N   UNL     1       1.011  -8.964   4.018  0.00  0.00    -0.281 N 
ATOM     24  H   UNL     1       1.830  -9.314   3.634  0.00  0.00    +0.155 HD
BRANCH  23  25
ATOM     25  C   UNL     1       0.538  -9.467   5.237  0.00  0.00    +0.077 A 
ATOM     26  C   UNL     1      -0.281  -8.688   6.040  0.00  0.00    +0.047 A 
ATOM     27  C   UNL     1      -0.752  -9.189   7.240  0.00  0.00    +0.043 A 
ATOM     28  C   UNL     1      -0.397 -10.463   7.648  0.00  0.00    +0.024 A 
ATOM     29  C   UNL     1       0.423 -11.243   6.855  0.00  0.00    +0.049 A 
ATOM     30  C   UNL     1       0.894 -10.750   5.649  0.00  0.00    +0.141 A 
ATOM     31 CL   UNL     1      -1.784  -8.215   8.241  0.00  0.00    -0.083 Cl
BRANCH  30  32
ATOM     32  O   UNL     1       1.702 -11.516   4.868  0.00  0.00    -0.493 OA
ATOM     33  C   UNL     1       2.025 -12.821   5.353  0.00  0.00    +0.277 C 
ENDBRANCH  30  32
ENDBRANCH  23  25
ENDBRANCH  20  21
ENDBRANCH   1  20
TORSDOF 5
