REMARK  Name = ZINC03615558
REMARK  11 active torsions:
REMARK  status: ('A' for Active; 'I' for Inactive)
REMARK    1  A    between atoms: C_1  and  C_2
REMARK    2  A    between atoms: C_5  and  C_8
REMARK    3  A    between atoms: C_8  and  C_10
REMARK    4  A    between atoms: C_8  and  N_22
REMARK    5  A    between atoms: N_12  and  C_13
REMARK    6  A    between atoms: C_16  and  C_19
REMARK    7  A    between atoms: C_19  and  C_20
REMARK    8  A    between atoms: C_19  and  C_21
REMARK    9  A    between atoms: N_22  and  C_23
REMARK   10  A    between atoms: C_24  and  C_26
REMARK   11  A    between atoms: C_26  and  C_27
REMARK                            x       y       z     vdW  Elec       q    Type
REMARK                         _______ _______ _______ _____ _____    ______ ____
ROOT
ATOM      1  C   UNL     1      -1.106  -0.613  -0.320  0.00  0.00    +0.192 C 
ENDROOT
BRANCH   1   6
ATOM      2  C   UNL     1      -5.589  -1.024  -3.943  0.00  0.00    +0.044 C 
ATOM      3  C   UNL     1      -4.420  -0.917  -2.998  0.00  0.00    -0.050 A 
ATOM      4  C   UNL     1      -4.507  -0.111  -1.879  0.00  0.00    +0.004 A 
ATOM      5  C   UNL     1      -3.435  -0.013  -1.012  0.00  0.00    +0.006 A 
ATOM      6  C   UNL     1      -2.275  -0.720  -1.265  0.00  0.00    -0.018 A 
ATOM      7  C   UNL     1      -2.185  -1.522  -2.387  0.00  0.00    +0.006 A 
ATOM      8  C   UNL     1      -3.259  -1.624  -3.251  0.00  0.00    +0.004 A 
ENDBRANCH   1   6
BRANCH   1   9
ATOM      9  C   UNL     1       0.070  -0.007  -1.042  0.00  0.00    +0.242 C 
ATOM     10  O   UNL     1       1.107  -0.629  -1.142  0.00  0.00    -0.273 OA
ATOM     11  N   UNL     1      -0.030   1.226  -1.578  0.00  0.00    -0.284 N 
ATOM     12  H   UNL     1      -0.994   1.756  -1.562  0.00  0.00    +0.155 HD
BRANCH  11  13
ATOM     13  C   UNL     1       1.092   1.832  -2.153  0.00  0.00    +0.033 A 
ATOM     14  C   UNL     1       2.356   1.594  -1.631  0.00  0.00    +0.023 A 
ATOM     15  C   UNL     1       3.462   2.189  -2.205  0.00  0.00    +0.006 A 
ATOM     16  C   UNL     1       3.311   3.030  -3.292  0.00  0.00    -0.045 A 
ATOM     17  C   UNL     1       2.052   3.274  -3.811  0.00  0.00    +0.006 A 
ATOM     18  C   UNL     1       0.943   2.677  -3.245  0.00  0.00    +0.023 A 
BRANCH  16  19
ATOM     19  C   UNL     1       4.519   3.683  -3.913  0.00  0.00    +0.013 C 
ATOM     20  C   UNL     1       5.223   4.551  -2.868  0.00  0.00    +0.012 C 
ATOM     21  C   UNL     1       5.482   2.603  -4.411  0.00  0.00    +0.012 C 
ENDBRANCH  16  19
ENDBRANCH  11  13
ENDBRANCH   1   9
BRANCH   1  22
ATOM     22  N   UNL     1      -0.746  -1.947   0.166  0.00  0.00    -0.289 N 
ATOM     23  C   UNL     1      -1.417  -3.130  -0.379  0.00  0.00    +0.133 C 
ATOM     24  C   UNL     1       0.203  -2.087   1.113  0.00  0.00    +0.218 C 
ATOM     25  O   UNL     1       0.758  -1.107   1.563  0.00  0.00    -0.276 OA
BRANCH  24  26
ATOM     26  C   UNL     1       0.573  -3.460   1.612  0.00  0.00    +0.127 C 
BRANCH  26  27
ATOM     27  C   UNL     1       1.666  -3.338   2.676  0.00  0.00    +0.169 C 
ATOM     28  C   UNL     1       1.972  -4.692   3.284  0.00  0.00    +0.241 C 
ATOM     29  O   UNL     1       1.210  -5.409   3.897  0.00  0.00    -0.273 OA
ATOM     30  N   UNL     1       3.267  -4.935   3.000  0.00  0.00    -0.239 N 
ATOM     31  C   UNL     1       3.816  -3.933   2.304  0.00  0.00    +0.307 C 
ATOM     32  O   UNL     1       4.973  -3.923   1.932  0.00  0.00    -0.252 OA
ATOM     33  N   UNL     1       2.944  -2.937   2.062  0.00  0.00    -0.287 N 
ATOM     34  H   UNL     1       3.737  -5.870   3.337  0.00  0.00    +0.159 HD
ATOM     35  H   UNL     1       3.024  -1.975   1.536  0.00  0.00    +0.151 HD
ENDBRANCH  26  27
ENDBRANCH  24  26
ENDBRANCH   1  22
TORSDOF 7
