REMARK  Name = ZINC31173242
REMARK  8 active torsions:
REMARK  status: ('A' for Active; 'I' for Inactive)
REMARK    1  A    between atoms: C_1  and  C_2
REMARK    2  A    between atoms: C_2  and  N_3
REMARK    3  A    between atoms: N_3  and  C_4
REMARK    4  A    between atoms: N_3  and  C_16
REMARK    5  A    between atoms: C_4  and  C_5
REMARK    6  A    between atoms: C_16  and  C_17
REMARK    7  A    between atoms: N_19  and  C_20
REMARK    8  A    between atoms: C_25  and  C_26
REMARK                            x       y       z     vdW  Elec       q    Type
REMARK                         _______ _______ _______ _____ _____    ______ ____
ROOT
ATOM      1  C   UNL     1      -0.456   9.505   0.859  0.00  0.00    +0.019 C 
ENDROOT
BRANCH   1   2
ATOM      2  C   UNL     1       0.169  10.157   2.065  0.00  0.00    +0.201 C 
ATOM      3  O   UNL     1       0.929   9.528   2.770  0.00  0.00    -0.278 OA
ATOM      4  N   UNL     1      -0.117  11.441   2.361  0.00  0.00    -0.287 N 
ATOM      5  H   UNL     1      -0.858  11.991   1.762  0.00  0.00    +0.155 HD
BRANCH   4   6
ATOM      6  C   UNL     1       0.528  12.073   3.430  0.00  0.00    +0.045 A 
ATOM      7  C   UNL     1       0.999  11.324   4.500  0.00  0.00    +0.025 A 
ATOM      8  C   UNL     1       1.635  11.950   5.553  0.00  0.00    +0.022 A 
ATOM      9  C   UNL     1       1.805  13.324   5.543  0.00  0.00    +0.042 A 
ATOM     10  C   UNL     1       1.337  14.073   4.478  0.00  0.00    +0.034 A 
ATOM     11  C   UNL     1       0.704  13.451   3.420  0.00  0.00    +0.077 A 
ATOM     12 CL   UNL     1       2.606  14.108   6.868  0.00  0.00    -0.084 Cl
BRANCH  11  13
ATOM     13  C   UNL     1       0.200  14.266   2.257  0.00  0.00    +0.419 C 
ATOM     14  F   UNL     1       0.492  15.617   2.474  0.00  0.00    -0.166 F 
ATOM     15  F   UNL     1       0.824  13.837   1.081  0.00  0.00    -0.166 F 
ATOM     16  F   UNL     1      -1.184  14.102   2.137  0.00  0.00    -0.166 F 
ENDBRANCH  11  13
ENDBRANCH   4   6
ENDBRANCH   1   2
BRANCH   1  17
ATOM     17  N   UNL     1      -0.057   8.092   0.805  0.00  0.00    +0.388 N 
ATOM     18  H   UNL     1      -0.168   7.671   1.816  0.00  0.00    -0.081 HD
BRANCH  17  20
ATOM     19  C   UNL     1       1.551   8.552  -0.983  0.00  0.00    -0.017 C 
ATOM     20  C   UNL     1       1.351   7.957   0.412  0.00  0.00    -0.081 C 
ENDBRANCH  17  20
BRANCH  17  21
ATOM     21  C   UNL     1      -0.931   7.332  -0.098  0.00  0.00    -0.030 C 
BRANCH  21  22
ATOM     22  C   UNL     1      -0.857   5.845   0.251  0.00  0.00    +0.195 C 
ATOM     23  C   UNL     1      -1.889   5.066  -0.576  0.00  0.00    +0.271 C 
ATOM     24  O   UNL     1      -1.783   3.680  -0.236  0.00  0.00    -0.485 OA
ATOM     25  C   UNL     1      -0.527   3.157  -0.186  0.00  0.00    +0.162 A 
ATOM     26  C   UNL     1      -0.361   1.781  -0.229  0.00  0.00    +0.049 A 
ATOM     27  C   UNL     1       0.907   1.235  -0.170  0.00  0.00    +0.004 A 
ATOM     28  C   UNL     1       2.014   2.059  -0.079  0.00  0.00    +0.004 A 
ATOM     29  C   UNL     1       1.855   3.431  -0.042  0.00  0.00    +0.049 A 
ATOM     30  C   UNL     1       0.585   3.986  -0.097  0.00  0.00    +0.162 A 
ATOM     31  O   UNL     1       0.445   5.339  -0.067  0.00  0.00    -0.484 OA
ENDBRANCH  21  22
ENDBRANCH  17  21
ENDBRANCH   1  17
TORSDOF 7
