REMARK  Name = ZINC64604266
REMARK  11 active torsions:
REMARK  status: ('A' for Active; 'I' for Inactive)
REMARK    1  A    between atoms: C_1  and  C_2
REMARK    2  A    between atoms: C_7  and  S_12
REMARK    3  A    between atoms: S_12  and  C_13
REMARK    4  A    between atoms: C_13  and  C_14
REMARK    5  A    between atoms: C_16  and  C_19
REMARK    6  A    between atoms: C_19  and  C_20
REMARK    7  A    between atoms: C_20  and  C_21
REMARK    8  A    between atoms: N_23  and  C_24
REMARK    9  A    between atoms: C_25  and  C_32
REMARK   10  A    between atoms: C_27  and  C_31
REMARK   11  A    between atoms: C_29  and  C_30
REMARK                            x       y       z     vdW  Elec       q    Type
REMARK                         _______ _______ _______ _____ _____    ______ ____
ROOT
ATOM      1  C   UNL     1      -3.347  -5.683   2.659  0.00  0.00    +0.182 A 
ATOM      2  N   UNL     1      -3.728  -6.748   1.944  0.00  0.00    -0.195 NA
ATOM      3  C   UNL     1      -5.013  -6.702   1.723  0.00  0.00    +0.228 A 
ATOM      4  O   UNL     1      -5.497  -5.593   2.296  0.00  0.00    -0.338 OA
ATOM      5  N   UNL     1      -4.391  -4.946   2.907  0.00  0.00    -0.060 NA
ENDROOT
BRANCH   1   6
ATOM      6  C   UNL     1      -1.939  -5.388   3.109  0.00  0.00    +0.152 C 
BRANCH   6   7
ATOM      7  S   UNL     1      -1.652  -6.147   4.731  0.00  0.00    -0.107 S 
BRANCH   7  14
ATOM      8  C   UNL     1       3.138  -1.334   2.319  0.00  0.00    +0.044 C 
ATOM      9  C   UNL     1       2.573  -2.656   2.773  0.00  0.00    -0.048 A 
ATOM     10  C   UNL     1       3.019  -3.832   2.145  0.00  0.00    +0.005 A 
ATOM     11  C   UNL     1       2.567  -5.055   2.486  0.00  0.00    +0.028 A 
ATOM     12  C   UNL     1       1.568  -5.186   3.556  0.00  0.00    +0.061 A 
ATOM     13  N   UNL     1       0.966  -6.212   4.084  0.00  0.00    -0.355 N 
ATOM     14  C   UNL     1       0.063  -5.706   5.125  0.00  0.00    +0.236 C 
ATOM     15  N   UNL     1       0.219  -4.246   5.134  0.00  0.00    -0.355 N 
ATOM     16  C   UNL     1       1.095  -3.941   4.221  0.00  0.00    +0.061 A 
ATOM     17  C   UNL     1       1.663  -2.664   3.767  0.00  0.00    +0.030 A 
ATOM     18  H   UNL     1       1.090  -7.141   3.834  0.00  0.00    +0.162 HD
ATOM     19  H   UNL     1      -0.245  -3.622   5.714  0.00  0.00    +0.162 HD
ENDBRANCH   7  14
ENDBRANCH   6   7
ENDBRANCH   1   6
BRANCH   3  20
ATOM     20  C   UNL     1      -5.813  -7.721   0.954  0.00  0.00    +0.108 C 
BRANCH  20  21
ATOM     21  C   UNL     1      -6.321  -8.800   1.913  0.00  0.00    +0.105 C 
BRANCH  21  22
ATOM     22  C   UNL     1      -7.121  -9.819   1.144  0.00  0.00    +0.218 C 
ATOM     23  O   UNL     1      -7.271  -9.695  -0.053  0.00  0.00    -0.275 OA
ATOM     24  N   UNL     1      -7.670 -10.869   1.787  0.00  0.00    -0.285 N 
ATOM     25  H   UNL     1      -7.490 -11.009   2.730  0.00  0.00    +0.155 HD
BRANCH  24  26
ATOM     26  C   UNL     1      -8.501 -11.757   1.094  0.00  0.00    +0.039 A 
ATOM     27  C   UNL     1      -8.230 -13.119   1.110  0.00  0.00    -0.029 A 
ATOM     28  C   UNL     1      -9.052 -13.993   0.425  0.00  0.00    +0.008 A 
ATOM     29  C   UNL     1     -10.143 -13.513  -0.276  0.00  0.00    -0.050 A 
ATOM     30  C   UNL     1     -10.415 -12.157  -0.294  0.00  0.00    +0.008 A 
ATOM     31  C   UNL     1      -9.601 -11.278   0.394  0.00  0.00    -0.029 A 
ATOM     32  C   UNL     1      -9.902  -9.802   0.379  0.00  0.00    +0.045 C 
ATOM     33  C   UNL     1     -11.037 -14.469  -1.022  0.00  0.00    +0.044 C 
ATOM     34  C   UNL     1      -7.041 -13.643   1.874  0.00  0.00    +0.045 C 
ENDBRANCH  24  26
ENDBRANCH  21  22
ENDBRANCH  20  21
ENDBRANCH   3  20
TORSDOF 7
