REMARK  Name = ZINC58960620
REMARK  6 active torsions:
REMARK  status: ('A' for Active; 'I' for Inactive)
REMARK    1  A    between atoms: C_6  and  C_7
REMARK    2  A    between atoms: C_9  and  C_24
REMARK    3  A    between atoms: C_11  and  S_13
REMARK    4  A    between atoms: S_13  and  C_14
REMARK    5  A    between atoms: C_14  and  C_15
REMARK    6  A    between atoms: N_17  and  C_18
REMARK                            x       y       z     vdW  Elec       q    Type
REMARK                         _______ _______ _______ _____ _____    ______ ____
ROOT
ATOM      1  C   UNL     1      -1.270  -0.764   0.010  0.00  0.00    +0.076 A 
ATOM      2  C   UNL     1      -2.496  -0.097  -0.085  0.00  0.00    +0.060 A 
ATOM      3  C   UNL     1      -3.657  -0.848  -0.073  0.00  0.00    +0.148 A 
ATOM      4  N   UNL     1      -3.576  -2.166   0.027  0.00  0.00    -0.218 NA
ATOM      5  C   UNL     1      -2.400  -2.772   0.116  0.00  0.00    +0.190 A 
ATOM      6  N   UNL     1      -1.264  -2.092   0.103  0.00  0.00    -0.222 NA
ENDROOT
BRANCH   1  12
ATOM      7  C   UNL     1      -0.017   1.390   0.010  0.00  0.00    +0.014 A 
ATOM      8  C   UNL     1       1.168   2.096   0.002  0.00  0.00    +0.050 A 
ATOM      9  C   UNL     1       2.381   1.424  -0.013  0.00  0.00    +0.166 A 
ATOM     10  C   UNL     1       2.406   0.029  -0.021  0.00  0.00    +0.167 A 
ATOM     11  C   UNL     1       1.221  -0.682  -0.014  0.00  0.00    +0.059 A 
ATOM     12  C   UNL     1       0.002  -0.004   0.002  0.00  0.00    +0.004 A 
ATOM     13  O   UNL     1       3.707  -0.383  -0.035  0.00  0.00    -0.453 OA
ATOM     14  C   UNL     1       4.470   0.766  -0.449  0.00  0.00    +0.466 C 
ATOM     15  O   UNL     1       3.666   1.882  -0.022  0.00  0.00    -0.453 OA
ENDBRANCH   1  12
BRANCH   3  16
ATOM     16  C   UNL     1      -5.001  -0.174  -0.173  0.00  0.00    +0.434 C 
ATOM     17  F   UNL     1      -5.368  -0.062  -1.518  0.00  0.00    -0.164 F 
ATOM     18  F   UNL     1      -5.957  -0.934   0.509  0.00  0.00    -0.164 F 
ATOM     19  F   UNL     1      -4.926   1.101   0.398  0.00  0.00    -0.164 F 
ENDBRANCH   3  16
BRANCH   5  20
ATOM     20  S   UNL     1      -2.348  -4.528   0.248  0.00  0.00    -0.077 S 
BRANCH  20  21
ATOM     21  C   UNL     1      -4.093  -5.023   0.219  0.00  0.00    +0.173 C 
BRANCH  21  22
ATOM     22  C   UNL     1      -4.192  -6.523   0.326  0.00  0.00    +0.224 C 
ATOM     23  O   UNL     1      -3.185  -7.192   0.413  0.00  0.00    -0.275 OA
ATOM     24  N   UNL     1      -5.400  -7.120   0.325  0.00  0.00    -0.312 N 
ATOM     25  H   UNL     1      -6.206  -6.585   0.255  0.00  0.00    +0.149 HD
BRANCH  24  26
ATOM     26  C   UNL     1      -5.497  -8.578   0.429  0.00  0.00    +0.073 C 
ATOM     27  C   UNL     1      -5.351  -9.200  -0.962  0.00  0.00    +0.022 C 
ATOM     28  C   UNL     1      -5.451 -10.722  -0.853  0.00  0.00    +0.002 C 
ATOM     29  C   UNL     1      -6.811 -11.103  -0.264  0.00  0.00    +0.000 C 
ATOM     30  C   UNL     1      -6.957 -10.482   1.127  0.00  0.00    +0.002 C 
ATOM     31  C   UNL     1      -6.856  -8.959   1.018  0.00  0.00    +0.022 C 
ENDBRANCH  24  26
ENDBRANCH  21  22
ENDBRANCH  20  21
ENDBRANCH   5  20
TORSDOF 6
