REMARK  Name = ZINC40538072
REMARK  1 active torsions:
REMARK  status: ('A' for Active; 'I' for Inactive)
REMARK    1  A    between atoms: C_9  and  C_11
REMARK                            x       y       z     vdW  Elec       q    Type
REMARK                         _______ _______ _______ _____ _____    ______ ____
ROOT
ATOM      1  C   UNL     1      -0.016   1.360   0.009  0.00  0.00    +0.232 A 
ATOM      2  N   UNL     1       1.225   1.763  -0.000  0.00  0.00    -0.138 NA
ATOM      3  N   UNL     1       2.014   0.749  -0.013  0.00  0.00    -0.138 NA
ATOM      4  C   UNL     1       1.320  -0.356  -0.013  0.00  0.00    +0.232 A 
ATOM      5  N   UNL     1       0.002  -0.004   0.002  0.00  0.00    -0.255 N 
ATOM      6  C   UNL     1      -1.097  -0.860   0.008  0.00  0.00    +0.259 A 
ATOM      7  N   UNL     1      -2.397  -0.492   0.017  0.00  0.00    -0.108 NA
ATOM      8  N   UNL     1      -3.123  -1.556   0.020  0.00  0.00    -0.119 NA
ATOM      9  C   UNL     1      -2.334  -2.609   0.014  0.00  0.00    +0.267 A 
ATOM     10  N   UNL     1      -1.060  -2.174   0.001  0.00  0.00    -0.183 NA
ENDROOT
BRANCH   9  11
ATOM     11  C   UNL     1      -2.769  -4.019   0.015  0.00  0.00    +0.425 C 
ATOM     12  O   UNL     1      -3.962  -4.291   0.023  0.00  0.00    -0.237 OA
ATOM     13  O   UNL     1      -1.938  -4.915   0.009  0.00  0.00    -0.237 OA
ENDBRANCH   9  11
TORSDOF 1
