REMARK  Name = ZINC02134725
REMARK  8 active torsions:
REMARK  status: ('A' for Active; 'I' for Inactive)
REMARK    1  A    between atoms: C_1  and  C_2
REMARK    2  A    between atoms: C_5  and  C_8
REMARK    3  A    between atoms: N_26  and  C_29
REMARK    4  A    between atoms: C_34  and  C_35
REMARK    5  A    between atoms: N_37  and  C_38
REMARK    6  A    between atoms: C_38  and  C_39
REMARK    7  A    between atoms: C_39  and  C_40
REMARK    8  A    between atoms: C_39  and  C_41
REMARK                            x       y       z     vdW  Elec       q    Type
REMARK                         _______ _______ _______ _____ _____    ______ ____
ROOT
ATOM      1  C   UNL     1       4.251   0.252   8.051  0.00  0.00    +0.155 C 
ATOM      2  C   UNL     1       4.665  -0.825   9.035  0.00  0.00    +0.046 A 
ATOM      3  C   UNL     1       3.856  -1.833   9.423  0.00  0.00    -0.015 A 
ATOM      4  C   UNL     1       4.617  -2.645  10.355  0.00  0.00    +0.003 A 
ATOM      5  C   UNL     1       4.306  -3.806  11.069  0.00  0.00    +0.010 A 
ATOM      6  C   UNL     1       5.290  -4.317  11.880  0.00  0.00    +0.001 A 
ATOM      7  C   UNL     1       6.535  -3.719  11.993  0.00  0.00    +0.002 A 
ATOM      8  C   UNL     1       6.869  -2.570  11.297  0.00  0.00    +0.026 A 
ATOM      9  C   UNL     1       5.890  -2.029  10.465  0.00  0.00    +0.047 A 
ATOM     10  N   UNL     1       5.881  -0.931   9.654  0.00  0.00    -0.356 N 
ATOM     11  H   UNL     1       6.624  -0.320   9.534  0.00  0.00    +0.166 HD
ATOM     12  C   UNL     1       2.435  -2.052   8.966  0.00  0.00    +0.069 C 
ATOM     13  C   UNL     1       2.193  -1.277   7.666  0.00  0.00    +0.170 C 
ATOM     14  N   UNL     1       2.819   0.058   7.781  0.00  0.00    -0.260 N 
ATOM     15  C   UNL     1       1.849   0.965   7.648  0.00  0.00    +0.317 C 
ATOM     16  O   UNL     1       2.038   2.165   7.639  0.00  0.00    -0.252 OA
ATOM     17  N   UNL     1       0.640   0.397   7.529  0.00  0.00    -0.192 N 
ATOM     18  C   UNL     1       0.719  -0.949   7.537  0.00  0.00    +0.248 C 
ATOM     19  O   UNL     1      -0.200  -1.736   7.456  0.00  0.00    -0.273 OA
ENDROOT
BRANCH   1  24
ATOM     20  C   UNL     1       5.196   5.482  10.319  0.00  0.00    +0.044 C 
ATOM     21  C   UNL     1       4.949   4.118   9.728  0.00  0.00    -0.050 A 
ATOM     22  C   UNL     1       5.851   3.582   8.828  0.00  0.00    +0.004 A 
ATOM     23  C   UNL     1       5.625   2.331   8.285  0.00  0.00    +0.006 A 
ATOM     24  C   UNL     1       4.498   1.616   8.643  0.00  0.00    -0.021 A 
ATOM     25  C   UNL     1       3.593   2.154   9.539  0.00  0.00    +0.006 A 
ATOM     26  C   UNL     1       3.821   3.404  10.085  0.00  0.00    +0.004 A 
ENDBRANCH   1  24
BRANCH  17  27
ATOM     27  C   UNL     1      -0.553   1.112   7.405  0.00  0.00    +0.058 A 
ATOM     28  C   UNL     1      -1.270   1.472   8.537  0.00  0.00    +0.025 A 
ATOM     29  C   UNL     1      -2.453   2.174   8.413  0.00  0.00    +0.002 A 
ATOM     30  C   UNL     1      -2.929   2.528   7.162  0.00  0.00    +0.001 A 
ATOM     31  C   UNL     1      -2.228   2.183   6.027  0.00  0.00    +0.015 A 
ATOM     32  C   UNL     1      -1.030   1.473   6.137  0.00  0.00    +0.059 A 
BRANCH  32  33
ATOM     33  C   UNL     1      -0.274   1.099   4.926  0.00  0.00    +0.246 C 
ATOM     34  O   UNL     1       0.768   0.481   5.026  0.00  0.00    -0.270 OA
ATOM     35  N   UNL     1      -0.739   1.443   3.709  0.00  0.00    -0.311 N 
ATOM     36  H   UNL     1      -1.571   1.936   3.629  0.00  0.00    +0.149 HD
BRANCH  35  37
ATOM     37  C   UNL     1       0.011   1.072   2.506  0.00  0.00    +0.107 C 
BRANCH  37  38
ATOM     38  C   UNL     1      -0.729   1.579   1.267  0.00  0.00    -0.000 C 
ATOM     39  C   UNL     1      -0.013   1.086   0.008  0.00  0.00    +0.009 C 
ATOM     40  C   UNL     1      -0.750   3.109   1.275  0.00  0.00    +0.009 C 
ENDBRANCH  37  38
ENDBRANCH  35  37
ENDBRANCH  32  33
ENDBRANCH  17  27
TORSDOF 5
