REMARK  Name = ZINC13495881
REMARK  13 active torsions:
REMARK  status: ('A' for Active; 'I' for Inactive)
REMARK    1  A    between atoms: C_1  and  C_2
REMARK    2  A    between atoms: C_2  and  C_3
REMARK    3  A    between atoms: C_3  and  C_5
REMARK    4  A    between atoms: C_3  and  N_73
REMARK    5  A    between atoms: N_9  and  C_10
REMARK    6  A    between atoms: C_10  and  C_11
REMARK    7  A    between atoms: C_17  and  C_18
REMARK    8  A    between atoms: C_17  and  N_73
REMARK    9  A    between atoms: C_18  and  C_19
REMARK   10  A    between atoms: C_24  and  C_25
REMARK   11  A    between atoms: C_26  and  C_27
REMARK   12  A    between atoms: C_26  and  N_73
REMARK   13  A    between atoms: C_33  and  C_39
REMARK                            x       y       z     vdW  Elec       q    Type
REMARK                         _______ _______ _______ _____ _____    ______ ____
ROOT
ATOM      1  N   UNL     1      -2.432   0.809  -1.039  0.00  0.00    +0.389 N 
ATOM      2  H   UNL     1      -1.639   0.363  -1.514  0.00  0.00    -0.080 HD
ENDROOT
BRANCH   1   3
ATOM      3  C   UNL     1      -3.478  -0.207  -0.794  0.00  0.00    +0.003 C 
BRANCH   3   4
ATOM      4  C   UNL     1      -4.591   0.372   0.040  0.00  0.00    +0.138 A 
ATOM      5  N   UNL     1      -4.462   1.113   1.113  0.00  0.00    -0.115 NA
ATOM      6  N   UNL     1      -5.641   1.409   1.537  0.00  0.00    -0.023 NA
ATOM      7  N   UNL     1      -6.521   0.876   0.763  0.00  0.00    -0.044 NA
ATOM      8  N   UNL     1      -5.913   0.232  -0.176  0.00  0.00    -0.228 N 
BRANCH   8   9
ATOM      9  C   UNL     1      -6.542  -0.513  -1.269  0.00  0.00    +0.178 C 
BRANCH   9  10
ATOM     10  C   UNL     1      -6.769  -1.962  -0.833  0.00  0.00    +0.140 C 
ATOM     11  C   UNL     1      -7.325  -2.784  -2.016  0.00  0.00    +0.035 C 
ATOM     12  C   UNL     1      -8.369  -3.698  -1.320  0.00  0.00    +0.031 C 
ATOM     13  C   UNL     1      -8.889  -2.756  -0.205  0.00  0.00    +0.160 C 
ATOM     14  O   UNL     1      -7.739  -2.007   0.219  0.00  0.00    -0.375 OA
ENDBRANCH   9  10
ENDBRANCH   8   9
ENDBRANCH   3   4
BRANCH   3  16
ATOM     15  C   UNL     1      -1.819  -2.067  -0.962  0.00  0.00    +0.002 C 
ATOM     16  C   UNL     1      -2.852  -1.392  -0.058  0.00  0.00    -0.011 C 
ENDBRANCH   3  16
ENDBRANCH   1   3
BRANCH   1  17
ATOM     17  C   UNL     1      -2.965   1.885  -1.901  0.00  0.00    -0.073 C 
BRANCH  17  18
ATOM     18  C   UNL     1      -3.097   1.351  -3.329  0.00  0.00    +0.017 C 
BRANCH  18  19
ATOM     19  C   UNL     1      -3.495   2.475  -4.250  0.00  0.00    -0.046 A 
ATOM     20  C   UNL     1      -4.821   2.642  -4.606  0.00  0.00    +0.004 A 
ATOM     21  C   UNL     1      -5.186   3.675  -5.448  0.00  0.00    +0.000 A 
ATOM     22  C   UNL     1      -4.225   4.537  -5.942  0.00  0.00    +0.000 A 
ATOM     23  C   UNL     1      -2.899   4.368  -5.591  0.00  0.00    +0.003 A 
ATOM     24  C   UNL     1      -2.534   3.337  -4.745  0.00  0.00    -0.047 A 
ATOM     25  C   UNL     1      -1.088   3.152  -4.362  0.00  0.00    +0.044 C 
ENDBRANCH  18  19
ENDBRANCH  17  18
ENDBRANCH   1  17
BRANCH   1  26
ATOM     26  C   UNL     1      -1.967   1.374   0.245  0.00  0.00    -0.037 C 
BRANCH  26  27
ATOM     27  C   UNL     1      -0.670   2.105   0.010  0.00  0.00    +0.001 A 
ATOM     28  C   UNL     1      -0.674   3.450  -0.163  0.00  0.00    +0.017 A 
ATOM     29  C   UNL     1       0.602   4.129  -0.395  0.00  0.00    -0.001 A 
ATOM     30  C   UNL     1       0.661   5.513  -0.587  0.00  0.00    +0.010 A 
ATOM     31  C   UNL     1       1.868   6.117  -0.801  0.00  0.00    +0.001 A 
ATOM     32  C   UNL     1       3.037   5.368  -0.831  0.00  0.00    +0.005 A 
ATOM     33  C   UNL     1       3.003   4.003  -0.645  0.00  0.00    -0.026 A 
ATOM     34  C   UNL     1       1.785   3.367  -0.425  0.00  0.00    +0.052 A 
ATOM     35  N   UNL     1       1.722   2.003  -0.236  0.00  0.00    -0.322 N 
ATOM     36  H   UNL     1       2.538   1.479  -0.256  0.00  0.00    +0.169 HD
ATOM     37  C   UNL     1       0.545   1.388  -0.024  0.00  0.00    +0.251 A 
ATOM     38  O   UNL     1       0.527   0.180   0.139  0.00  0.00    -0.268 OA
ATOM     39  C   UNL     1       4.279   3.203  -0.680  0.00  0.00    +0.046 C 
ENDBRANCH  26  27
ENDBRANCH   1  26
TORSDOF 10
