REMARK  Name = ZINC02603083
REMARK  9 active torsions:
REMARK  status: ('A' for Active; 'I' for Inactive)
REMARK    1  A    between atoms: C_1  and  C_2
REMARK    2  A    between atoms: C_2  and  C_3
REMARK    3  A    between atoms: C_2  and  O_4
REMARK    4  A    between atoms: O_4  and  C_5
REMARK    5  A    between atoms: C_5  and  C_7
REMARK    6  A    between atoms: C_8  and  N_28
REMARK    7  A    between atoms: C_12  and  C_14
REMARK    8  A    between atoms: C_24  and  C_26
REMARK    9  A    between atoms: C_24  and  C_27
REMARK                            x       y       z     vdW  Elec       q    Type
REMARK                         _______ _______ _______ _____ _____    ______ ____
ROOT
ATOM      1  C   UNL     1       1.191   1.933   0.006  0.00  0.00    +0.105 C 
ATOM      2  C   UNL     1       2.373   1.269   0.095  0.00  0.00    +0.195 C 
ATOM      3  O   UNL     1       3.543   1.924   0.076  0.00  0.00    -0.446 OA
ATOM      4  C   UNL     1       3.586   3.226   0.418  0.00  0.00    +0.115 C 
ATOM      5  C   UNL     1       2.491   4.004   0.349  0.00  0.00    +0.045 C 
ATOM      6  C   UNL     1       1.168   3.432  -0.100  0.00  0.00    +0.097 C 
ATOM      7  C   UNL     1       2.541   5.370   0.689  0.00  0.00    +0.164 C 
ATOM      8  O   UNL     1       1.527   6.037   0.630  0.00  0.00    -0.292 OA
ATOM      9  C   UNL     1       3.827   6.018   1.124  0.00  0.00    +0.086 C 
ATOM     10  C   UNL     1       5.001   5.268   0.485  0.00  0.00    -0.021 C 
ATOM     11  C   UNL     1       4.907   3.793   0.881  0.00  0.00    +0.081 C 
ATOM     12  C   UNL     1       4.925   5.397  -1.038  0.00  0.00    +0.012 C 
ATOM     13  C   UNL     1       6.321   5.853   0.989  0.00  0.00    +0.012 C 
ENDROOT
BRANCH   6  14
ATOM     14  C   UNL     1       0.911   3.828  -1.531  0.00  0.00    -0.035 A 
ATOM     15  C   UNL     1       1.792   3.441  -2.523  0.00  0.00    +0.006 A 
ATOM     16  C   UNL     1       1.554   3.799  -3.837  0.00  0.00    +0.020 A 
ATOM     17  C   UNL     1       0.441   4.556  -4.157  0.00  0.00    +0.041 A 
ATOM     18  C   UNL     1      -0.437   4.949  -3.162  0.00  0.00    +0.020 A 
ATOM     19  C   UNL     1      -0.201   4.585  -1.849  0.00  0.00    +0.006 A 
ATOM     20 CL   UNL     1       0.146   5.013  -5.805  0.00  0.00    -0.084 Cl
ENDBRANCH   6  14
BRANCH   2  21
ATOM     21  N   UNL     1       2.370  -0.096   0.199  0.00  0.00    -0.329 N 
ATOM     22  H   UNL     1       1.535  -0.586   0.133  0.00  0.00    +0.145 HD
ATOM     23  H   UNL     1       3.203  -0.574   0.339  0.00  0.00    +0.145 HD
ENDBRANCH   2  21
BRANCH   1  24
ATOM     24  C   UNL     1      -0.015   1.215   0.018  0.00  0.00    +0.341 C 
ATOM     25  O   UNL     1      -0.678   1.156   1.038  0.00  0.00    -0.245 OA
BRANCH  24  26
ATOM     26  O   UNL     1      -0.437   0.584  -1.099  0.00  0.00    -0.459 OA
BRANCH  26  28
ATOM     27  C   UNL     1      -2.828   0.798  -1.381  0.00  0.00    +0.052 C 
ATOM     28  C   UNL     1      -1.670  -0.132  -1.013  0.00  0.00    +0.171 C 
ATOM     29  C   UNL     1      -1.641  -1.317  -1.982  0.00  0.00    +0.052 C 
ENDBRANCH  26  28
ENDBRANCH  24  26
ENDBRANCH   1  24
TORSDOF 5
