REMARK  Name = ZINC35191195
REMARK  15 active torsions:
REMARK  status: ('A' for Active; 'I' for Inactive)
REMARK    1  A    between atoms: C_1  and  C_2
REMARK    2  A    between atoms: C_9  and  C_20
REMARK    3  A    between atoms: C_10  and  N_11
REMARK    4  A    between atoms: N_11  and  C_12
REMARK    5  A    between atoms: C_12  and  C_13
REMARK    6  A    between atoms: C_12  and  C_14
REMARK    7  A    between atoms: C_12  and  C_15
REMARK    8  A    between atoms: C_15  and  C_16
REMARK    9  A    between atoms: C_16  and  C_17
REMARK   10  A    between atoms: C_16  and  C_18
REMARK   11  A    between atoms: C_16  and  C_19
REMARK   12  A    between atoms: C_23  and  O_26
REMARK   13  A    between atoms: O_26  and  S_27
REMARK   14  A    between atoms: S_27  and  C_30
REMARK   15  A    between atoms: C_31  and  C_32
REMARK                            x       y       z     vdW  Elec       q    Type
REMARK                         _______ _______ _______ _____ _____    ______ ____
ROOT
ATOM      1  C   UNL     1      -0.921   1.285  -4.513  0.00  0.00    +0.044 C 
ATOM      2  C   UNL     1      -0.632  -0.004  -3.787  0.00  0.00    -0.046 A 
ATOM      3  C   UNL     1      -1.160  -1.216  -4.266  0.00  0.00    +0.021 A 
ATOM      4  C   UNL     1      -0.905  -2.372  -3.621  0.00  0.00    +0.094 A 
ATOM      5  N   UNL     1      -0.130  -2.383  -2.492  0.00  0.00    -0.289 N 
ATOM      6  C   UNL     1       0.401  -1.212  -2.001  0.00  0.00    +0.117 A 
ATOM      7  C   UNL     1       0.144   0.002  -2.671  0.00  0.00    +0.048 A 
ATOM      8  N   UNL     1       1.103  -1.492  -0.914  0.00  0.00    -0.338 N 
ATOM      9  C   UNL     1       1.048  -2.815  -0.679  0.00  0.00    +0.087 A 
ATOM     10  C   UNL     1       0.275  -3.393  -1.664  0.00  0.00    +0.129 A 
ATOM     11  H   UNL     1       1.581  -0.844  -0.373  0.00  0.00    +0.167 HD
ENDROOT
BRANCH   9  12
ATOM     12  C   UNL     1       1.704  -3.528   0.443  0.00  0.00    +0.002 A 
ATOM     13  C   UNL     1       2.367  -4.733   0.214  0.00  0.00    +0.014 A 
ATOM     14  C   UNL     1       2.977  -5.393   1.260  0.00  0.00    +0.049 A 
ATOM     15  C   UNL     1       2.931  -4.859   2.541  0.00  0.00    +0.157 A 
ATOM     16  C   UNL     1       2.272  -3.659   2.773  0.00  0.00    +0.049 A 
ATOM     17  C   UNL     1       1.665  -2.991   1.730  0.00  0.00    +0.014 A 
BRANCH  15  18
ATOM     18  O   UNL     1       3.533  -5.512   3.569  0.00  0.00    -0.343 OA
BRANCH  18  19
ATOM     19  S   UNL     1       4.986  -5.114   3.790  0.00  0.00    +0.144 S 
ATOM     20  O   UNL     1       5.515  -6.023   4.745  0.00  0.00    -0.132 OA
ATOM     21  O   UNL     1       5.560  -4.943   2.501  0.00  0.00    -0.132 OA
BRANCH  19  22
ATOM     22  C   UNL     1       4.981  -3.527   4.554  0.00  0.00    +0.178 C 
ATOM     23  C   UNL     1       5.446  -3.384   5.788  0.00  0.00    +0.030 C 
BRANCH  23  24
ATOM     24  C   UNL     1       5.442  -2.052   6.429  0.00  0.00    -0.024 A 
ATOM     25  C   UNL     1       4.944  -0.944   5.741  0.00  0.00    +0.008 A 
ATOM     26  C   UNL     1       4.943   0.296   6.346  0.00  0.00    +0.001 A 
ATOM     27  C   UNL     1       5.435   0.443   7.630  0.00  0.00    +0.000 A 
ATOM     28  C   UNL     1       5.930  -0.651   8.318  0.00  0.00    +0.001 A 
ATOM     29  C   UNL     1       5.930  -1.898   7.727  0.00  0.00    +0.008 A 
ENDBRANCH  23  24
ENDBRANCH  19  22
ENDBRANCH  18  19
ENDBRANCH  15  18
ENDBRANCH   9  12
BRANCH  10  30
ATOM     30  N   UNL     1      -0.034  -4.748  -1.791  0.00  0.00    -0.323 N 
ATOM     31  H   UNL     1       0.188  -5.365  -1.076  0.00  0.00    +0.148 HD
BRANCH  30  32
ATOM     32  C   UNL     1      -0.695  -5.238  -3.003  0.00  0.00    +0.028 C 
ATOM     33  C   UNL     1      -2.107  -4.655  -3.085  0.00  0.00    +0.031 C 
ATOM     34  C   UNL     1       0.107  -4.806  -4.231  0.00  0.00    +0.031 C 
BRANCH  32  35
ATOM     35  C   UNL     1      -0.776  -6.765  -2.958  0.00  0.00    +0.031 C 
BRANCH  35  36
ATOM     36  C   UNL     1       0.514  -7.327  -2.357  0.00  0.00    -0.036 C 
ATOM     37  C   UNL     1       0.335  -7.518  -0.850  0.00  0.00    +0.010 C 
ATOM     38  C   UNL     1       0.835  -8.674  -3.007  0.00  0.00    +0.010 C 
ATOM     39  C   UNL     1       1.663  -6.350  -2.614  0.00  0.00    +0.010 C 
ENDBRANCH  35  36
ENDBRANCH  32  35
ENDBRANCH  30  32
ENDBRANCH  10  30
TORSDOF 9
