REMARK  Name = ZINC09192764
REMARK  11 active torsions:
REMARK  status: ('A' for Active; 'I' for Inactive)
REMARK    1  A    between atoms: C_1  and  C_2
REMARK    2  A    between atoms: C_2  and  C_3
REMARK    3  A    between atoms: C_3  and  C_4
REMARK    4  A    between atoms: C_4  and  N_5
REMARK    5  A    between atoms: C_15  and  C_16
REMARK    6  A    between atoms: C_16  and  C_17
REMARK    7  A    between atoms: N_32  and  C_33
REMARK    8  A    between atoms: C_33  and  C_34
REMARK    9  A    between atoms: C_34  and  C_35
REMARK   10  A    between atoms: C_35  and  O_36
REMARK   11  A    between atoms: O_36  and  C_37
REMARK                            x       y       z     vdW  Elec       q    Type
REMARK                         _______ _______ _______ _____ _____    ______ ____
ROOT
ATOM      1  N   UNL     1       1.561  -1.975   2.159  0.00  0.00    -0.269 N 
ATOM      2  C   UNL     1       2.942  -2.174   2.108  0.00  0.00    +0.042 A 
ATOM      3  C   UNL     1       3.879  -1.814   1.141  0.00  0.00    +0.024 A 
ATOM      4  C   UNL     1       5.211  -2.126   1.317  0.00  0.00    +0.002 A 
ATOM      5  C   UNL     1       5.628  -2.798   2.451  0.00  0.00    +0.000 A 
ATOM      6  C   UNL     1       4.704  -3.159   3.416  0.00  0.00    +0.008 A 
ATOM      7  C   UNL     1       3.373  -2.848   3.245  0.00  0.00    +0.011 A 
ATOM      8  C   UNL     1       2.142  -3.085   4.079  0.00  0.00    +0.174 C 
ATOM      9  C   UNL     1       1.017  -2.475   3.283  0.00  0.00    +0.253 C 
ATOM     10  O   UNL     1      -0.155  -2.444   3.595  0.00  0.00    -0.272 OA
ATOM     11  C   UNL     1       2.263  -2.430   5.429  0.00  0.00    +0.089 C 
ATOM     12  C   UNL     1       2.122  -3.417   6.348  0.00  0.00    +0.250 C 
ATOM     13  O   UNL     1       2.166  -3.251   7.690  0.00  0.00    -0.282 OA
ATOM     14  C   UNL     1       1.911  -4.703   5.649  0.00  0.00    +0.288 C 
ATOM     15  O   UNL     1       1.750  -5.776   6.197  0.00  0.00    -0.266 OA
ATOM     16  N   UNL     1       1.923  -4.509   4.316  0.00  0.00    -0.273 N 
ENDROOT
BRANCH  11  17
ATOM     17  C   UNL     1       2.489  -1.007   5.697  0.00  0.00    +0.196 C 
ATOM     18  O   UNL     1       3.594  -0.524   5.530  0.00  0.00    -0.287 OA
BRANCH  17  19
ATOM     19  C   UNL     1       1.377  -0.160   6.171  0.00  0.00    +0.026 A 
ATOM     20  C   UNL     1       0.139  -0.733   6.474  0.00  0.00    +0.015 A 
ATOM     21  C   UNL     1      -0.897   0.060   6.914  0.00  0.00    +0.050 A 
ATOM     22  C   UNL     1      -0.717   1.431   7.060  0.00  0.00    +0.162 A 
ATOM     23  C   UNL     1       0.516   2.009   6.762  0.00  0.00    +0.163 A 
ATOM     24  C   UNL     1       1.560   1.218   6.322  0.00  0.00    +0.061 A 
ATOM     25  O   UNL     1       0.710   3.348   6.907  0.00  0.00    -0.485 OA
ATOM     26  C   UNL     1      -0.464   4.163   6.999  0.00  0.00    +0.270 C 
ATOM     27  C   UNL     1      -1.433   3.499   7.988  0.00  0.00    +0.270 C 
ATOM     28  O   UNL     1      -1.755   2.195   7.493  0.00  0.00    -0.485 OA
ENDBRANCH  17  19
ENDBRANCH  11  17
BRANCH   1  29
ATOM     29  C   UNL     1       0.794  -1.294   1.112  0.00  0.00    +0.114 C 
BRANCH  29  30
ATOM     30  C   UNL     1       0.713   0.200   1.430  0.00  0.00    +0.019 C 
BRANCH  30  32
ATOM     31  C   UNL     1      -0.107   2.416   0.618  0.00  0.00    +0.004 C 
ATOM     32  C   UNL     1      -0.026   0.922   0.301  0.00  0.00    -0.002 C 
ENDBRANCH  30  32
ENDBRANCH  29  30
ENDBRANCH   1  29
BRANCH  16  33
ATOM     33  C   UNL     1       1.747  -5.540   3.289  0.00  0.00    +0.112 C 
BRANCH  33  34
ATOM     34  C   UNL     1       3.110  -6.122   2.912  0.00  0.00    +0.047 C 
BRANCH  34  35
ATOM     35  C   UNL     1       2.927  -7.198   1.840  0.00  0.00    +0.161 C 
BRANCH  35  36
ATOM     36  O   UNL     1       4.200  -7.742   1.488  0.00  0.00    -0.383 OA
ATOM     37  C   UNL     1       4.141  -8.761   0.489  0.00  0.00    +0.193 C 
ENDBRANCH  35  36
ENDBRANCH  34  35
ENDBRANCH  33  34
ENDBRANCH  16  33
TORSDOF 9
