REMARK  Name = ZINC29396255
REMARK  13 active torsions:
REMARK  status: ('A' for Active; 'I' for Inactive)
REMARK    1  A    between atoms: C_1  and  C_2
REMARK    2  A    between atoms: C_2  and  O_3
REMARK    3  A    between atoms: O_3  and  C_4
REMARK    4  A    between atoms: C_4  and  C_6
REMARK    5  A    between atoms: C_8  and  C_30
REMARK    6  A    between atoms: C_11  and  O_13
REMARK    7  A    between atoms: O_13  and  C_14
REMARK    8  A    between atoms: C_14  and  C_15
REMARK    9  A    between atoms: C_16  and  C_29
REMARK   10  A    between atoms: C_19  and  C_20
REMARK   11  A    between atoms: C_20  and  C_22
REMARK   12  A    between atoms: C_25  and  C_28
REMARK   13  A    between atoms: C_35  and  C_36
REMARK                            x       y       z     vdW  Elec       q    Type
REMARK                         _______ _______ _______ _____ _____    ______ ____
ROOT
ATOM      1  C   UNL     1       1.405  -2.532   2.427  0.00  0.00    +0.158 C 
ATOM      2  C   UNL     1       1.559  -4.047   2.302  0.00  0.00    +0.078 C 
ATOM      3  C   UNL     1       2.688  -4.363   1.355  0.00  0.00    +0.066 C 
ATOM      4  C   UNL     1       2.633  -5.494   0.568  0.00  0.00    +0.337 C 
ATOM      5  O   UNL     1       1.615  -6.366   0.713  0.00  0.00    -0.245 OA
ATOM      6  C   UNL     1       3.785  -3.514   1.273  0.00  0.00    +0.049 C 
ATOM      7  N   UNL     1       3.823  -2.380   1.942  0.00  0.00    -0.255 NA
ATOM      8  C   UNL     1       2.759  -1.888   2.560  0.00  0.00    +0.060 C 
ATOM      9  C   UNL     1       2.897  -0.771   3.334  0.00  0.00    +0.075 C 
ATOM     10  C   UNL     1       4.954  -3.899   0.403  0.00  0.00    +0.066 C 
ENDROOT
BRANCH   2  11
ATOM     11  C   UNL     1       1.861  -4.635   3.657  0.00  0.00    -0.027 A 
ATOM     12  C   UNL     1       2.991  -4.236   4.347  0.00  0.00    +0.005 A 
ATOM     13  C   UNL     1       3.268  -4.774   5.589  0.00  0.00    +0.000 A 
ATOM     14  C   UNL     1       2.416  -5.712   6.142  0.00  0.00    +0.001 A 
ATOM     15  C   UNL     1       1.286  -6.111   5.452  0.00  0.00    +0.012 A 
ATOM     16  C   UNL     1       1.006  -5.569   4.211  0.00  0.00    +0.059 A 
BRANCH  16  17
ATOM     17  C   UNL     1      -0.228  -5.999   3.462  0.00  0.00    +0.418 C 
ATOM     18  F   UNL     1      -0.928  -6.944   4.220  0.00  0.00    -0.166 F 
ATOM     19  F   UNL     1      -1.045  -4.888   3.231  0.00  0.00    -0.166 F 
ATOM     20  F   UNL     1       0.144  -6.566   2.238  0.00  0.00    -0.166 F 
ENDBRANCH  16  17
ENDBRANCH   2  11
BRANCH   1  21
ATOM     21  C   UNL     1       0.715  -1.996   1.200  0.00  0.00    +0.317 C 
ATOM     22  O   UNL     1       0.385  -2.750   0.315  0.00  0.00    -0.250 OA
BRANCH  21  23
ATOM     23  O   UNL     1       0.467  -0.681   1.089  0.00  0.00    -0.464 OA
BRANCH  23  25
ATOM     24  C   UNL     1      -0.386   1.273  -0.048  0.00  0.00    +0.048 C 
ATOM     25  C   UNL     1      -0.191  -0.243  -0.102  0.00  0.00    +0.229 C 
ENDBRANCH  23  25
ENDBRANCH  21  23
ENDBRANCH   1  21
BRANCH   9  26
ATOM     26  C   UNL     1       4.154  -0.158   3.467  0.00  0.00    +0.188 C 
ATOM     27  O   UNL     1       5.123  -0.625   2.893  0.00  0.00    -0.287 OA
BRANCH  26  28
ATOM     28  C   UNL     1       4.303   1.052   4.306  0.00  0.00    +0.022 A 
ATOM     29  C   UNL     1       3.197   1.585   4.970  0.00  0.00    +0.012 A 
ATOM     30  C   UNL     1       3.342   2.714   5.750  0.00  0.00    +0.004 A 
ATOM     31  C   UNL     1       4.581   3.317   5.874  0.00  0.00    -0.050 A 
ATOM     32  C   UNL     1       5.681   2.795   5.218  0.00  0.00    +0.004 A 
ATOM     33  C   UNL     1       5.551   1.663   4.441  0.00  0.00    +0.012 A 
ATOM     34  C   UNL     1       4.732   4.550   6.728  0.00  0.00    +0.044 C 
ENDBRANCH  26  28
ENDBRANCH   9  26
BRANCH   4  35
ATOM     35  O   UNL     1       3.596  -5.728  -0.344  0.00  0.00    -0.462 OA
BRANCH  35  36
ATOM     36  C   UNL     1       3.475  -6.920  -1.124  0.00  0.00    +0.229 C 
ATOM     37  C   UNL     1       4.651  -7.013  -2.098  0.00  0.00    +0.048 C 
ENDBRANCH  35  36
ENDBRANCH   4  35
TORSDOF 9
