REMARK  Name = ZINC16931515
REMARK  12 active torsions:
REMARK  status: ('A' for Active; 'I' for Inactive)
REMARK    1  A    between atoms: C_1  and  C_2
REMARK    2  A    between atoms: C_2  and  C_3
REMARK    3  A    between atoms: C_3  and  C_5
REMARK    4  A    between atoms: C_3  and  O_7
REMARK    5  A    between atoms: O_7  and  C_8
REMARK    6  A    between atoms: C_12  and  C_14
REMARK    7  A    between atoms: N_18  and  C_22
REMARK    8  A    between atoms: C_22  and  C_24
REMARK    9  A    between atoms: C_22  and  C_28
REMARK   10  A    between atoms: C_24  and  C_25
REMARK   11  A    between atoms: C_25  and  S_26
REMARK   12  A    between atoms: S_26  and  C_27
REMARK                            x       y       z     vdW  Elec       q    Type
REMARK                         _______ _______ _______ _____ _____    ______ ____
ROOT
ATOM      1  C   UNL     1      -0.687  -6.091   2.826  0.00  0.00    +0.028 C 
ATOM      2  C   UNL     1      -0.703  -6.659   4.057  0.00  0.00    +0.077 C 
ATOM      3  C   UNL     1      -0.644  -8.087   4.437  0.00  0.00    +0.259 C 
ATOM      4  O   UNL     1      -0.568  -8.969   3.601  0.00  0.00    -0.269 OA
ATOM      5  N   UNL     1      -0.677  -8.357   5.731  0.00  0.00    -0.241 N 
ATOM      6  C   UNL     1      -0.762  -7.377   6.653  0.00  0.00    +0.121 C 
ATOM      7  S   UNL     1      -0.817  -7.524   8.358  0.00  0.00    -0.027 S 
ATOM      8  S   UNL     1      -0.794  -5.889   5.668  0.00  0.00    -0.061 S 
ENDROOT
BRANCH   1  13
ATOM      9  C   UNL     1      -1.632  -2.547   3.625  0.00  0.00    +0.122 A 
ATOM     10  C   UNL     1      -1.451  -1.939   2.389  0.00  0.00    +0.046 A 
ATOM     11  C   UNL     1      -1.014  -2.678   1.305  0.00  0.00    +0.004 A 
ATOM     12  C   UNL     1      -0.766  -4.028   1.439  0.00  0.00    +0.008 A 
ATOM     13  C   UNL     1      -0.951  -4.652   2.678  0.00  0.00    -0.020 A 
ATOM     14  C   UNL     1      -1.387  -3.901   3.774  0.00  0.00    +0.053 A 
BRANCH   9  15
ATOM     15  O   UNL     1      -2.056  -1.813   4.688  0.00  0.00    -0.477 OA
BRANCH  15  16
ATOM     16  C   UNL     1      -2.175  -0.402   4.495  0.00  0.00    +0.285 C 
BRANCH  16  17
ATOM     17  C   UNL     1      -3.553  -0.080   3.978  0.00  0.00    +0.396 C 
ATOM     18  O   UNL     1      -4.380  -0.954   3.878  0.00  0.00    -0.242 OA
ATOM     19  O   UNL     1      -3.860   1.179   3.628  0.00  0.00    -0.242 OA
ENDBRANCH  16  17
BRANCH  16  21
ATOM     20  C   UNL     1      -0.509   0.088   6.292  0.00  0.00    +0.008 C 
ATOM     21  C   UNL     1      -1.949   0.314   5.828  0.00  0.00    +0.053 C 
ENDBRANCH  16  21
ENDBRANCH  15  16
ENDBRANCH   9  15
ENDBRANCH   1  13
BRANCH   5  22
ATOM     22  C   UNL     1      -0.622  -9.753   6.173  0.00  0.00    +0.196 C 
BRANCH  22  23
ATOM     23  C   UNL     1       0.590  -9.955   7.046  0.00  0.00    +0.376 C 
ATOM     24  O   UNL     1       1.330  -9.028   7.276  0.00  0.00    -0.244 OA
ATOM     25  O   UNL     1       0.846 -11.165   7.569  0.00  0.00    -0.244 OA
ENDBRANCH  22  23
BRANCH  22  26
ATOM     26  C   UNL     1      -1.885 -10.087   6.968  0.00  0.00    +0.045 C 
BRANCH  26  27
ATOM     27  C   UNL     1      -3.104 -10.002   6.047  0.00  0.00    +0.071 C 
BRANCH  27  28
ATOM     28  S   UNL     1      -4.603 -10.399   6.990  0.00  0.00    -0.164 S 
ATOM     29  C   UNL     1      -5.939 -10.255   5.771  0.00  0.00    +0.084 C 
ENDBRANCH  27  28
ENDBRANCH  26  27
ENDBRANCH  22  26
ENDBRANCH   5  22
TORSDOF 10
