REMARK  Name = ZINC49634257
REMARK  6 active torsions:
REMARK  status: ('A' for Active; 'I' for Inactive)
REMARK    1  A    between atoms: C_1  and  C_2
REMARK    2  A    between atoms: N_4  and  C_7
REMARK    3  A    between atoms: C_10  and  C_13
REMARK    4  A    between atoms: C_13  and  N_15
REMARK    5  A    between atoms: C_18  and  C_21
REMARK    6  A    between atoms: C_21  and  N_22
REMARK                            x       y       z     vdW  Elec       q    Type
REMARK                         _______ _______ _______ _____ _____    ______ ____
ROOT
ATOM      1  N   UNL     1       0.065  -5.831  -6.008  0.00  0.00    -0.152 NA
ATOM      2  C   UNL     1       0.075  -6.789  -6.933  0.00  0.00    +0.163 A 
ATOM      3  N   UNL     1       0.078  -6.655  -8.288  0.00  0.00    -0.341 N 
ATOM      4  C   UNL     1       0.090  -7.777  -9.057  0.00  0.00    +0.008 A 
ATOM      5  C   UNL     1       0.098  -8.955  -8.424  0.00  0.00    +0.067 A 
ATOM      6  S   UNL     1       0.094  -8.456  -6.712  0.00  0.00    -0.061 S 
ATOM      7  H   UNL     1       0.072  -5.776  -8.698  0.00  0.00    +0.167 HD
ENDROOT
BRANCH   1   8
ATOM      8  C   UNL     1       0.069  -6.155  -4.712  0.00  0.00    +0.269 C 
ATOM      9  O   UNL     1       0.082  -7.328  -4.376  0.00  0.00    -0.268 OA
BRANCH   8  13
ATOM     10  C   UNL     1       0.038  -3.100  -1.758  0.00  0.00    +0.052 A 
ATOM     11  C   UNL     1       0.052  -4.438  -1.374  0.00  0.00    +0.025 A 
ATOM     12  C   UNL     1       0.062  -5.429  -2.329  0.00  0.00    +0.015 A 
ATOM     13  C   UNL     1       0.058  -5.092  -3.684  0.00  0.00    +0.039 A 
ATOM     14  C   UNL     1       0.043  -3.749  -4.067  0.00  0.00    +0.015 A 
ATOM     15  C   UNL     1       0.028  -2.761  -3.108  0.00  0.00    +0.025 A 
BRANCH  10  19
ATOM     16  C   UNL     1      -0.018   1.503   0.010  0.00  0.00    +0.062 C 
ATOM     17  C   UNL     1       0.002  -0.004   0.002  0.00  0.00    +0.036 C 
ATOM     18  N   UNL     1       0.008  -0.729  -1.041  0.00  0.00    -0.189 NA
ATOM     19  N   UNL     1       0.028  -2.100  -0.791  0.00  0.00    -0.224 N 
ATOM     20  C   UNL     1       0.038  -2.314   0.665  0.00  0.00    +0.138 C 
ATOM     21  C   UNL     1       0.026  -0.880   1.234  0.00  0.00    +0.073 C 
ENDBRANCH  10  19
ENDBRANCH   8  13
ENDBRANCH   1   8
BRANCH   4  22
ATOM     22  C   UNL     1       0.093  -7.697 -10.562  0.00  0.00    -0.024 C 
BRANCH  22  23
ATOM     23  N   UNL     1      -1.165  -7.096 -11.023  0.00  0.00    +0.383 N 
ATOM     24  C   UNL     1      -2.285  -7.957 -10.594  0.00  0.00    -0.078 C 
ATOM     25  C   UNL     1      -3.529  -7.108 -10.508  0.00  0.00    -0.019 C 
ATOM     26  C   UNL     1      -4.367  -7.205 -11.797  0.00  0.00    -0.002 C 
ATOM     27  C   UNL     1      -3.480  -7.201 -13.058  0.00  0.00    -0.002 C 
ATOM     28  C   UNL     1      -2.349  -6.209 -12.961  0.00  0.00    -0.019 C 
ATOM     29  C   UNL     1      -1.099  -6.924 -12.407  0.00  0.00    -0.078 C 
ATOM     30  H   UNL     1      -1.270  -6.191 -10.589  0.00  0.00    -0.081 HD
ENDBRANCH  22  23
ENDBRANCH   4  22
TORSDOF 5
