REMARK  Name = ZINC09085820
REMARK  16 active torsions:
REMARK  status: ('A' for Active; 'I' for Inactive)
REMARK    1  A    between atoms: C_1  and  C_2
REMARK    2  A    between atoms: C_2  and  O_3
REMARK    3  A    between atoms: O_3  and  C_4
REMARK    4  A    between atoms: C_6  and  C_11
REMARK    5  A    between atoms: C_9  and  O_10
REMARK    6  A    between atoms: C_13  and  C_14
REMARK    7  A    between atoms: C_14  and  C_15
REMARK    8  A    between atoms: C_18  and  O_22
REMARK    9  A    between atoms: C_19  and  C_21
REMARK   10  A    between atoms: O_22  and  C_23
REMARK   11  A    between atoms: C_23  and  C_24
REMARK   12  A    between atoms: C_23  and  C_25
REMARK   13  A    between atoms: N_31  and  C_32
REMARK   14  A    between atoms: C_32  and  C_33
REMARK   15  A    between atoms: C_33  and  O_34
REMARK   16  A    between atoms: O_34  and  C_35
REMARK                            x       y       z     vdW  Elec       q    Type
REMARK                         _______ _______ _______ _____ _____    ______ ____
ROOT
ATOM      1  C   UNL     1      -0.231  -3.164  -0.875  0.00  0.00    +0.145 C 
ATOM      2  C   UNL     1      -1.443  -4.065  -0.845  0.00  0.00    +0.076 C 
ATOM      3  C   UNL     1      -0.984  -5.338  -0.846  0.00  0.00    +0.249 C 
ATOM      4  O   UNL     1      -1.755  -6.450  -0.823  0.00  0.00    -0.282 OA
ATOM      5  C   UNL     1       0.493  -5.321  -0.876  0.00  0.00    +0.288 C 
ATOM      6  O   UNL     1       1.202  -6.308  -0.884  0.00  0.00    -0.266 OA
ATOM      7  N   UNL     1       0.938  -4.052  -0.893  0.00  0.00    -0.281 N 
ENDROOT
BRANCH   1  10
ATOM      8  C   UNL     1      -0.667  -0.201  -3.177  0.00  0.00    +0.162 A 
ATOM      9  C   UNL     1      -0.648  -0.988  -2.037  0.00  0.00    +0.055 A 
ATOM     10  C   UNL     1      -0.252  -2.310  -2.116  0.00  0.00    -0.019 A 
ATOM     11  C   UNL     1       0.126  -2.849  -3.332  0.00  0.00    +0.009 A 
ATOM     12  C   UNL     1       0.110  -2.069  -4.473  0.00  0.00    +0.049 A 
ATOM     13  C   UNL     1      -0.293  -0.745  -4.402  0.00  0.00    +0.158 A 
BRANCH  13  14
ATOM     14  O   UNL     1      -0.316   0.022  -5.524  0.00  0.00    -0.503 OA
ATOM     15  H   UNL     1       0.514   0.486  -5.701  0.00  0.00    +0.292 HD
ENDBRANCH  13  14
BRANCH   8  16
ATOM     16  O   UNL     1      -1.058   1.100  -3.101  0.00  0.00    -0.489 OA
BRANCH  16  18
ATOM     17  C   UNL     1      -1.808   3.069  -1.917  0.00  0.00    +0.048 C 
ATOM     18  C   UNL     1      -1.328   1.621  -1.798  0.00  0.00    +0.226 C 
ENDBRANCH  16  18
ENDBRANCH   8  16
ENDBRANCH   1  10
BRANCH   2  19
ATOM     19  C   UNL     1      -2.847  -3.642  -0.819  0.00  0.00    +0.195 C 
ATOM     20  O   UNL     1      -3.578  -3.901  -1.758  0.00  0.00    -0.287 OA
BRANCH  19  21
ATOM     21  C   UNL     1      -3.374  -2.902   0.344  0.00  0.00    +0.023 A 
ATOM     22  C   UNL     1      -2.569  -2.700   1.470  0.00  0.00    +0.015 A 
ATOM     23  C   UNL     1      -3.063  -2.009   2.552  0.00  0.00    +0.046 A 
ATOM     24  C   UNL     1      -4.362  -1.512   2.528  0.00  0.00    +0.124 A 
ATOM     25  C   UNL     1      -5.166  -1.712   1.412  0.00  0.00    -0.008 A 
ATOM     26  C   UNL     1      -4.677  -2.397   0.322  0.00  0.00    +0.018 A 
ATOM     27  C   UNL     1      -6.573  -1.172   1.391  0.00  0.00    +0.047 C 
BRANCH  24  28
ATOM     28  O   UNL     1      -4.846  -0.832   3.598  0.00  0.00    -0.489 OA
BRANCH  28  29
ATOM     29  C   UNL     1      -4.014  -0.768   4.757  0.00  0.00    +0.167 C 
ATOM     30  C   UNL     1      -3.036   0.400   4.620  0.00  0.00    +0.051 C 
ATOM     31  C   UNL     1      -4.883  -0.562   5.999  0.00  0.00    +0.051 C 
ENDBRANCH  28  29
ENDBRANCH  24  28
ENDBRANCH  19  21
ENDBRANCH   2  19
BRANCH   7  32
ATOM     32  C   UNL     1       2.340  -3.629  -0.925  0.00  0.00    +0.137 C 
BRANCH  32  33
ATOM     33  C   UNL     1       2.858  -3.473   0.506  0.00  0.00    +0.178 C 
BRANCH  33  34
ATOM     34  O   UNL     1       2.861  -4.746   1.154  0.00  0.00    -0.381 OA
ATOM     35  C   UNL     1       3.330  -4.711   2.504  0.00  0.00    +0.194 C 
ENDBRANCH  33  34
ENDBRANCH  32  33
ENDBRANCH   7  32
TORSDOF 11
