REMARK  Name = ZINC30881705
REMARK  10 active torsions:
REMARK  status: ('A' for Active; 'I' for Inactive)
REMARK    1  A    between atoms: C_1  and  C_2
REMARK    2  A    between atoms: C_4  and  C_29
REMARK    3  A    between atoms: C_6  and  C_26
REMARK    4  A    between atoms: C_9  and  C_11
REMARK    5  A    between atoms: C_11  and  C_12
REMARK    6  A    between atoms: C_26  and  C_27
REMARK    7  A    between atoms: C_26  and  C_28
REMARK    8  A    between atoms: C_29  and  N_30
REMARK    9  A    between atoms: C_31  and  C_33
REMARK   10  A    between atoms: C_36  and  C_39
REMARK                            x       y       z     vdW  Elec       q    Type
REMARK                         _______ _______ _______ _____ _____    ______ ____
ROOT
ATOM      1  C   UNL     1      -1.824   6.043   4.583  0.00  0.00    +0.039 C 
ATOM      2  C   UNL     1      -1.059   4.938   5.265  0.00  0.00    -0.073 C 
ATOM      3  C   UNL     1      -1.585   4.394   6.315  0.00  0.00    -0.022 C 
ATOM      4  C   UNL     1      -0.940   3.293   7.105  0.00  0.00    +0.032 C 
ATOM      5  C   UNL     1       0.170   2.635   6.281  0.00  0.00    +0.000 C 
ATOM      6  C   UNL     1       1.071   3.738   5.712  0.00  0.00    +0.012 C 
ATOM      7  C   UNL     1       0.266   4.538   4.685  0.00  0.00    +0.023 C 
ENDROOT
BRANCH   5   8
ATOM      8  C   UNL     1       0.995   1.709   7.178  0.00  0.00    -0.013 C 
ATOM      9  C   UNL     1       2.006   0.941   6.324  0.00  0.00    +0.007 C 
ATOM     10  C   UNL     1       1.738   2.541   8.224  0.00  0.00    +0.007 C 
ENDBRANCH   5   8
BRANCH   7  11
ATOM     11  C   UNL     1       0.036   3.679   3.440  0.00  0.00    +0.103 C 
BRANCH  11  12
ATOM     12  C   UNL     1       1.354   3.420   2.758  0.00  0.00    +0.216 C 
ATOM     13  O   UNL     1       2.362   3.964   3.158  0.00  0.00    -0.276 OA
ATOM     14  N   UNL     1       1.414   2.584   1.702  0.00  0.00    -0.298 N 
ATOM     15  C   UNL     1       0.204   1.914   1.200  0.00  0.00    +0.126 C 
ATOM     16  C   UNL     1       0.490   0.413   1.087  0.00  0.00    +0.125 C 
ATOM     17  N   UNL     1       1.697   0.207   0.275  0.00  0.00    -0.314 N 
ATOM     18  C   UNL     1       2.878   0.800   0.916  0.00  0.00    +0.125 C 
ATOM     19  C   UNL     1       2.691   2.317   1.022  0.00  0.00    +0.126 C 
ATOM     20  C   UNL     1       1.897  -1.143   0.014  0.00  0.00    +0.099 A 
ATOM     21  C   UNL     1       2.990  -1.544  -0.749  0.00  0.00    +0.042 A 
ATOM     22  C   UNL     1       3.180  -2.891  -0.996  0.00  0.00    +0.005 A 
ATOM     23  C   UNL     1       2.261  -3.796  -0.480  0.00  0.00    +0.018 A 
ATOM     24  C   UNL     1       1.196  -3.328   0.264  0.00  0.00    +0.084 A 
ATOM     25  N   UNL     1       1.043  -2.037   0.489  0.00  0.00    -0.350 N 
ATOM     26  H   UNL     1       0.180  -1.709   1.087  0.00  0.00    +0.166 HD
ENDBRANCH  11  12
ENDBRANCH   7  11
BRANCH   4  27
ATOM     27  C   UNL     1      -1.993   2.244   7.467  0.00  0.00    +0.112 C 
BRANCH  27  28
ATOM     28  N   UNL     1      -2.998   2.846   8.347  0.00  0.00    -0.311 N 
ATOM     29  C   UNL     1      -4.030   2.104   8.797  0.00  0.00    +0.244 C 
ATOM     30  O   UNL     1      -4.126   0.936   8.473  0.00  0.00    -0.270 OA
ATOM     31  H   UNL     1      -2.912   3.902   8.639  0.00  0.00    +0.149 HD
BRANCH  29  32
ATOM     32  C   UNL     1      -5.045   2.711   9.684  0.00  0.00    +0.037 A 
ATOM     33  C   UNL     1      -4.932   4.051  10.060  0.00  0.00    +0.014 A 
ATOM     34  C   UNL     1      -5.881   4.619  10.882  0.00  0.00    +0.019 A 
ATOM     35  C   UNL     1      -6.950   3.850  11.349  0.00  0.00    +0.052 A 
ATOM     36  C   UNL     1      -7.060   2.509  10.977  0.00  0.00    +0.019 A 
ATOM     37  C   UNL     1      -6.114   1.943  10.151  0.00  0.00    +0.014 A 
BRANCH  35  38
ATOM     38  C   UNL     1      -7.933   4.438  12.208  0.00  0.00    +0.099 C 
ATOM     39  N   UNL     1      -8.713   4.905  12.890  0.00  0.00    -0.191 NA
ENDBRANCH  35  38
ENDBRANCH  29  32
ENDBRANCH  27  28
ENDBRANCH   4  27
TORSDOF 7
