REMARK  Name = ZINC12659540
REMARK  7 active torsions:
REMARK  status: ('A' for Active; 'I' for Inactive)
REMARK    1  A    between atoms: C_1  and  C_2
REMARK    2  A    between atoms: C_18  and  C_20
REMARK    3  A    between atoms: C_20  and  N_79
REMARK    4  A    between atoms: C_23  and  C_26
REMARK    5  A    between atoms: C_26  and  C_27
REMARK    6  A    between atoms: C_26  and  C_33
REMARK    7  A    between atoms: C_26  and  O_39
REMARK                            x       y       z     vdW  Elec       q    Type
REMARK                         _______ _______ _______ _____ _____    ______ ____
ROOT
ATOM      1  C   UNL     1       1.791  -0.825  -2.719  0.00  0.00    -0.078 C 
ATOM      2  C   UNL     1       2.296  -0.429  -4.108  0.00  0.00    -0.012 C 
ATOM      3  C   UNL     1       1.198   0.342  -4.846  0.00  0.00    +0.026 C 
ATOM      4  C   UNL     1      -0.059  -0.530  -4.929  0.00  0.00    -0.012 C 
ATOM      5  C   UNL     1      -0.496  -0.923  -3.516  0.00  0.00    -0.078 C 
ATOM      6  N   UNL     1       0.596  -1.682  -2.869  0.00  0.00    +0.380 N 
ATOM      7  H   UNL     1       0.836  -2.487  -3.459  0.00  0.00    -0.082 HD
ENDROOT
BRANCH   6   8
ATOM      8  C   UNL     1       0.156  -2.171  -1.546  0.00  0.00    -0.064 C 
BRANCH   8  23
ATOM      9  C   UNL     1       2.306  -7.124   0.013  0.00  0.00    +0.011 C 
ATOM     10  C   UNL     1       1.697  -7.337  -1.374  0.00  0.00    -0.023 C 
ATOM     11  C   UNL     1       1.745  -8.822  -1.735  0.00  0.00    +0.007 C 
ATOM     12  C   UNL     1       3.189  -9.324  -1.676  0.00  0.00    +0.003 C 
ATOM     13  C   UNL     1       4.030  -8.586  -2.722  0.00  0.00    +0.037 C 
ATOM     14  C   UNL     1       3.917  -7.079  -2.476  0.00  0.00    +0.096 C 
ATOM     15  C   UNL     1       2.490  -6.535  -2.416  0.00  0.00    +0.030 C 
ATOM     16  C   UNL     1       2.509  -5.072  -1.978  0.00  0.00    +0.014 C 
ATOM     17  C   UNL     1       1.092  -4.497  -1.947  0.00  0.00    +0.042 C 
ATOM     18  C   UNL     1       0.161  -5.372  -1.085  0.00  0.00    +0.181 C 
ATOM     19  C   UNL     1       0.272  -6.842  -1.409  0.00  0.00    +0.052 C 
ATOM     20  O   UNL     1       0.558  -5.050   0.279  0.00  0.00    -0.461 OA
ATOM     21  C   UNL     1       0.767  -3.716   0.327  0.00  0.00    +0.309 C 
ATOM     22  O   UNL     1       0.663  -3.026   1.313  0.00  0.00    -0.251 OA
ATOM     23  C   UNL     1       1.154  -3.221  -1.054  0.00  0.00    +0.088 C 
ATOM     24  C   UNL     1       4.974  -6.419  -1.593  0.00  0.00    +0.196 C 
ATOM     25  O   UNL     1       4.936  -6.236  -3.011  0.00  0.00    -0.368 OA
ENDBRANCH   8  23
ENDBRANCH   6   8
BRANCH   3  26
ATOM     26  C   UNL     1       1.674   0.689  -6.258  0.00  0.00    +0.119 C 
BRANCH  26  27
ATOM     27  C   UNL     1       0.559   1.367  -7.011  0.00  0.00    -0.011 A 
ATOM     28  C   UNL     1      -0.160   2.385  -6.413  0.00  0.00    +0.007 A 
ATOM     29  C   UNL     1      -1.180   3.010  -7.106  0.00  0.00    +0.000 A 
ATOM     30  C   UNL     1      -1.487   2.611  -8.394  0.00  0.00    +0.000 A 
ATOM     31  C   UNL     1      -0.771   1.589  -8.990  0.00  0.00    +0.000 A 
ATOM     32  C   UNL     1       0.252   0.967  -8.298  0.00  0.00    +0.007 A 
ENDBRANCH  26  27
BRANCH  26  33
ATOM     33  C   UNL     1       2.860   1.614  -6.174  0.00  0.00    -0.011 A 
ATOM     34  C   UNL     1       2.790   2.760  -5.404  0.00  0.00    +0.007 A 
ATOM     35  C   UNL     1       3.879   3.607  -5.324  0.00  0.00    +0.000 A 
ATOM     36  C   UNL     1       5.036   3.313  -6.022  0.00  0.00    +0.000 A 
ATOM     37  C   UNL     1       5.104   2.170  -6.797  0.00  0.00    +0.000 A 
ATOM     38  C   UNL     1       4.016   1.321  -6.873  0.00  0.00    +0.007 A 
ENDBRANCH  26  33
BRANCH  26  39
ATOM     39  O   UNL     1       2.051  -0.509  -6.941  0.00  0.00    -0.379 OA
ATOM     40  H   UNL     1       2.765  -0.998  -6.511  0.00  0.00    +0.211 HD
ENDBRANCH  26  39
ENDBRANCH   3  26
TORSDOF 6
