REMARK  Name = ZINC12887088
REMARK  6 active torsions:
REMARK  status: ('A' for Active; 'I' for Inactive)
REMARK    1  A    between atoms: C_1  and  O_2
REMARK    2  A    between atoms: O_2  and  C_3
REMARK    3  A    between atoms: C_3  and  C_4
REMARK    4  A    between atoms: C_4  and  N_5
REMARK    5  A    between atoms: C_10  and  C_27
REMARK    6  A    between atoms: C_27  and  C_28
REMARK                            x       y       z     vdW  Elec       q    Type
REMARK                         _______ _______ _______ _____ _____    ______ ____
ROOT
ATOM      1  N   UNL     1       3.980  -5.559   3.459  0.00  0.00    -0.240 N 
ATOM      2  C   UNL     1       4.310  -4.501   2.709  0.00  0.00    +0.224 C 
ATOM      3  O   UNL     1       5.145  -3.671   2.999  0.00  0.00    -0.275 OA
ATOM      4  C   UNL     1       3.481  -4.503   1.445  0.00  0.00    +0.073 C 
ATOM      5  C   UNL     1       2.502  -3.312   1.476  0.00  0.00    -0.053 C 
ATOM      6  C   UNL     1       1.157  -5.204   1.737  0.00  0.00    +0.050 C 
ATOM      7  C   UNL     1       2.579  -5.762   1.608  0.00  0.00    +0.088 C 
ATOM      8  C   UNL     1       3.021  -6.336   2.936  0.00  0.00    +0.225 C 
ATOM      9  O   UNL     1       2.576  -7.342   3.447  0.00  0.00    -0.275 OA
ATOM     10  C   UNL     1       0.329  -6.021   2.689  0.00  0.00    -0.026 A 
ATOM     11  C   UNL     1       0.463  -6.348   4.020  0.00  0.00    +0.024 A 
ATOM     12  C   UNL     1      -0.490  -7.140   4.637  0.00  0.00    +0.041 A 
ATOM     13  C   UNL     1      -1.576  -7.601   3.913  0.00  0.00    +0.022 A 
ATOM     14  C   UNL     1      -1.713  -7.274   2.580  0.00  0.00    +0.025 A 
ATOM     15  C   UNL     1      -0.758  -6.478   1.951  0.00  0.00    +0.036 A 
ATOM     16  N   UNL     1      -0.676  -6.019   0.634  0.00  0.00    -0.286 N 
ATOM     17  C   UNL     1       0.421  -5.265   0.427  0.00  0.00    +0.211 C 
ATOM     18  O   UNL     1       0.750  -4.738  -0.615  0.00  0.00    -0.277 OA
ATOM     19 CL   UNL     1      -0.324  -7.555   6.315  0.00  0.00    -0.084 Cl
ATOM     20  H   UNL     1      -1.333  -6.220  -0.051  0.00  0.00    +0.155 HD
ATOM     21  N   UNL     1       1.329  -3.832   2.181  0.00  0.00    +0.394 N 
ATOM     22  H   UNL     1       0.498  -3.276   1.947  0.00  0.00    -0.083 HD
ATOM     23  H   UNL     1       1.484  -3.805   3.196  0.00  0.00    -0.083 HD
ENDROOT
BRANCH   1  24
ATOM     24  C   UNL     1       4.611  -5.843   4.751  0.00  0.00    +0.144 C 
BRANCH  24  25
ATOM     25  C   UNL     1       5.901  -6.634   4.525  0.00  0.00    +0.179 C 
BRANCH  25  27
ATOM     26  C   UNL     1       8.090  -6.466   3.562  0.00  0.00    +0.194 C 
ATOM     27  O   UNL     1       6.843  -5.818   3.825  0.00  0.00    -0.381 OA
ENDBRANCH  25  27
ENDBRANCH  24  25
ENDBRANCH   1  24
BRANCH   5  28
ATOM     28  C   UNL     1       2.121  -2.899   0.052  0.00  0.00    +0.022 C 
BRANCH  28  29
ATOM     29  C   UNL     1       3.061  -1.823  -0.427  0.00  0.00    -0.024 A 
ATOM     30  C   UNL     1       2.854  -0.498  -0.369  0.00  0.00    +0.087 A 
ATOM     31  N   UNL     1       3.927   0.166  -0.899  0.00  0.00    -0.360 N 
ATOM     32  H   UNL     1       4.008   1.130  -0.966  0.00  0.00    +0.165 HD
ATOM     33  C   UNL     1       4.874  -0.739  -1.322  0.00  0.00    +0.047 A 
ATOM     34  C   UNL     1       4.374  -2.025  -1.045  0.00  0.00    +0.003 A 
ATOM     35  C   UNL     1       5.130  -3.152  -1.370  0.00  0.00    +0.010 A 
ATOM     36  C   UNL     1       6.355  -3.001  -1.957  0.00  0.00    +0.001 A 
ATOM     37  C   UNL     1       6.854  -1.735  -2.232  0.00  0.00    +0.002 A 
ATOM     38  C   UNL     1       6.124  -0.609  -1.919  0.00  0.00    +0.026 A 
ENDBRANCH  28  29
ENDBRANCH   5  28
TORSDOF 5
