REMARK  Name = ZINC34683776
REMARK  11 active torsions:
REMARK  status: ('A' for Active; 'I' for Inactive)
REMARK    1  A    between atoms: C_1  and  C_2
REMARK    2  A    between atoms: C_5  and  N_8
REMARK    3  A    between atoms: N_8  and  C_9
REMARK    4  A    between atoms: N_8  and  S_25
REMARK    5  A    between atoms: N_12  and  C_15
REMARK    6  A    between atoms: C_15  and  C_16
REMARK    7  A    between atoms: C_19  and  N_22
REMARK    8  A    between atoms: N_22  and  C_23
REMARK    9  A    between atoms: N_22  and  C_24
REMARK   10  A    between atoms: S_25  and  C_28
REMARK   11  A    between atoms: C_31  and  C_34
REMARK                            x       y       z     vdW  Elec       q    Type
REMARK                         _______ _______ _______ _____ _____    ______ ____
ROOT
ATOM      1  N   UNL     1      -0.006  -4.199  -0.019  0.00  0.00    -0.200 N 
ENDROOT
BRANCH   1   6
ATOM      2  C   UNL     1      -0.956   1.377   0.397  0.00  0.00    +0.044 C 
ATOM      3  C   UNL     1      -0.704  -0.105   0.286  0.00  0.00    -0.050 A 
ATOM      4  C   UNL     1       0.582  -0.573   0.084  0.00  0.00    +0.005 A 
ATOM      5  C   UNL     1       0.817  -1.930  -0.017  0.00  0.00    +0.025 A 
ATOM      6  C   UNL     1      -0.240  -2.825   0.084  0.00  0.00    +0.052 A 
ATOM      7  C   UNL     1      -1.530  -2.352   0.287  0.00  0.00    +0.025 A 
ATOM      8  C   UNL     1      -1.757  -0.994   0.393  0.00  0.00    +0.005 A 
ENDBRANCH   1   6
BRANCH   1   9
ATOM      9  C   UNL     1       0.667  -4.910   1.070  0.00  0.00    +0.095 C 
ATOM     10  C   UNL     1       2.105  -4.402   1.203  0.00  0.00    +0.006 C 
ATOM     11  C   UNL     1       2.777  -5.092   2.393  0.00  0.00    -0.077 C 
ATOM     12  N   UNL     1       2.034  -4.789   3.622  0.00  0.00    +0.382 N 
ATOM     13  C   UNL     1       0.675  -5.337   3.530  0.00  0.00    -0.077 C 
ATOM     14  C   UNL     1      -0.077  -4.657   2.385  0.00  0.00    +0.006 C 
ATOM     15  H   UNL     1       1.984  -3.789   3.746  0.00  0.00    -0.081 HD
BRANCH  12  16
ATOM     16  C   UNL     1       2.726  -5.389   4.770  0.00  0.00    -0.043 C 
BRANCH  16  17
ATOM     17  C   UNL     1       2.034  -4.977   6.044  0.00  0.00    -0.064 A 
ATOM     18  C   UNL     1       2.423  -3.823   6.699  0.00  0.00    +0.003 A 
ATOM     19  C   UNL     1       1.791  -3.443   7.867  0.00  0.00    +0.023 A 
ATOM     20  C   UNL     1       0.763  -4.222   8.383  0.00  0.00    +0.029 A 
ATOM     21  C   UNL     1       0.374  -5.380   7.723  0.00  0.00    +0.023 A 
ATOM     22  C   UNL     1       1.007  -5.752   6.553  0.00  0.00    +0.003 A 
BRANCH  20  23
ATOM     23  N   UNL     1       0.122  -3.841   9.564  0.00  0.00    -0.336 N 
ATOM     24  C   UNL     1       0.614  -2.690  10.327  0.00  0.00    +0.129 C 
ATOM     25  C   UNL     1      -1.042  -4.591  10.041  0.00  0.00    +0.129 C 
ENDBRANCH  20  23
ENDBRANCH  16  17
ENDBRANCH  12  16
ENDBRANCH   1   9
BRANCH   1  26
ATOM     26  S   UNL     1      -0.489  -5.022  -1.372  0.00  0.00    +0.075 S 
ATOM     27  O   UNL     1      -0.767  -6.353  -0.960  0.00  0.00    -0.150 OA
ATOM     28  O   UNL     1      -1.457  -4.207  -2.019  0.00  0.00    -0.150 OA
BRANCH  26  29
ATOM     29  C   UNL     1       0.900  -5.109  -2.453  0.00  0.00    +0.109 A 
ATOM     30  C   UNL     1       1.175  -4.060  -3.310  0.00  0.00    +0.029 A 
ATOM     31  C   UNL     1       2.265  -4.128  -4.158  0.00  0.00    +0.005 A 
ATOM     32  C   UNL     1       3.080  -5.245  -4.148  0.00  0.00    -0.050 A 
ATOM     33  C   UNL     1       2.805  -6.293  -3.290  0.00  0.00    +0.005 A 
ATOM     34  C   UNL     1       1.718  -6.223  -2.439  0.00  0.00    +0.029 A 
ATOM     35  C   UNL     1       4.267  -5.320  -5.073  0.00  0.00    +0.044 C 
ENDBRANCH  26  29
ENDBRANCH   1  26
TORSDOF 7
