REMARK  Name = ZINC13670373
REMARK  12 active torsions:
REMARK  status: ('A' for Active; 'I' for Inactive)
REMARK    1  A    between atoms: C_1  and  C_2
REMARK    2  A    between atoms: C_2  and  C_4
REMARK    3  A    between atoms: C_2  and  N_14
REMARK    4  A    between atoms: C_7  and  C_10
REMARK    5  A    between atoms: C_10  and  C_11
REMARK    6  A    between atoms: C_10  and  C_12
REMARK    7  A    between atoms: C_10  and  C_13
REMARK    8  A    between atoms: C_15  and  C_17
REMARK    9  A    between atoms: C_17  and  N_18
REMARK   10  A    between atoms: N_18  and  C_19
REMARK   11  A    between atoms: N_18  and  S_26
REMARK   12  A    between atoms: S_26  and  C_29
REMARK                            x       y       z     vdW  Elec       q    Type
REMARK                         _______ _______ _______ _____ _____    ______ ____
ROOT
ATOM      1  N   UNL     1      -1.825  -0.883   3.707  0.00  0.00    -0.307 N 
ATOM      2  C   UNL     1      -1.093   0.027   3.036  0.00  0.00    +0.233 C 
ATOM      3  O   UNL     1       0.098   0.121   3.245  0.00  0.00    -0.274 OA
ATOM      4  H   UNL     1      -2.778  -0.958   3.540  0.00  0.00    +0.149 HD
ENDROOT
BRANCH   1   6
ATOM      5  C   UNL     1      -0.592  -2.978   3.977  0.00  0.00    +0.033 C 
ATOM      6  C   UNL     1      -1.183  -1.760   4.690  0.00  0.00    +0.100 C 
BRANCH   6   7
ATOM      7  C   UNL     1      -2.204  -2.216   5.699  0.00  0.00    -0.027 A 
ATOM      8  C   UNL     1      -3.482  -2.546   5.289  0.00  0.00    +0.006 A 
ATOM      9  C   UNL     1      -4.418  -2.969   6.215  0.00  0.00    +0.004 A 
ATOM     10  C   UNL     1      -4.078  -3.052   7.552  0.00  0.00    -0.042 A 
ATOM     11  C   UNL     1      -2.802  -2.716   7.963  0.00  0.00    +0.004 A 
ATOM     12  C   UNL     1      -1.865  -2.299   7.037  0.00  0.00    +0.006 A 
BRANCH  10  13
ATOM     13  C   UNL     1      -5.100  -3.508   8.562  0.00  0.00    -0.013 C 
ATOM     14  C   UNL     1      -5.323  -2.403   9.596  0.00  0.00    +0.015 C 
ATOM     15  C   UNL     1      -6.419  -3.815   7.851  0.00  0.00    +0.015 C 
ATOM     16  C   UNL     1      -4.594  -4.770   9.265  0.00  0.00    +0.015 C 
ENDBRANCH  10  13
ENDBRANCH   6   7
ENDBRANCH   1   6
BRANCH   2  17
ATOM     17  C   UNL     1      -1.753   0.929   2.025  0.00  0.00    +0.226 C 
BRANCH  17  18
ATOM     18  N   UNL     1      -0.751   1.822   1.438  0.00  0.00    -0.199 N 
BRANCH  18  19
ATOM     19  C   UNL     1      -0.414   3.014   2.083  0.00  0.00    +0.053 A 
ATOM     20  C   UNL     1      -0.595   3.138   3.455  0.00  0.00    +0.025 A 
ATOM     21  C   UNL     1      -0.256   4.316   4.091  0.00  0.00    +0.003 A 
ATOM     22  C   UNL     1       0.253   5.376   3.362  0.00  0.00    +0.020 A 
ATOM     23  C   UNL     1       0.430   5.258   1.995  0.00  0.00    +0.043 A 
ATOM     24  C   UNL     1       0.097   4.079   1.353  0.00  0.00    +0.044 A 
ATOM     25 CL   UNL     1       1.069   6.590   1.085  0.00  0.00    -0.083 Cl
ENDBRANCH  18  19
BRANCH  18  26
ATOM     26  S   UNL     1      -0.017   1.417   0.010  0.00  0.00    +0.043 S 
ATOM     27  O   UNL     1       0.002  -0.004   0.002  0.00  0.00    -0.155 OA
ATOM     28  O   UNL     1       1.195   2.158   0.002  0.00  0.00    -0.155 OA
ATOM     29  C   UNL     1      -1.135   2.034  -1.279  0.00  0.00    +0.218 C 
ENDBRANCH  18  26
ENDBRANCH  17  18
ENDBRANCH   2  17
TORSDOF 7
