REMARK  Name = ZINC21319496
REMARK  10 active torsions:
REMARK  status: ('A' for Active; 'I' for Inactive)
REMARK    1  A    between atoms: C_1  and  C_2
REMARK    2  A    between atoms: C_7  and  N_8
REMARK    3  A    between atoms: C_9  and  C_11
REMARK    4  A    between atoms: C_11  and  S_12
REMARK    5  A    between atoms: S_12  and  C_13
REMARK    6  A    between atoms: N_17  and  N_18
REMARK    7  A    between atoms: N_19  and  N_20
REMARK    8  A    between atoms: C_21  and  C_22
REMARK    9  A    between atoms: C_27  and  O_28
REMARK   10  A    between atoms: O_28  and  C_29
REMARK                            x       y       z     vdW  Elec       q    Type
REMARK                         _______ _______ _______ _____ _____    ______ ____
ROOT
ATOM      1  C   UNL     1      -1.837  -4.220   0.028  0.00  0.00    +0.210 A 
ATOM      2  N   UNL     1      -0.525  -4.203   0.023  0.00  0.00    -0.119 NA
ATOM      3  N   UNL     1      -0.110  -2.865   0.030  0.00  0.00    -0.109 NA
ATOM      4  C   UNL     1      -1.181  -2.109   0.049  0.00  0.00    +0.254 A 
ATOM      5  N   UNL     1      -2.276  -2.927   0.044  0.00  0.00    -0.211 N 
ATOM      6  N   UNL     1      -1.199  -0.722   0.065  0.00  0.00    -0.204 N 
ATOM      7  H   UNL     1      -2.159  -0.184   0.075  0.00  0.00    +0.177 HD
ENDROOT
BRANCH   5   8
ATOM      8  N   UNL     1      -3.581  -2.522   0.055  0.00  0.00    -0.294 N 
ATOM      9  H   UNL     1      -3.824  -1.450   0.068  0.00  0.00    +0.163 HD
ATOM     10  H   UNL     1      -4.388  -3.269   0.050  0.00  0.00    +0.163 HD
ENDBRANCH   5   8
BRANCH   6  11
ATOM     11  N   UNL     1       0.005  -0.005   0.068  0.00  0.00    -0.187 NA
ATOM     12  C   UNL     1      -0.013   1.294   0.083  0.00  0.00    +0.142 C 
BRANCH  12  13
ATOM     13  C   UNL     1       1.254   2.047   0.086  0.00  0.00    +0.036 A 
ATOM     14  C   UNL     1       1.240   3.444   0.096  0.00  0.00    +0.013 A 
ATOM     15  C   UNL     1       2.428   4.143   0.104  0.00  0.00    +0.001 A 
ATOM     16  C   UNL     1       3.636   3.467   0.091  0.00  0.00    +0.004 A 
ATOM     17  C   UNL     1       3.663   2.085   0.076  0.00  0.00    +0.046 A 
ATOM     18  C   UNL     1       2.479   1.367   0.073  0.00  0.00    +0.129 A 
BRANCH  18  19
ATOM     19  O   UNL     1       2.505   0.009   0.059  0.00  0.00    -0.494 OA
ATOM     20  C   UNL     1       3.790  -0.616   0.046  0.00  0.00    +0.277 C 
ENDBRANCH  18  19
ENDBRANCH  12  13
ENDBRANCH   6  11
BRANCH   1  21
ATOM     21  S   UNL     1      -2.854  -5.659   0.015  0.00  0.00    -0.075 S 
BRANCH  21  22
ATOM     22  C   UNL     1      -1.669  -7.033  -0.005  0.00  0.00    +0.173 C 
BRANCH  22  24
ATOM     23  N   UNL     1      -1.739  -9.506  -0.033  0.00  0.00    -0.285 N 
ATOM     24  C   UNL     1      -2.418  -8.341  -0.017  0.00  0.00    +0.227 C 
ATOM     25  O   UNL     1      -3.631  -8.346  -0.013  0.00  0.00    -0.275 OA
ATOM     26  H   UNL     1      -0.643  -9.502  -0.129  0.00  0.00    +0.155 HD
BRANCH  23  33
ATOM     27  C   UNL     1      -0.517 -11.843  -1.099  0.00  0.00    +0.045 C 
ATOM     28  C   UNL     1      -1.869 -11.884  -0.435  0.00  0.00    -0.029 A 
ATOM     29  C   UNL     1      -2.552 -13.079  -0.329  0.00  0.00    +0.005 A 
ATOM     30  C   UNL     1      -3.792 -13.117   0.281  0.00  0.00    +0.000 A 
ATOM     31  C   UNL     1      -4.352 -11.959   0.788  0.00  0.00    +0.002 A 
ATOM     32  C   UNL     1      -3.672 -10.761   0.690  0.00  0.00    +0.023 A 
ATOM     33  C   UNL     1      -2.429 -10.719   0.072  0.00  0.00    +0.036 A 
ENDBRANCH  23  33
ENDBRANCH  22  24
ENDBRANCH  21  22
ENDBRANCH   1  21
TORSDOF 8
