REMARK  Name = ZINC39868977
REMARK  12 active torsions:
REMARK  status: ('A' for Active; 'I' for Inactive)
REMARK    1  A    between atoms: C_1  and  C_2
REMARK    2  A    between atoms: C_2  and  C_3
REMARK    3  A    between atoms: C_3  and  C_4
REMARK    4  A    between atoms: C_4  and  O_5
REMARK    5  A    between atoms: O_5  and  C_6
REMARK    6  A    between atoms: C_9  and  C_13
REMARK    7  A    between atoms: N_15  and  C_16
REMARK    8  A    between atoms: C_17  and  C_26
REMARK    9  A    between atoms: N_22  and  C_25
REMARK   10  A    between atoms: C_26  and  O_28
REMARK   11  A    between atoms: O_28  and  C_29
REMARK   12  A    between atoms: C_29  and  C_30
REMARK                            x       y       z     vdW  Elec       q    Type
REMARK                         _______ _______ _______ _____ _____    ______ ____
ROOT
ATOM      1  C   UNL     1      -3.412  -8.124  -0.009  0.00  0.00    +0.249 C 
ATOM      2  O   UNL     1      -3.490  -8.723  -1.065  0.00  0.00    -0.270 OA
ATOM      3  N   UNL     1      -3.485  -8.799   1.155  0.00  0.00    -0.275 N 
ATOM      4  H   UNL     1      -3.424  -8.322   1.997  0.00  0.00    +0.156 HD
ENDROOT
BRANCH   3   5
ATOM      5  C   UNL     1      -3.649 -10.175   1.149  0.00  0.00    +0.086 A 
ATOM      6  C   UNL     1      -3.749 -11.027   2.241  0.00  0.00    +0.091 A 
ATOM      7  C   UNL     1      -3.917 -12.440   1.962  0.00  0.00    -0.025 A 
ATOM      8  C   UNL     1      -3.954 -12.746   0.645  0.00  0.00    -0.021 A 
ATOM      9  S   UNL     1      -3.778 -11.193  -0.180  0.00  0.00    -0.079 S 
ATOM     10  C   UNL     1      -4.112 -14.114   0.061  0.00  0.00    -0.036 C 
ATOM     11  N   UNL     1      -3.840 -15.104   1.120  0.00  0.00    +0.381 N 
ATOM     12  C   UNL     1      -4.629 -14.778   2.315  0.00  0.00    -0.074 C 
ATOM     13  C   UNL     1      -4.052 -13.538   3.007  0.00  0.00    +0.018 C 
ATOM     14  C   UNL     1      -4.207 -16.444   0.643  0.00  0.00    -0.096 C 
ATOM     15  H   UNL     1      -2.858 -15.088   1.351  0.00  0.00    -0.082 HD
BRANCH   6  16
ATOM     16  C   UNL     1      -3.687 -10.521   3.614  0.00  0.00    +0.342 C 
ATOM     17  O   UNL     1      -4.708 -10.187   4.185  0.00  0.00    -0.245 OA
BRANCH  16  18
ATOM     18  O   UNL     1      -2.499 -10.426   4.245  0.00  0.00    -0.461 OA
BRANCH  18  19
ATOM     19  C   UNL     1      -2.513  -9.924   5.583  0.00  0.00    +0.229 C 
ATOM     20  C   UNL     1      -1.084  -9.889   6.129  0.00  0.00    +0.048 C 
ENDBRANCH  18  19
ENDBRANCH  16  18
ENDBRANCH   6  16
ENDBRANCH   3   5
BRANCH   1  24
ATOM     21  C   UNL     1      -2.913  -3.906   0.009  0.00  0.00    +0.157 A 
ATOM     22  C   UNL     1      -3.000  -4.589  -1.199  0.00  0.00    +0.085 A 
ATOM     23  C   UNL     1      -3.162  -5.958  -1.209  0.00  0.00    +0.036 A 
ATOM     24  C   UNL     1      -3.238  -6.659  -0.003  0.00  0.00    +0.040 A 
ATOM     25  C   UNL     1      -3.150  -5.970   1.209  0.00  0.00    +0.036 A 
ATOM     26  C   UNL     1      -2.983  -4.601   1.211  0.00  0.00    +0.085 A 
ATOM     27 CL   UNL     1      -2.866  -3.744   2.716  0.00  0.00    -0.080 Cl
ATOM     28 CL   UNL     1      -2.905  -3.717  -2.697  0.00  0.00    -0.080 Cl
BRANCH  21  29
ATOM     29  O   UNL     1      -2.753  -2.558   0.015  0.00  0.00    -0.489 OA
BRANCH  29  30
ATOM     30  C   UNL     1      -1.413  -2.063   0.004  0.00  0.00    +0.229 C 
BRANCH  30  31
ATOM     31  C   UNL     1      -1.433  -0.534   0.013  0.00  0.00    +0.041 C 
BRANCH  31  33
ATOM     32  C   UNL     1      -0.019   1.526   0.010  0.00  0.00    +0.004 C 
ATOM     33  C   UNL     1       0.002  -0.004   0.002  0.00  0.00    -0.000 C 
ENDBRANCH  31  33
ENDBRANCH  30  31
ENDBRANCH  29  30
ENDBRANCH  21  29
ENDBRANCH   1  24
TORSDOF 9
