REMARK  Name = ZINC39527601
REMARK  9 active torsions:
REMARK  status: ('A' for Active; 'I' for Inactive)
REMARK    1  A    between atoms: C_1  and  C_2
REMARK    2  A    between atoms: C_2  and  C_3
REMARK    3  A    between atoms: C_2  and  S_4
REMARK    4  A    between atoms: S_4  and  C_7
REMARK    5  A    between atoms: N_13  and  S_14
REMARK    6  A    between atoms: S_14  and  O_17
REMARK    7  A    between atoms: O_17  and  C_18
REMARK    8  A    between atoms: C_27  and  C_30
REMARK    9  A    between atoms: C_35  and  O_36
REMARK                            x       y       z     vdW  Elec       q    Type
REMARK                         _______ _______ _______ _____ _____    ______ ____
ROOT
ATOM      1  C   UNL     1      -2.140   0.024  -1.387  0.00  0.00    +0.224 C 
ATOM      2  C   UNL     1      -3.662  -0.084  -1.526  0.00  0.00    +0.044 C 
ATOM      3  C   UNL     1      -4.078   0.391  -2.920  0.00  0.00    +0.005 C 
ATOM      4  C   UNL     1      -3.432  -0.504  -3.980  0.00  0.00    +0.024 C 
ATOM      5  C   UNL     1      -1.909  -0.403  -3.868  0.00  0.00    +0.048 C 
ATOM      6  N   UNL     1      -1.508  -0.714  -2.489  0.00  0.00    -0.117 NA
ATOM      7  C   UNL     1      -1.461   1.017  -4.217  0.00  0.00    +0.024 C 
ATOM      8  C   UNL     1       0.061   1.116  -4.097  0.00  0.00    +0.002 C 
ATOM      9  C   UNL     1       0.714   0.121  -5.059  0.00  0.00    +0.008 C 
ATOM     10  C   UNL     1       0.267  -1.299  -4.707  0.00  0.00    +0.024 C 
ATOM     11  C   UNL     1      -1.255  -1.399  -4.826  0.00  0.00    +0.032 C 
ENDROOT
BRANCH  10  12
ATOM     12  C   UNL     1       0.911  -2.278  -5.655  0.00  0.00    -0.003 A 
ATOM     13  C   UNL     1       0.694  -2.167  -7.015  0.00  0.00    +0.007 A 
ATOM     14  C   UNL     1       1.284  -3.066  -7.885  0.00  0.00    +0.001 A 
ATOM     15  C   UNL     1       2.092  -4.076  -7.396  0.00  0.00    +0.004 A 
ATOM     16  C   UNL     1       2.312  -4.190  -6.038  0.00  0.00    +0.046 A 
ATOM     17  C   UNL     1       1.725  -3.287  -5.163  0.00  0.00    +0.120 A 
BRANCH  17  18
ATOM     18  O   UNL     1       1.945  -3.394  -3.826  0.00  0.00    -0.506 OA
ATOM     19  H   UNL     1       1.363  -4.025  -3.381  0.00  0.00    +0.292 HD
ENDBRANCH  17  18
ENDBRANCH  10  12
BRANCH   1  20
ATOM     20  S   UNL     1      -1.623  -0.689   0.199  0.00  0.00    -0.011 S 
ATOM     21  O   UNL     1      -0.203  -0.659   0.263  0.00  0.00    -0.173 OA
ATOM     22  O   UNL     1      -2.296  -1.928   0.375  0.00  0.00    -0.173 OA
BRANCH  20  24
ATOM     23  C   UNL     1      -3.793   0.322   1.520  0.00  0.00    +0.031 C 
ATOM     24  C   UNL     1      -2.278   0.497   1.405  0.00  0.00    +0.126 C 
ATOM     25  C   UNL     1      -1.630   0.248   2.768  0.00  0.00    +0.031 C 
ENDBRANCH  20  24
ENDBRANCH   1  20
BRANCH   6  26
ATOM     26  S   UNL     1      -0.370  -1.877  -2.183  0.00  0.00    +0.196 S 
ATOM     27  O   UNL     1      -0.521  -2.244  -0.818  0.00  0.00    -0.119 OA
ATOM     28  O   UNL     1      -0.460  -2.823  -3.240  0.00  0.00    -0.119 OA
BRANCH  26  29
ATOM     29  O   UNL     1       0.995  -1.215  -2.307  0.00  0.00    -0.333 OA
BRANCH  29  30
ATOM     30  C   UNL     1       1.386  -0.543  -1.192  0.00  0.00    +0.158 A 
ATOM     31  C   UNL     1       1.005   0.778  -1.008  0.00  0.00    +0.048 A 
ATOM     32  C   UNL     1       1.404   1.460   0.125  0.00  0.00    +0.004 A 
ATOM     33  C   UNL     1       2.183   0.826   1.076  0.00  0.00    +0.000 A 
ATOM     34  C   UNL     1       2.564  -0.491   0.895  0.00  0.00    +0.004 A 
ATOM     35  C   UNL     1       2.163  -1.178  -0.234  0.00  0.00    +0.048 A 
ENDBRANCH  29  30
ENDBRANCH  26  29
ENDBRANCH   6  26
TORSDOF 7
