REMARK  Name = ZINC52984308
REMARK  4 active torsions:
REMARK  status: ('A' for Active; 'I' for Inactive)
REMARK    1  A    between atoms: C_1  and  C_2
REMARK    2  A    between atoms: C_6  and  C_8
REMARK    3  A    between atoms: C_10  and  C_13
REMARK    4  A    between atoms: C_16  and  O_19
REMARK                            x       y       z     vdW  Elec       q    Type
REMARK                         _______ _______ _______ _____ _____    ______ ____
ROOT
ATOM      1  C   UNL     1       0.053  -2.843   2.459  0.00  0.00    +0.262 A 
ATOM      2  N   UNL     1       0.076  -4.150   2.582  0.00  0.00    -0.187 NA
ATOM      3  C   UNL     1       0.085  -4.487   3.881  0.00  0.00    +0.202 A 
ATOM      4  N   UNL     1       0.067  -3.392   4.603  0.00  0.00    -0.056 NA
ATOM      5  O   UNL     1       0.052  -2.304   3.691  0.00  0.00    -0.332 OA
ENDROOT
BRANCH   1  11
ATOM      6  C   UNL     1      -0.018   1.503   0.010  0.00  0.00    +0.044 C 
ATOM      7  C   UNL     1       0.002  -0.004   0.002  0.00  0.00    -0.050 A 
ATOM      8  C   UNL     1       0.006  -0.687  -1.202  0.00  0.00    +0.006 A 
ATOM      9  C   UNL     1       0.024  -2.070  -1.220  0.00  0.00    +0.039 A 
ATOM     10  C   UNL     1       0.040  -2.779  -0.033  0.00  0.00    +0.136 A 
ATOM     11  C   UNL     1       0.036  -2.094   1.186  0.00  0.00    +0.075 A 
ATOM     12  C   UNL     1       0.023  -0.698   1.194  0.00  0.00    +0.019 A 
ATOM     13  F   UNL     1       0.057  -4.130  -0.051  0.00  0.00    -0.205 F 
ENDBRANCH   1  11
BRANCH   3  14
ATOM     14  C   UNL     1       0.110  -5.872   4.414  0.00  0.00    +0.023 A 
ATOM     15  C   UNL     1       0.133  -6.956   3.539  0.00  0.00    +0.015 A 
ATOM     16  C   UNL     1       0.157  -8.242   4.037  0.00  0.00    +0.046 A 
ATOM     17  C   UNL     1       0.159  -8.456   5.409  0.00  0.00    +0.117 A 
ATOM     18  C   UNL     1       0.136  -7.378   6.283  0.00  0.00    +0.046 A 
ATOM     19  C   UNL     1       0.117  -6.090   5.791  0.00  0.00    +0.015 A 
BRANCH  17  20
ATOM     20  O   UNL     1       0.182  -9.724   5.896  0.00  0.00    -0.507 OA
ATOM     21  H   UNL     1       1.073 -10.074   6.039  0.00  0.00    +0.292 HD
ENDBRANCH  17  20
ENDBRANCH   3  14
TORSDOF 3
