REMARK  Name = ZINC39530558
REMARK  6 active torsions:
REMARK  status: ('A' for Active; 'I' for Inactive)
REMARK    1  A    between atoms: C_4  and  O_7
REMARK    2  A    between atoms: O_7  and  S_8
REMARK    3  A    between atoms: S_8  and  C_11
REMARK    4  A    between atoms: C_16  and  N_17
REMARK    5  A    between atoms: C_21  and  C_24
REMARK    6  A    between atoms: C_29  and  O_30
REMARK                            x       y       z     vdW  Elec       q    Type
REMARK                         _______ _______ _______ _____ _____    ______ ____
ROOT
ATOM      1  C   UNL     1       2.853  -4.633   2.322  0.00  0.00    +0.150 A 
ATOM      2  C   UNL     1       1.666  -4.368   2.977  0.00  0.00    +0.047 A 
ATOM      3  C   UNL     1       1.260  -3.060   3.173  0.00  0.00    +0.020 A 
ATOM      4  C   UNL     1       2.041  -2.014   2.715  0.00  0.00    +0.017 A 
ATOM      5  C   UNL     1       3.229  -2.273   2.060  0.00  0.00    +0.026 A 
ATOM      6  C   UNL     1       3.642  -3.585   1.866  0.00  0.00    +0.058 A 
ATOM      7 BR   UNL     1      -0.367  -2.701   4.069  0.00  0.00    -0.050 Br
ENDROOT
BRANCH   6   8
ATOM      8  N   UNL     1       4.846  -3.850   1.209  0.00  0.00    -0.331 N 
ATOM      9  C   UNL     1       6.079  -4.116   1.967  0.00  0.00    +0.086 C 
ATOM     10  C   UNL     1       7.190  -3.215   1.419  0.00  0.00    -0.063 C 
ATOM     11  N   UNL     1       7.314  -3.417  -0.030  0.00  0.00    +0.386 N 
ATOM     12  C   UNL     1       6.083  -2.982  -0.703  0.00  0.00    -0.020 C 
ATOM     13  C   UNL     1       4.916  -3.877  -0.260  0.00  0.00    +0.094 C 
ATOM     14  H   UNL     1       8.094  -2.881  -0.378  0.00  0.00    -0.085 HD
ATOM     15  H   UNL     1       7.470  -4.396  -0.219  0.00  0.00    -0.085 HD
BRANCH  12  16
ATOM     16  C   UNL     1       6.261  -3.091  -2.195  0.00  0.00    -0.018 A 
ATOM     17  C   UNL     1       7.172  -3.989  -2.719  0.00  0.00    +0.005 A 
ATOM     18  C   UNL     1       7.335  -4.090  -4.088  0.00  0.00    +0.000 A 
ATOM     19  C   UNL     1       6.588  -3.293  -4.936  0.00  0.00    +0.004 A 
ATOM     20  C   UNL     1       5.676  -2.395  -4.418  0.00  0.00    +0.045 A 
ATOM     21  C   UNL     1       5.506  -2.296  -3.044  0.00  0.00    +0.118 A 
BRANCH  21  22
ATOM     22  O   UNL     1       4.606  -1.416  -2.532  0.00  0.00    -0.507 OA
ATOM     23  H   UNL     1       4.971  -0.538  -2.355  0.00  0.00    +0.292 HD
ENDBRANCH  21  22
ENDBRANCH  12  16
ENDBRANCH   6   8
BRANCH   1  24
ATOM     24  S   UNL     1       3.369  -6.299   2.072  0.00  0.00    +0.153 S 
ATOM     25  O   UNL     1       4.135  -6.312   0.876  0.00  0.00    -0.131 OA
ATOM     26  O   UNL     1       2.216  -7.112   2.247  0.00  0.00    -0.131 OA
BRANCH  24  27
ATOM     27  O   UNL     1       4.324  -6.649   3.204  0.00  0.00    -0.342 OA
BRANCH  27  31
ATOM     28  C   UNL     1       2.465  -7.309   6.827  0.00  0.00    +0.000 A 
ATOM     29  C   UNL     1       2.666  -8.361   5.953  0.00  0.00    +0.004 A 
ATOM     30  C   UNL     1       3.289  -8.143   4.739  0.00  0.00    +0.048 A 
ATOM     31  C   UNL     1       3.711  -6.866   4.397  0.00  0.00    +0.157 A 
ATOM     32  C   UNL     1       3.507  -5.812   5.276  0.00  0.00    +0.048 A 
ATOM     33  C   UNL     1       2.885  -6.036   6.489  0.00  0.00    +0.004 A 
ENDBRANCH  27  31
ENDBRANCH  24  27
ENDBRANCH   1  24
TORSDOF 6
