REMARK  Name = ZINC39280269
REMARK  6 active torsions:
REMARK  status: ('A' for Active; 'I' for Inactive)
REMARK    1  A    between atoms: C_1  and  C_2
REMARK    2  A    between atoms: C_2  and  C_3
REMARK    3  A    between atoms: C_8  and  C_12
REMARK    4  A    between atoms: N_16  and  C_27
REMARK    5  A    between atoms: N_18  and  C_19
REMARK    6  A    between atoms: C_22  and  C_25
REMARK                            x       y       z     vdW  Elec       q    Type
REMARK                         _______ _______ _______ _____ _____    ______ ____
ROOT
ATOM      1  C   UNL     1       5.124  -1.535  -3.192  0.00  0.00    +0.026 C 
ATOM      2  C   UNL     1       6.457  -1.521  -2.827  0.00  0.00    +0.078 C 
ATOM      3  C   UNL     1       7.655  -1.889  -3.622  0.00  0.00    +0.259 C 
ATOM      4  O   UNL     1       7.564  -2.272  -4.772  0.00  0.00    -0.269 OA
ATOM      5  N   UNL     1       8.826  -1.781  -3.017  0.00  0.00    -0.249 N 
ATOM      6  C   UNL     1       8.907  -1.345  -1.713  0.00  0.00    +0.168 C 
ATOM      7  N   UNL     1       9.980  -1.183  -0.973  0.00  0.00    -0.226 NA
ATOM      8  S   UNL     1       7.203  -1.047  -1.274  0.00  0.00    -0.049 S 
ATOM      9  C   UNL     1      10.051  -2.128  -3.743  0.00  0.00    +0.140 C 
ENDROOT
BRANCH   1  15
ATOM     10  C   UNL     1       0.707  -0.490  -1.238  0.00  0.00    -0.024 A 
ATOM     11  C   UNL     1      -0.006  -0.811  -2.344  0.00  0.00    +0.005 A 
ATOM     12  C   UNL     1       0.611  -1.266  -3.513  0.00  0.00    +0.001 A 
ATOM     13  C   UNL     1       1.958  -1.408  -3.598  0.00  0.00    +0.010 A 
ATOM     14  C   UNL     1       2.767  -1.093  -2.486  0.00  0.00    +0.003 A 
ATOM     15  C   UNL     1       4.147  -1.138  -2.280  0.00  0.00    -0.018 C 
ATOM     16  C   UNL     1       4.360  -0.666  -0.859  0.00  0.00    +0.149 C 
ATOM     17  N   UNL     1       3.026  -0.370  -0.326  0.00  0.00    -0.380 N 
ATOM     18  C   UNL     1       2.124  -0.607  -1.253  0.00  0.00    +0.046 A 
ATOM     19  H   UNL     1       2.840  -0.046   0.570  0.00  0.00    +0.160 HD
BRANCH  10  21
ATOM     20  C   UNL     1      -0.019   1.526   0.010  0.00  0.00    +0.009 C 
ATOM     21  C   UNL     1       0.002  -0.004   0.002  0.00  0.00    +0.034 C 
ENDBRANCH  10  21
ENDBRANCH   1  15
BRANCH   7  22
ATOM     22  C   UNL     1       9.861  -0.737   0.314  0.00  0.00    +0.067 A 
ATOM     23  C   UNL     1       9.014   0.334   0.611  0.00  0.00    +0.028 A 
ATOM     24  C   UNL     1       8.899   0.778   1.911  0.00  0.00    +0.005 A 
ATOM     25  C   UNL     1       9.621   0.166   2.921  0.00  0.00    -0.050 A 
ATOM     26  C   UNL     1      10.462  -0.895   2.635  0.00  0.00    +0.005 A 
ATOM     27  C   UNL     1      10.582  -1.353   1.340  0.00  0.00    +0.028 A 
ATOM     28  C   UNL     1       9.490   0.658   4.340  0.00  0.00    +0.044 C 
ENDBRANCH   7  22
TORSDOF 3
