REMARK  Name = ZINC23479095
REMARK  5 active torsions:
REMARK  status: ('A' for Active; 'I' for Inactive)
REMARK    1  A    between atoms: C_2  and  C_27
REMARK    2  A    between atoms: N_5  and  C_6
REMARK    3  A    between atoms: C_6  and  C_7
REMARK    4  A    between atoms: N_16  and  C_17
REMARK    5  A    between atoms: C_27  and  N_28
REMARK                            x       y       z     vdW  Elec       q    Type
REMARK                         _______ _______ _______ _____ _____    ______ ____
ROOT
ATOM      1  C   UNL     1      -2.332  -3.688  -1.445  0.00  0.00    +0.028 C 
ATOM      2  C   UNL     1      -1.076  -4.559  -1.378  0.00  0.00    +0.008 C 
ATOM      3  C   UNL     1       0.166  -3.667  -1.361  0.00  0.00    +0.019 C 
ATOM      4  C   UNL     1       0.131  -2.772  -0.117  0.00  0.00    +0.109 C 
ATOM      5  N   UNL     1      -1.141  -2.037  -0.100  0.00  0.00    -0.285 N 
ATOM      6  C   UNL     1      -2.396  -2.794  -0.197  0.00  0.00    +0.114 C 
ATOM      7  C   UNL     1      -1.156  -0.694   0.009  0.00  0.00    +0.303 C 
ATOM      8  O   UNL     1      -2.214  -0.104   0.115  0.00  0.00    -0.253 OA
ATOM      9  N   UNL     1       0.002  -0.004   0.001  0.00  0.00    -0.294 N 
ATOM     10  H   UNL     1       0.962  -0.541  -0.011  0.00  0.00    +0.151 HD
ENDROOT
BRANCH   9  11
ATOM     11  C   UNL     1      -0.018   1.461   0.009  0.00  0.00    +0.037 C 
ATOM     12  C   UNL     1      -0.759   1.967  -1.230  0.00  0.00    +0.029 C 
ATOM     13  C   UNL     1      -0.779   3.497  -1.222  0.00  0.00    -0.008 C 
ATOM     14  C   UNL     1       0.656   4.027  -1.234  0.00  0.00    +0.007 C 
ATOM     15  C   UNL     1       1.397   3.520   0.005  0.00  0.00    -0.008 C 
ATOM     16  C   UNL     1       1.417   1.990  -0.003  0.00  0.00    +0.029 C 
ATOM     17  C   UNL     1       0.681   4.014   1.265  0.00  0.00    +0.007 C 
ATOM     18  C   UNL     1      -0.754   3.484   1.276  0.00  0.00    -0.008 C 
ATOM     19  C   UNL     1      -1.495   3.991   0.037  0.00  0.00    +0.007 C 
ATOM     20  C   UNL     1      -0.733   1.954   1.268  0.00  0.00    +0.029 C 
ENDBRANCH   9  11
BRANCH   1  21
ATOM     21  C   UNL     1      -3.573  -4.582  -1.496  0.00  0.00    +0.150 C 
BRANCH  21  26
ATOM     22  C   UNL     1      -5.680  -3.887  -2.669  0.00  0.00    +0.131 A 
ATOM     23  C   UNL     1      -6.607  -2.924  -2.459  0.00  0.00    +0.066 A 
ATOM     24  N   UNL     1      -6.216  -2.250  -1.371  0.00  0.00    -0.136 NA
ATOM     25  N   UNL     1      -5.121  -2.766  -0.934  0.00  0.00    -0.066 NA
ATOM     26  N   UNL     1      -4.766  -3.752  -1.681  0.00  0.00    -0.251 N 
BRANCH  23  27
ATOM     27  C   UNL     1      -7.836  -2.658  -3.290  0.00  0.00    -0.027 C 
BRANCH  27  28
ATOM     28  N   UNL     1      -8.989  -3.344  -2.692  0.00  0.00    +0.382 N 
ATOM     29  H   UNL     1      -9.886  -3.150  -3.298  0.00  0.00    -0.090 HD
ATOM     30  H   UNL     1      -9.150  -2.969  -1.670  0.00  0.00    -0.090 HD
ATOM     31  H   UNL     1      -8.796  -4.426  -2.659  0.00  0.00    -0.090 HD
ENDBRANCH  27  28
ENDBRANCH  23  27
ENDBRANCH  21  26
ENDBRANCH   1  21
TORSDOF 5
