REMARK  Name = ZINC47137701
REMARK  12 active torsions:
REMARK  status: ('A' for Active; 'I' for Inactive)
REMARK    1  A    between atoms: C_1  and  C_2
REMARK    2  A    between atoms: C_2  and  C_3
REMARK    3  A    between atoms: C_2  and  C_4
REMARK    4  A    between atoms: C_2  and  C_5
REMARK    5  A    between atoms: C_8  and  C_11
REMARK    6  A    between atoms: N_12  and  N_13
REMARK    7  A    between atoms: N_15  and  C_30
REMARK    8  A    between atoms: C_19  and  C_20
REMARK    9  A    between atoms: C_23  and  O_28
REMARK   10  A    between atoms: C_24  and  O_26
REMARK   11  A    between atoms: O_26  and  C_27
REMARK   12  A    between atoms: C_30  and  C_31
REMARK                            x       y       z     vdW  Elec       q    Type
REMARK                         _______ _______ _______ _____ _____    ______ ____
ROOT
ATOM      1  N   UNL     1       4.859  -1.313  -3.905  0.00  0.00    -0.126 NA
ATOM      2  C   UNL     1       6.007  -0.752  -4.231  0.00  0.00    +0.190 C 
ATOM      3  N   UNL     1       6.743  -0.914  -5.383  0.00  0.00    -0.237 N 
ATOM      4  C   UNL     1       7.885  -0.269  -5.550  0.00  0.00    +0.259 C 
ATOM      5  O   UNL     1       8.548  -0.400  -6.563  0.00  0.00    -0.269 OA
ATOM      6  C   UNL     1       8.319   0.618  -4.454  0.00  0.00    +0.078 C 
ATOM      7  C   UNL     1       9.433   1.390  -4.359  0.00  0.00    +0.028 C 
ATOM      8  S   UNL     1       6.981   0.410  -3.288  0.00  0.00    -0.047 S 
ENDROOT
BRANCH   7   9
ATOM      9  C   UNL     1       9.750   2.069  -3.097  0.00  0.00    -0.020 A 
ATOM     10  C   UNL     1       9.129   1.668  -1.908  0.00  0.00    +0.012 A 
ATOM     11  C   UNL     1       9.429   2.306  -0.725  0.00  0.00    +0.050 A 
ATOM     12  C   UNL     1      10.347   3.348  -0.707  0.00  0.00    +0.158 A 
ATOM     13  C   UNL     1      10.970   3.753  -1.887  0.00  0.00    +0.162 A 
ATOM     14  C   UNL     1      10.680   3.116  -3.077  0.00  0.00    +0.057 A 
BRANCH  13  15
ATOM     15  O   UNL     1      11.869   4.774  -1.864  0.00  0.00    -0.491 OA
ATOM     16  C   UNL     1      12.469   5.138  -3.109  0.00  0.00    +0.277 C 
ENDBRANCH  13  15
BRANCH  12  17
ATOM     17  O   UNL     1      10.638   3.974   0.463  0.00  0.00    -0.503 OA
ATOM     18  H   UNL     1      11.375   3.578   0.948  0.00  0.00    +0.292 HD
ENDBRANCH  12  17
ENDBRANCH   7   9
BRANCH   1  20
ATOM     19  C   UNL     1       3.153  -2.694  -4.396  0.00  0.00    +0.143 C 
ATOM     20  N   UNL     1       4.290  -2.138  -4.718  0.00  0.00    -0.155 NA
BRANCH  19  24
ATOM     21  C   UNL     1       1.178  -1.562  -0.818  0.00  0.00    -0.042 A 
ATOM     22  C   UNL     1       2.448  -1.082  -1.084  0.00  0.00    +0.005 A 
ATOM     23  C   UNL     1       3.097  -1.445  -2.245  0.00  0.00    +0.010 A 
ATOM     24  C   UNL     1       2.468  -2.302  -3.155  0.00  0.00    -0.005 A 
ATOM     25  C   UNL     1       1.184  -2.783  -2.878  0.00  0.00    +0.010 A 
ATOM     26  C   UNL     1       0.551  -2.415  -1.710  0.00  0.00    +0.005 A 
BRANCH  21  28
ATOM     27  C   UNL     1       0.170  -2.408   1.284  0.00  0.00    +0.015 C 
ATOM     28  C   UNL     1       0.476  -1.160   0.454  0.00  0.00    -0.013 C 
ATOM     29  C   UNL     1      -0.831  -0.443   0.110  0.00  0.00    +0.015 C 
ATOM     30  C   UNL     1       1.376  -0.220   1.258  0.00  0.00    +0.015 C 
ENDBRANCH  21  28
ENDBRANCH  19  24
ENDBRANCH   1  20
BRANCH   3  31
ATOM     31  C   UNL     1       6.256  -1.810  -6.434  0.00  0.00    +0.190 C 
BRANCH  31  32
ATOM     32  C   UNL     1       5.390  -1.036  -7.394  0.00  0.00    +0.123 A 
ATOM     33  C   UNL     1       5.816  -0.403  -8.503  0.00  0.00    +0.046 A 
ATOM     34  C   UNL     1       4.678   0.188  -9.098  0.00  0.00    +0.041 A 
ATOM     35  C   UNL     1       3.626  -0.118  -8.319  0.00  0.00    +0.195 A 
ATOM     36  O   UNL     1       4.062  -0.864  -7.291  0.00  0.00    -0.466 OA
ENDBRANCH  31  32
ENDBRANCH   3  31
TORSDOF 8
