REMARK  Name = ZINC06442352
REMARK  8 active torsions:
REMARK  status: ('A' for Active; 'I' for Inactive)
REMARK    1  A    between atoms: C_1  and  C_2
REMARK    2  A    between atoms: C_7  and  C_15
REMARK    3  A    between atoms: C_13  and  C_14
REMARK    4  A    between atoms: C_15  and  C_17
REMARK    5  A    between atoms: C_15  and  N_61
REMARK    6  A    between atoms: N_21  and  C_22
REMARK    7  A    between atoms: C_22  and  C_23
REMARK    8  A    between atoms: C_32  and  O_35
REMARK                            x       y       z     vdW  Elec       q    Type
REMARK                         _______ _______ _______ _____ _____    ______ ____
ROOT
ATOM      1  C   UNL     1      -1.342  -0.715   0.042  0.00  0.00    +0.039 C 
ENDROOT
BRANCH   1   8
ATOM      2  C   UNL     1       6.582  -1.456   0.580  0.00  0.00    +0.044 C 
ATOM      3  C   UNL     1       5.088  -1.534   0.397  0.00  0.00    -0.046 A 
ATOM      4  C   UNL     1       4.518  -2.698  -0.101  0.00  0.00    +0.004 A 
ATOM      5  C   UNL     1       3.166  -2.791  -0.275  0.00  0.00    +0.010 A 
ATOM      6  C   UNL     1       2.349  -1.703   0.051  0.00  0.00    -0.001 A 
ATOM      7  C   UNL     1       0.897  -1.767  -0.124  0.00  0.00    +0.017 A 
ATOM      8  C   UNL     1       0.156  -0.681   0.208  0.00  0.00    +0.011 A 
ATOM      9  C   UNL     1       0.781   0.480   0.710  0.00  0.00    +0.251 A 
ATOM     10  O   UNL     1       0.097   1.447   0.998  0.00  0.00    -0.268 OA
ATOM     11  N   UNL     1       2.114   0.548   0.874  0.00  0.00    -0.322 N 
ATOM     12  H   UNL     1       2.512   1.362   1.221  0.00  0.00    +0.169 HD
ATOM     13  C   UNL     1       2.924  -0.521   0.555  0.00  0.00    +0.052 A 
ATOM     14  C   UNL     1       4.303  -0.450   0.724  0.00  0.00    -0.024 A 
ATOM     15  C   UNL     1       4.936   0.807   1.263  0.00  0.00    +0.046 C 
ENDBRANCH   1   8
BRANCH   1  21
ATOM     16  C   UNL     1      -0.982   0.451  -2.050  0.00  0.00    -0.075 C 
ATOM     17  C   UNL     1      -1.347   1.709  -2.840  0.00  0.00    +0.013 C 
ATOM     18  C   UNL     1      -2.844   1.689  -3.160  0.00  0.00    +0.111 C 
ATOM     19  C   UNL     1      -3.636   1.594  -1.853  0.00  0.00    +0.013 C 
ATOM     20  C   UNL     1      -3.204   0.339  -1.091  0.00  0.00    -0.075 C 
ATOM     21  N   UNL     1      -1.759   0.431  -0.792  0.00  0.00    +0.389 N 
ATOM     22  H   UNL     1      -1.581   1.301  -0.277  0.00  0.00    -0.080 HD
BRANCH  18  23
ATOM     23  O   UNL     1      -3.202   2.889  -3.848  0.00  0.00    -0.392 OA
ATOM     24  H   UNL     1      -2.737   3.014  -4.687  0.00  0.00    +0.210 HD
ENDBRANCH  18  23
ENDBRANCH   1  21
BRANCH   1  25
ATOM     25  C   UNL     1      -2.000  -0.598   1.392  0.00  0.00    +0.143 A 
ATOM     26  N   UNL     1      -1.993   0.451   2.178  0.00  0.00    -0.115 NA
ATOM     27  N   UNL     1      -2.666   0.159   3.237  0.00  0.00    -0.023 NA
ATOM     28  N   UNL     1      -3.095  -1.052   3.151  0.00  0.00    -0.044 NA
ATOM     29  N   UNL     1      -2.705  -1.552   2.027  0.00  0.00    -0.226 N 
BRANCH  29  30
ATOM     30  C   UNL     1      -2.978  -2.905   1.536  0.00  0.00    +0.182 C 
BRANCH  30  31
ATOM     31  C   UNL     1      -1.970  -3.863   2.116  0.00  0.00    -0.026 A 
ATOM     32  C   UNL     1      -0.850  -4.213   1.385  0.00  0.00    +0.008 A 
ATOM     33  C   UNL     1       0.078  -5.088   1.917  0.00  0.00    +0.038 A 
ATOM     34  C   UNL     1      -0.119  -5.622   3.179  0.00  0.00    +0.123 A 
ATOM     35  C   UNL     1      -1.244  -5.275   3.908  0.00  0.00    +0.038 A 
ATOM     36  C   UNL     1      -2.168  -4.396   3.376  0.00  0.00    +0.008 A 
ATOM     37  F   UNL     1       0.784  -6.481   3.699  0.00  0.00    -0.205 F 
ENDBRANCH  30  31
ENDBRANCH  29  30
ENDBRANCH   1  25
TORSDOF 6
