REMARK  Name = ZINC62794833
REMARK  4 active torsions:
REMARK  status: ('A' for Active; 'I' for Inactive)
REMARK    1  A    between atoms: C_3  and  O_8
REMARK    2  A    between atoms: O_8  and  C_9
REMARK    3  A    between atoms: C_12  and  C_16
REMARK    4  A    between atoms: N_17  and  O_18
REMARK                            x       y       z     vdW  Elec       q    Type
REMARK                         _______ _______ _______ _____ _____    ______ ____
ROOT
ATOM      1  C   UNL     1       4.509   1.025   0.683  0.00  0.00    +0.147 A 
ATOM      2  C   UNL     1       4.612  -0.353   0.545  0.00  0.00    +0.048 A 
ATOM      3  C   UNL     1       5.851  -0.946   0.436  0.00  0.00    +0.015 A 
ATOM      4  C   UNL     1       7.004  -0.160   0.465  0.00  0.00    +0.019 A 
ATOM      5  C   UNL     1       6.898   1.225   0.603  0.00  0.00    +0.035 A 
ATOM      6  C   UNL     1       5.654   1.812   0.706  0.00  0.00    +0.084 A 
ATOM      7 CL   UNL     1       5.520   3.535   0.872  0.00  0.00    -0.080 Cl
ENDROOT
BRANCH   4   8
ATOM      8  C   UNL     1       8.336  -0.793   0.349  0.00  0.00    +0.162 C 
ATOM      9  N   UNL     1       8.470  -1.914  -0.298  0.00  0.00    -0.072 NA
ATOM     10  N   UNL     1       9.441  -0.193   0.929  0.00  0.00    -0.340 N 
ATOM     11  H   UNL     1       9.342   0.643   1.411  0.00  0.00    +0.144 HD
ATOM     12  H   UNL     1      10.314  -0.608   0.853  0.00  0.00    +0.144 HD
BRANCH   9  13
ATOM     13  O   UNL     1       7.372  -2.456  -1.010  0.00  0.00    -0.408 OA
ATOM     14  H   UNL     1       7.567  -3.290  -1.459  0.00  0.00    +0.328 HD
ENDBRANCH   9  13
ENDBRANCH   4   8
BRANCH   1  15
ATOM     15  O   UNL     1       3.285   1.606   0.789  0.00  0.00    -0.455 OA
BRANCH  15  18
ATOM     16  C   UNL     1       0.337  -0.259  -0.244  0.00  0.00    +0.005 A 
ATOM     17  C   UNL     1       1.443   0.567  -0.300  0.00  0.00    +0.046 A 
ATOM     18  C   UNL     1       2.197   0.794   0.842  0.00  0.00    +0.130 A 
ATOM     19  C   UNL     1       1.837   0.192   2.039  0.00  0.00    +0.061 A 
ATOM     20  C   UNL     1       0.729  -0.633   2.091  0.00  0.00    +0.021 A 
ATOM     21  C   UNL     1      -0.020  -0.858   0.949  0.00  0.00    +0.015 A 
ATOM     22 BR   UNL     1       0.238  -1.455   3.721  0.00  0.00    -0.050 Br
ENDBRANCH  15  18
ENDBRANCH   1  15
TORSDOF 4
