REMARK  Name = ZINC00941910
REMARK  6 active torsions:
REMARK  status: ('A' for Active; 'I' for Inactive)
REMARK    1  A    between atoms: C_3  and  O_26
REMARK    2  A    between atoms: C_6  and  C_7
REMARK    3  A    between atoms: C_8  and  C_9
REMARK    4  A    between atoms: C_8  and  C_11
REMARK    5  A    between atoms: N_13  and  C_14
REMARK    6  A    between atoms: C_15  and  C_23
REMARK                            x       y       z     vdW  Elec       q    Type
REMARK                         _______ _______ _______ _____ _____    ______ ____
ROOT
ATOM      1  C   UNL     1      -2.463   1.364   0.064  0.00  0.00    +0.259 C 
ATOM      2  O   UNL     1      -2.624   0.166   0.200  0.00  0.00    -0.269 OA
ATOM      3  N   UNL     1      -3.530   2.186   0.013  0.00  0.00    -0.275 N 
ATOM      4  H   UNL     1      -3.401   3.142  -0.096  0.00  0.00    +0.156 HD
ENDROOT
BRANCH   3   5
ATOM      5  C   UNL     1      -4.810   1.667   0.114  0.00  0.00    +0.085 A 
ATOM      6  C   UNL     1      -6.020   2.345   0.090  0.00  0.00    +0.068 A 
ATOM      7  C   UNL     1      -7.234   1.556   0.212  0.00  0.00    -0.023 A 
ATOM      8  C   UNL     1      -7.045   0.226   0.350  0.00  0.00    -0.004 A 
ATOM      9  S   UNL     1      -5.288   0.013   0.311  0.00  0.00    -0.077 S 
ATOM     10  C   UNL     1      -8.100  -0.826   0.504  0.00  0.00    +0.043 C 
ATOM     11  C   UNL     1      -9.425  -0.134   0.856  0.00  0.00    +0.005 C 
ATOM     12  C   UNL     1      -9.641   1.037  -0.106  0.00  0.00    +0.005 C 
ATOM     13  C   UNL     1      -8.637   2.151   0.197  0.00  0.00    +0.037 C 
BRANCH   6  14
ATOM     14  C   UNL     1      -6.072   3.802  -0.059  0.00  0.00    +0.244 C 
ATOM     15  O   UNL     1      -6.134   4.299  -1.168  0.00  0.00    -0.270 OA
ATOM     16  N   UNL     1      -6.053   4.592   1.033  0.00  0.00    -0.325 N 
ATOM     17  H   UNL     1      -6.004   4.196   1.917  0.00  0.00    +0.145 HD
ATOM     18  H   UNL     1      -6.087   5.556   0.935  0.00  0.00    +0.145 HD
ENDBRANCH   6  14
ENDBRANCH   3   5
BRANCH   1  20
ATOM     19  C   UNL     1      -0.013   1.076   0.008  0.00  0.00    +0.032 C 
ATOM     20  C   UNL     1      -1.104   1.916  -0.044  0.00  0.00    +0.114 C 
BRANCH  19  26
ATOM     21  C   UNL     1       1.501   2.619  -1.218  0.00  0.00    +0.011 A 
ATOM     22  C   UNL     1       2.752   3.104  -1.472  0.00  0.00    +0.046 A 
ATOM     23  C   UNL     1       3.854   2.579  -0.804  0.00  0.00    +0.117 A 
ATOM     24  C   UNL     1       3.688   1.561   0.130  0.00  0.00    +0.046 A 
ATOM     25  C   UNL     1       2.442   1.071   0.396  0.00  0.00    +0.011 A 
ATOM     26  C   UNL     1       1.327   1.597  -0.273  0.00  0.00    -0.023 A 
BRANCH  23  27
ATOM     27  O   UNL     1       5.095   3.061  -1.065  0.00  0.00    -0.507 OA
ATOM     28  H   UNL     1       5.554   2.599  -1.780  0.00  0.00    +0.292 HD
ENDBRANCH  23  27
ENDBRANCH  19  26
BRANCH  20  29
ATOM     29  C   UNL     1      -0.914   3.326  -0.204  0.00  0.00    +0.104 C 
ATOM     30  N   UNL     1      -0.764   4.445  -0.331  0.00  0.00    -0.191 NA
ENDBRANCH  20  29
ENDBRANCH   1  20
TORSDOF 6
