REMARK  Name = ZINC35939620
REMARK  14 active torsions:
REMARK  status: ('A' for Active; 'I' for Inactive)
REMARK    1  A    between atoms: C_1  and  C_2
REMARK    2  A    between atoms: C_2  and  N_3
REMARK    3  A    between atoms: N_6  and  C_9
REMARK    4  A    between atoms: C_10  and  C_21
REMARK    5  A    between atoms: C_11  and  C_20
REMARK    6  A    between atoms: N_13  and  C_14
REMARK    7  A    between atoms: C_21  and  N_22
REMARK    8  A    between atoms: N_22  and  C_23
REMARK    9  A    between atoms: N_22  and  S_28
REMARK   10  A    between atoms: C_23  and  C_24
REMARK   11  A    between atoms: C_24  and  C_25
REMARK   12  A    between atoms: C_25  and  C_26
REMARK   13  A    between atoms: C_25  and  C_27
REMARK   14  A    between atoms: S_28  and  C_31
REMARK                            x       y       z     vdW  Elec       q    Type
REMARK                         _______ _______ _______ _____ _____    ______ ____
ROOT
ATOM      1  C   UNL     1      -3.427  -3.229  -1.777  0.00  0.00    +0.129 A 
ATOM      2  C   UNL     1      -4.068  -4.408  -1.542  0.00  0.00    +0.031 A 
ATOM      3  C   UNL     1      -5.030  -4.580  -2.541  0.00  0.00    +0.067 A 
ATOM      4  N   UNL     1      -4.978  -3.551  -3.349  0.00  0.00    -0.170 NA
ATOM      5  N   UNL     1      -3.982  -2.679  -2.891  0.00  0.00    -0.218 N 
ATOM      6  C   UNL     1      -5.969  -5.751  -2.667  0.00  0.00    +0.068 C 
ENDROOT
BRANCH   1  10
ATOM      7  N   UNL     1      -0.438  -2.446   0.964  0.00  0.00    +0.382 N 
ATOM      8  C   UNL     1      -0.237  -3.394  -0.139  0.00  0.00    -0.060 C 
ATOM      9  C   UNL     1      -0.990  -2.901  -1.379  0.00  0.00    +0.088 C 
ATOM     10  N   UNL     1      -2.399  -2.685  -1.014  0.00  0.00    -0.318 N 
ATOM     11  C   UNL     1      -2.689  -1.877   0.181  0.00  0.00    +0.088 C 
ATOM     12  C   UNL     1      -1.855  -2.419   1.347  0.00  0.00    -0.060 C 
ATOM     13  H   UNL     1      -0.154  -1.524   0.668  0.00  0.00    -0.082 HD
BRANCH   7  15
ATOM     14  C   UNL     1       1.856  -2.769   1.758  0.00  0.00    -0.017 C 
ATOM     15  C   UNL     1       0.371  -2.860   2.117  0.00  0.00    -0.082 C 
ENDBRANCH   7  15
ENDBRANCH   1  10
BRANCH   5  16
ATOM     16  C   UNL     1      -3.618  -1.459  -3.478  0.00  0.00    +0.067 A 
ATOM     17  C   UNL     1      -3.470  -0.325  -2.691  0.00  0.00    +0.028 A 
ATOM     18  C   UNL     1      -3.112   0.875  -3.272  0.00  0.00    +0.002 A 
ATOM     19  C   UNL     1      -2.900   0.949  -4.637  0.00  0.00    +0.000 A 
ATOM     20  C   UNL     1      -3.047  -0.179  -5.424  0.00  0.00    +0.002 A 
ATOM     21  C   UNL     1      -3.400  -1.384  -4.848  0.00  0.00    +0.028 A 
ENDBRANCH   5  16
BRANCH   2  22
ATOM     22  C   UNL     1      -3.789  -5.359  -0.407  0.00  0.00    +0.149 C 
BRANCH  22  23
ATOM     23  N   UNL     1      -5.037  -5.656   0.299  0.00  0.00    -0.172 NA
BRANCH  23  24
ATOM     24  S   UNL     1      -5.627  -4.593   1.423  0.00  0.00    +0.061 S 
ATOM     25  O   UNL     1      -6.235  -5.374   2.442  0.00  0.00    -0.153 OA
ATOM     26  O   UNL     1      -4.583  -3.667   1.694  0.00  0.00    -0.153 OA
BRANCH  24  27
ATOM     27  C   UNL     1      -6.920  -3.680   0.648  0.00  0.00    +0.106 A 
ATOM     28  C   UNL     1      -6.641  -2.478   0.027  0.00  0.00    +0.031 A 
ATOM     29  C   UNL     1      -7.654  -1.762  -0.582  0.00  0.00    +0.040 A 
ATOM     30  C   UNL     1      -8.950  -2.249  -0.568  0.00  0.00    +0.124 A 
ATOM     31  C   UNL     1      -9.229  -3.454   0.055  0.00  0.00    +0.040 A 
ATOM     32  C   UNL     1      -8.213  -4.171   0.658  0.00  0.00    +0.031 A 
ATOM     33  F   UNL     1      -9.941  -1.550  -1.162  0.00  0.00    -0.205 F 
ENDBRANCH  24  27
ENDBRANCH  23  24
BRANCH  23  34
ATOM     34  C   UNL     1      -5.764  -6.895   0.011  0.00  0.00    +0.110 C 
BRANCH  34  35
ATOM     35  C   UNL     1      -5.083  -8.064   0.727  0.00  0.00    +0.020 C 
BRANCH  35  36
ATOM     36  C   UNL     1      -5.843  -9.358   0.426  0.00  0.00    -0.016 C 
ATOM     37  C   UNL     1      -5.093 -10.543   1.038  0.00  0.00    +0.007 C 
ATOM     38  C   UNL     1      -7.247  -9.277   1.028  0.00  0.00    +0.007 C 
ENDBRANCH  35  36
ENDBRANCH  34  35
ENDBRANCH  23  34
ENDBRANCH  22  23
ENDBRANCH   2  22
TORSDOF 10
