REMARK  Name = ZINC21585934
REMARK  10 active torsions:
REMARK  status: ('A' for Active; 'I' for Inactive)
REMARK    1  A    between atoms: C_1  and  C_2
REMARK    2  A    between atoms: C_2  and  C_23
REMARK    3  A    between atoms: N_5  and  C_9
REMARK    4  A    between atoms: C_9  and  C_10
REMARK    5  A    between atoms: N_12  and  C_13
REMARK    6  A    between atoms: C_18  and  C_19
REMARK    7  A    between atoms: C_19  and  C_20
REMARK    8  A    between atoms: C_19  and  C_21
REMARK    9  A    between atoms: C_19  and  C_22
REMARK   10  A    between atoms: C_23  and  C_24
REMARK                            x       y       z     vdW  Elec       q    Type
REMARK                         _______ _______ _______ _____ _____    ______ ____
ROOT
ATOM      1  C   UNL     1       1.584  10.027  -0.237  0.00  0.00    +0.042 C 
ATOM      2  C   UNL     1       2.926   9.475  -0.724  0.00  0.00    +0.114 C 
ATOM      3  C   UNL     1       3.251   8.170  -0.024  0.00  0.00    +0.247 C 
ATOM      4  O   UNL     1       3.413   7.998   1.165  0.00  0.00    -0.273 OA
ATOM      5  N   UNL     1       3.324   7.242  -0.998  0.00  0.00    -0.215 N 
ATOM      6  C   UNL     1       3.097   7.775  -2.204  0.00  0.00    +0.310 C 
ATOM      7  O   UNL     1       3.113   7.136  -3.239  0.00  0.00    -0.252 OA
ATOM      8  N   UNL     1       2.845   9.095  -2.144  0.00  0.00    -0.285 N 
ATOM      9  H   UNL     1       2.614   9.855  -2.905  0.00  0.00    +0.151 HD
ENDROOT
BRANCH   5  10
ATOM     10  C   UNL     1       3.621   5.827  -0.766  0.00  0.00    +0.214 C 
BRANCH  10  11
ATOM     11  C   UNL     1       2.335   5.075  -0.536  0.00  0.00    +0.235 C 
ATOM     12  O   UNL     1       1.275   5.663  -0.563  0.00  0.00    -0.274 OA
ATOM     13  N   UNL     1       2.363   3.748  -0.300  0.00  0.00    -0.284 N 
ATOM     14  H   UNL     1       3.326   3.232  -0.175  0.00  0.00    +0.155 HD
BRANCH  13  15
ATOM     15  C   UNL     1       1.167   3.027  -0.214  0.00  0.00    +0.037 A 
ATOM     16  C   UNL     1      -0.051   3.693  -0.252  0.00  0.00    +0.023 A 
ATOM     17  C   UNL     1      -1.230   2.979  -0.167  0.00  0.00    +0.002 A 
ATOM     18  C   UNL     1      -1.199   1.601  -0.049  0.00  0.00    +0.000 A 
ATOM     19  C   UNL     1       0.012   0.936  -0.005  0.00  0.00    +0.006 A 
ATOM     20  C   UNL     1       1.195   1.645  -0.090  0.00  0.00    -0.021 A 
BRANCH  20  21
ATOM     21  C   UNL     1       2.515   0.918  -0.048  0.00  0.00    -0.011 C 
ATOM     22  C   UNL     1       2.264  -0.588   0.058  0.00  0.00    +0.015 C 
ATOM     23  C   UNL     1       3.301   1.215  -1.326  0.00  0.00    +0.015 C 
ATOM     24  C   UNL     1       3.318   1.388   1.166  0.00  0.00    +0.015 C 
ENDBRANCH  20  21
ENDBRANCH  13  15
ENDBRANCH  10  11
ENDBRANCH   5  10
BRANCH   2  25
ATOM     25  C   UNL     1       4.042  10.498  -0.502  0.00  0.00    +0.070 C 
BRANCH  25  26
ATOM     26  C   UNL     1       3.693  11.783  -1.208  0.00  0.00    -0.041 A 
ATOM     27  C   UNL     1       4.093  11.982  -2.516  0.00  0.00    +0.007 A 
ATOM     28  C   UNL     1       3.771  13.157  -3.169  0.00  0.00    +0.050 A 
ATOM     29  C   UNL     1       3.056  14.143  -2.509  0.00  0.00    +0.166 A 
ATOM     30  C   UNL     1       2.658  13.945  -1.190  0.00  0.00    +0.166 A 
ATOM     31  C   UNL     1       2.979  12.762  -0.543  0.00  0.00    +0.053 A 
ATOM     32  O   UNL     1       1.976  15.050  -0.769  0.00  0.00    -0.453 OA
ATOM     33  C   UNL     1       1.607  15.754  -1.969  0.00  0.00    +0.466 C 
ATOM     34  O   UNL     1       2.623  15.372  -2.915  0.00  0.00    -0.453 OA
ENDBRANCH  25  26
ENDBRANCH   2  25
TORSDOF 6
