REMARK  Name = ZINC02557141
REMARK  6 active torsions:
REMARK  status: ('A' for Active; 'I' for Inactive)
REMARK    1  A    between atoms: C_1  and  C_2
REMARK    2  A    between atoms: C_5  and  S_8
REMARK    3  A    between atoms: S_8  and  O_11
REMARK    4  A    between atoms: O_11  and  C_12
REMARK    5  A    between atoms: C_16  and  C_36
REMARK    6  A    between atoms: C_28  and  C_35
REMARK                            x       y       z     vdW  Elec       q    Type
REMARK                         _______ _______ _______ _____ _____    ______ ____
ROOT
ATOM      1  C   UNL     1       5.126   7.321   0.758  0.00  0.00    +0.150 C 
ATOM      2  C   UNL     1       5.726   6.215   1.628  0.00  0.00    +0.034 C 
ATOM      3  C   UNL     1       5.309   4.848   1.078  0.00  0.00    +0.010 C 
ATOM      4  C   UNL     1       3.783   4.738   1.093  0.00  0.00    -0.026 C 
ATOM      5  C   UNL     1       3.182   5.846   0.225  0.00  0.00    -0.002 C 
ATOM      6  C   UNL     1       3.600   7.210   0.776  0.00  0.00    +0.038 C 
ATOM      7  C   UNL     1       1.656   5.736   0.241  0.00  0.00    +0.004 C 
ATOM      8  C   UNL     1       1.236   4.372  -0.310  0.00  0.00    +0.004 C 
ATOM      9  C   UNL     1       1.833   3.265   0.560  0.00  0.00    -0.003 C 
ATOM     10  C   UNL     1       3.365   3.376   0.537  0.00  0.00    -0.001 C 
ATOM     11  C   UNL     1       4.019   2.260   1.345  0.00  0.00    +0.005 C 
ATOM     12  C   UNL     1       3.551   0.875   0.867  0.00  0.00    +0.015 C 
ATOM     13  C   UNL     1       2.041   0.843   0.983  0.00  0.00    +0.029 C 
ATOM     14  C   UNL     1       1.474   1.901  -0.002  0.00  0.00    +0.006 C 
ATOM     15  C   UNL     1      -0.019   1.549   0.011  0.00  0.00    +0.012 C 
ATOM     16  C   UNL     1       0.002  -0.004   0.002  0.00  0.00    +0.075 C 
ATOM     17  C   UNL     1       1.354  -0.425   0.569  0.00  0.00    +0.139 C 
ATOM     18  O   UNL     1       1.784  -1.549   0.666  0.00  0.00    -0.297 OA
ATOM     19  C   UNL     1       1.626   1.210   2.409  0.00  0.00    +0.019 C 
ATOM     20  C   UNL     1       3.274   4.881   2.529  0.00  0.00    +0.012 C 
ENDROOT
BRANCH   1  21
ATOM     21  O   UNL     1       5.598   7.182  -0.583  0.00  0.00    -0.231 OA
BRANCH  21  22
ATOM     22  S   UNL     1       6.816   8.038  -0.903  0.00  0.00    +0.112 S 
ATOM     23  O   UNL     1       7.022   7.943  -2.305  0.00  0.00    -0.142 OA
ATOM     24  O   UNL     1       6.622   9.282  -0.244  0.00  0.00    -0.142 OA
BRANCH  22  29
ATOM     25  C   UNL     1      11.575   5.419   1.723  0.00  0.00    +0.044 C 
ATOM     26  C   UNL     1      10.387   6.073   1.067  0.00  0.00    -0.050 A 
ATOM     27  C   UNL     1      10.033   5.729  -0.225  0.00  0.00    +0.005 A 
ATOM     28  C   UNL     1       8.943   6.329  -0.826  0.00  0.00    +0.030 A 
ATOM     29  C   UNL     1       8.206   7.273  -0.136  0.00  0.00    +0.117 A 
ATOM     30  C   UNL     1       8.562   7.620   1.154  0.00  0.00    +0.030 A 
ATOM     31  C   UNL     1       9.650   7.017   1.757  0.00  0.00    +0.005 A 
ENDBRANCH  22  29
ENDBRANCH  21  22
ENDBRANCH   1  21
TORSDOF 3
