REMARK  Name = ZINC48835388
REMARK  2 active torsions:
REMARK  status: ('A' for Active; 'I' for Inactive)
REMARK    1  A    between atoms: C_10  and  C_22
REMARK    2  A    between atoms: N_15  and  C_16
REMARK                            x       y       z     vdW  Elec       q    Type
REMARK                         _______ _______ _______ _____ _____    ______ ____
ROOT
ATOM      1  C   UNL     1      -0.019   1.533   0.011  0.00  0.00    +0.000 C 
ATOM      2  C   UNL     1       1.393   2.111   0.000  0.00  0.00    +0.002 C 
ATOM      3  C   UNL     1       2.235   1.554   1.160  0.00  0.00    +0.023 C 
ATOM      4  C   UNL     1       2.244   0.046   1.029  0.00  0.00    +0.082 C 
ATOM      5  C   UNL     1       0.786  -0.452   1.224  0.00  0.00    +0.012 C 
ATOM      6  C   UNL     1       0.002  -0.004   0.002  0.00  0.00    +0.005 C 
ATOM      7  C   UNL     1       1.027  -1.966   1.329  0.00  0.00    +0.039 C 
ATOM      8  C   UNL     1       2.333  -2.022   2.167  0.00  0.00    +0.191 C 
ATOM      9  N   UNL     1       2.998  -0.715   2.012  0.00  0.00    -0.269 N 
ATOM     10  C   UNL     1       4.108  -0.308   2.659  0.00  0.00    +0.303 C 
ATOM     11  O   UNL     1       4.570   0.794   2.439  0.00  0.00    -0.253 OA
ATOM     12  N   UNL     1       4.705  -1.124   3.550  0.00  0.00    -0.297 N 
ATOM     13  H   UNL     1       4.336  -2.004   3.725  0.00  0.00    +0.151 HD
ENDROOT
BRANCH  12  14
ATOM     14  C   UNL     1       5.912  -0.682   4.253  0.00  0.00    +0.071 C 
ATOM     15  C   UNL     1       7.144  -0.978   3.393  0.00  0.00    +0.003 C 
ATOM     16  C   UNL     1       8.405  -0.587   4.166  0.00  0.00    -0.081 C 
ATOM     17  N   UNL     1       8.479  -1.361   5.411  0.00  0.00    +0.379 N 
ATOM     18  C   UNL     1       7.338  -1.029   6.273  0.00  0.00    -0.081 C 
ATOM     19  C   UNL     1       6.036  -1.437   5.581  0.00  0.00    +0.003 C 
ATOM     20  H   UNL     1       8.461  -2.346   5.195  0.00  0.00    -0.086 HD
ATOM     21  H   UNL     1       9.338  -1.140   5.892  0.00  0.00    -0.086 HD
ENDBRANCH  12  14
BRANCH   8  22
ATOM     22  C   UNL     1       2.003  -2.253   3.619  0.00  0.00    +0.376 C 
ATOM     23  O   UNL     1       1.923  -3.390   4.053  0.00  0.00    -0.244 OA
ATOM     24  O   UNL     1       1.815  -1.304   4.361  0.00  0.00    -0.244 OA
ENDBRANCH   8  22
TORSDOF 2
