REMARK  Name = ZINC40853232
REMARK  11 active torsions:
REMARK  status: ('A' for Active; 'I' for Inactive)
REMARK    1  A    between atoms: C_1  and  O_2
REMARK    2  A    between atoms: O_2  and  C_3
REMARK    3  A    between atoms: C_5  and  C_18
REMARK    4  A    between atoms: C_8  and  O_9
REMARK    5  A    between atoms: O_9  and  C_10
REMARK    6  A    between atoms: C_10  and  C_11
REMARK    7  A    between atoms: N_19  and  N_20
REMARK    8  A    between atoms: C_21  and  C_23
REMARK    9  A    between atoms: C_23  and  O_24
REMARK   10  A    between atoms: O_24  and  C_25
REMARK   11  A    between atoms: C_30  and  N_31
REMARK                            x       y       z     vdW  Elec       q    Type
REMARK                         _______ _______ _______ _____ _____    ______ ____
ROOT
ATOM      1  C   UNL     1       0.606  -0.608  -1.056  0.00  0.00    +0.162 A 
ATOM      2  C   UNL     1       1.171   0.159  -2.059  0.00  0.00    +0.059 A 
ATOM      3  C   UNL     1       1.791  -0.465  -3.145  0.00  0.00    -0.002 A 
ATOM      4  C   UNL     1       1.838  -1.859  -3.212  0.00  0.00    +0.013 A 
ATOM      5  C   UNL     1       1.272  -2.617  -2.208  0.00  0.00    +0.050 A 
ATOM      6  C   UNL     1       0.661  -1.998  -1.127  0.00  0.00    +0.162 A 
ENDROOT
BRANCH   1   8
ATOM      7  C   UNL     1      -0.017   1.425   0.010  0.00  0.00    +0.277 C 
ATOM      8  O   UNL     1       0.002  -0.004   0.002  0.00  0.00    -0.491 OA
ENDBRANCH   1   8
BRANCH   3   9
ATOM      9  C   UNL     1       2.395   0.347  -4.217  0.00  0.00    +0.138 C 
ATOM     10  N   UNL     1       2.971  -0.233  -5.225  0.00  0.00    -0.188 NA
BRANCH  10  11
ATOM     11  N   UNL     1       3.544   0.538  -6.244  0.00  0.00    -0.204 N 
ATOM     12  C   UNL     1       4.142  -0.065  -7.290  0.00  0.00    +0.270 C 
ATOM     13  O   UNL     1       4.184  -1.276  -7.350  0.00  0.00    -0.270 OA
ATOM     14  H   UNL     1       3.511   1.506  -6.196  0.00  0.00    +0.177 HD
BRANCH  12  15
ATOM     15  C   UNL     1       4.759   0.765  -8.386  0.00  0.00    +0.326 C 
BRANCH  15  16
ATOM     16  O   UNL     1       5.326  -0.097  -9.375  0.00  0.00    -0.480 OA
BRANCH  16  17
ATOM     17  C   UNL     1       5.927   0.496 -10.440  0.00  0.00    +0.151 A 
ATOM     18  C   UNL     1       5.975   1.880 -10.528  0.00  0.00    +0.048 A 
ATOM     19  C   UNL     1       6.587   2.481 -11.611  0.00  0.00    +0.004 A 
ATOM     20  C   UNL     1       7.151   1.704 -12.607  0.00  0.00    +0.002 A 
ATOM     21  C   UNL     1       7.103   0.326 -12.521  0.00  0.00    +0.036 A 
ATOM     22  C   UNL     1       6.498  -0.280 -11.437  0.00  0.00    +0.168 A 
BRANCH  22  23
ATOM     23  N   UNL     1       6.453  -1.757 -11.343  0.00  0.00    +0.060 N 
ATOM     24  O   UNL     1       6.951  -2.433 -12.213  0.00  0.00    -0.126 OA
ATOM     25  O   UNL     1       5.919  -2.286 -10.397  0.00  0.00    -0.126 OA
ENDBRANCH  22  23
ENDBRANCH  16  17
ENDBRANCH  15  16
ENDBRANCH  12  15
ENDBRANCH  10  11
ENDBRANCH   3   9
BRANCH   6  26
ATOM     26  O   UNL     1       0.110  -2.749  -0.138  0.00  0.00    -0.484 OA
BRANCH  26  27
ATOM     27  C   UNL     1       0.202  -4.169  -0.274  0.00  0.00    +0.266 C 
BRANCH  27  28
ATOM     28  C   UNL     1      -0.459  -4.830   0.908  0.00  0.00    +0.008 A 
ATOM     29  C   UNL     1      -1.034  -4.059   1.900  0.00  0.00    +0.008 A 
ATOM     30  C   UNL     1      -1.640  -4.665   2.984  0.00  0.00    +0.000 A 
ATOM     31  C   UNL     1      -1.672  -6.044   3.077  0.00  0.00    +0.001 A 
ATOM     32  C   UNL     1      -1.097  -6.817   2.086  0.00  0.00    +0.020 A 
ATOM     33  C   UNL     1      -0.495  -6.210   0.998  0.00  0.00    +0.047 A 
ATOM     34 CL   UNL     1       0.221  -7.181  -0.251  0.00  0.00    -0.083 Cl
ENDBRANCH  27  28
ENDBRANCH  26  27
ENDBRANCH   6  26
TORSDOF 10
