REMARK  Name = ZINC43746363
REMARK  5 active torsions:
REMARK  status: ('A' for Active; 'I' for Inactive)
REMARK    1  A    between atoms: C_2  and  C_3
REMARK    2  A    between atoms: C_3  and  O_4
REMARK    3  A    between atoms: O_4  and  C_5
REMARK    4  A    between atoms: C_9  and  C_11
REMARK    5  A    between atoms: C_11  and  C_13
REMARK                            x       y       z     vdW  Elec       q    Type
REMARK                         _______ _______ _______ _____ _____    ______ ____
ROOT
ATOM      1  C   UNL     1       4.873  -6.360   3.008  0.00  0.00    +0.066 C 
ATOM      2  C   UNL     1       4.827  -7.447   1.920  0.00  0.00    -0.055 C 
ATOM      3  C   UNL     1       5.550  -6.965   0.656  0.00  0.00    -0.016 C 
ATOM      4  C   UNL     1       6.703  -7.973   0.445  0.00  0.00    -0.020 C 
ATOM      5  C   UNL     1       6.934  -8.536   1.867  0.00  0.00    -0.076 C 
ATOM      6  N   UNL     1       5.552  -8.622   2.458  0.00  0.00    +0.395 N 
ATOM      7  C   UNL     1       5.652  -8.477   3.918  0.00  0.00    +0.060 C 
ATOM      8  C   UNL     1       4.991  -7.161   4.314  0.00  0.00    +0.085 C 
ATOM      9  C   UNL     1       3.643  -7.373   4.944  0.00  0.00    -0.011 A 
ATOM     10  C   UNL     1       2.484  -7.983   4.518  0.00  0.00    +0.006 A 
ATOM     11  C   UNL     1       1.375  -8.017   5.346  0.00  0.00    +0.000 A 
ATOM     12  C   UNL     1       1.435  -7.438   6.601  0.00  0.00    +0.002 A 
ATOM     13  C   UNL     1       2.595  -6.827   7.031  0.00  0.00    +0.023 A 
ATOM     14  C   UNL     1       3.715  -6.787   6.204  0.00  0.00    +0.038 A 
ATOM     15  N   UNL     1       4.981  -6.235   6.408  0.00  0.00    -0.285 N 
ATOM     16  C   UNL     1       5.790  -6.411   5.345  0.00  0.00    +0.228 C 
ATOM     17  O   UNL     1       6.939  -6.037   5.239  0.00  0.00    -0.275 OA
ATOM     18  C   UNL     1       7.091  -8.517   4.361  0.00  0.00    -0.027 A 
ATOM     19  C   UNL     1       8.186  -7.730   4.081  0.00  0.00    +0.004 A 
ATOM     20  C   UNL     1       9.412  -8.022   4.652  0.00  0.00    +0.000 A 
ATOM     21  C   UNL     1       9.534  -9.105   5.503  0.00  0.00    +0.002 A 
ATOM     22  C   UNL     1       8.440  -9.896   5.786  0.00  0.00    +0.023 A 
ATOM     23  C   UNL     1       7.202  -9.608   5.215  0.00  0.00    +0.036 A 
ATOM     24  N   UNL     1       5.967 -10.247   5.344  0.00  0.00    -0.286 N 
ATOM     25  C   UNL     1       5.006  -9.648   4.617  0.00  0.00    +0.212 C 
ATOM     26  O   UNL     1       3.844  -9.984   4.540  0.00  0.00    -0.277 OA
ATOM     27  H   UNL     1       5.248  -5.778   7.221  0.00  0.00    +0.155 HD
ATOM     28  H   UNL     1       5.819 -11.033   5.894  0.00  0.00    +0.155 HD
ATOM     29  H   UNL     1       5.091  -9.481   2.197  0.00  0.00    -0.079 HD
ENDROOT
BRANCH   1  30
ATOM     30  C   UNL     1       3.605  -5.545   2.998  0.00  0.00    +0.166 C 
ATOM     31  O   UNL     1       2.597  -5.999   2.500  0.00  0.00    -0.292 OA
BRANCH  30  36
ATOM     32  C   UNL     1       2.388  -2.222   4.251  0.00  0.00    +0.122 A 
ATOM     33  C   UNL     1       3.572  -1.661   4.711  0.00  0.00    +0.046 A 
ATOM     34  C   UNL     1       4.760  -2.362   4.613  0.00  0.00    +0.004 A 
ATOM     35  C   UNL     1       4.778  -3.624   4.058  0.00  0.00    +0.011 A 
ATOM     36  C   UNL     1       3.591  -4.198   3.592  0.00  0.00    +0.021 A 
ATOM     37  C   UNL     1       2.391  -3.490   3.697  0.00  0.00    +0.057 A 
BRANCH  32  38
ATOM     38  O   UNL     1       1.224  -1.527   4.350  0.00  0.00    -0.488 OA
BRANCH  38  39
ATOM     39  C   UNL     1       1.294  -0.224   4.932  0.00  0.00    +0.256 C 
BRANCH  39  41
ATOM     40  C   UNL     1      -0.508   0.999   6.038  0.00  0.00    +0.007 C 
ATOM     41  C   UNL     1      -0.083   0.389   4.959  0.00  0.00    +0.006 C 
ENDBRANCH  39  41
ENDBRANCH  38  39
ENDBRANCH  32  38
ENDBRANCH  30  36
ENDBRANCH   1  30
TORSDOF 5
