REMARK  Name = ZINC35991150
REMARK  14 active torsions:
REMARK  status: ('A' for Active; 'I' for Inactive)
REMARK    1  A    between atoms: C_1  and  C_2
REMARK    2  A    between atoms: C_2  and  N_3
REMARK    3  A    between atoms: C_4  and  C_26
REMARK    4  A    between atoms: C_5  and  C_21
REMARK    5  A    between atoms: C_6  and  C_11
REMARK    6  A    between atoms: C_15  and  O_19
REMARK    7  A    between atoms: C_16  and  O_17
REMARK    8  A    between atoms: O_17  and  C_18
REMARK    9  A    between atoms: O_19  and  C_20
REMARK   10  A    between atoms: C_21  and  O_23
REMARK   11  A    between atoms: O_23  and  C_24
REMARK   12  A    between atoms: C_24  and  C_25
REMARK   13  A    between atoms: C_26  and  N_27
REMARK   14  A    between atoms: C_30  and  C_33
REMARK                            x       y       z     vdW  Elec       q    Type
REMARK                         _______ _______ _______ _____ _____    ______ ____
ROOT
ATOM      1  N   UNL     1      -1.597   0.148   0.912  0.00  0.00    -0.261 N 
ATOM      2  C   UNL     1      -2.246  -0.610   1.844  0.00  0.00    +0.010 C 
ATOM      3  C   UNL     1      -3.094  -1.595   1.474  0.00  0.00    +0.077 C 
ATOM      4  C   UNL     1      -3.299  -1.828  -0.009  0.00  0.00    +0.147 C 
ATOM      5  N   UNL     1      -2.552  -0.956  -0.931  0.00  0.00    -0.288 N 
ATOM      6  C   UNL     1      -1.745  -0.012  -0.409  0.00  0.00    +0.307 C 
ATOM      7  O   UNL     1      -1.127   0.715  -1.162  0.00  0.00    -0.252 OA
ATOM      8  H   UNL     1      -2.642  -1.057  -1.892  0.00  0.00    +0.151 HD
ENDROOT
BRANCH   4   9
ATOM      9  C   UNL     1      -2.921  -3.255  -0.311  0.00  0.00    +0.023 A 
ATOM     10  C   UNL     1      -1.590  -3.604  -0.448  0.00  0.00    +0.009 A 
ATOM     11  C   UNL     1      -1.239  -4.912  -0.725  0.00  0.00    +0.004 A 
ATOM     12  C   UNL     1      -2.219  -5.878  -0.868  0.00  0.00    +0.049 A 
ATOM     13  C   UNL     1      -3.554  -5.535  -0.732  0.00  0.00    +0.162 A 
ATOM     14  C   UNL     1      -3.906  -4.219  -0.447  0.00  0.00    +0.167 A 
BRANCH  14  15
ATOM     15  O   UNL     1      -5.216  -3.879  -0.307  0.00  0.00    -0.491 OA
ATOM     16  C   UNL     1      -5.909  -3.471  -1.488  0.00  0.00    +0.277 C 
ENDBRANCH  14  15
BRANCH  13  17
ATOM     17  O   UNL     1      -4.518  -6.484  -0.872  0.00  0.00    -0.491 OA
ATOM     18  C   UNL     1      -4.083  -7.814  -1.159  0.00  0.00    +0.277 C 
ENDBRANCH  13  17
ENDBRANCH   4   9
BRANCH   1  20
ATOM     19  C   UNL     1      -1.473   2.502   1.562  0.00  0.00    +0.025 C 
ATOM     20  C   UNL     1      -0.692   1.199   1.384  0.00  0.00    +0.111 C 
ENDBRANCH   1  20
BRANCH   3  21
ATOM     21  C   UNL     1      -3.766  -2.381   2.438  0.00  0.00    +0.339 C 
ATOM     22  O   UNL     1      -3.502  -2.254   3.619  0.00  0.00    -0.245 OA
BRANCH  21  23
ATOM     23  O   UNL     1      -4.701  -3.273   2.049  0.00  0.00    -0.462 OA
BRANCH  23  24
ATOM     24  C   UNL     1      -5.340  -4.034   3.076  0.00  0.00    +0.229 C 
ATOM     25  C   UNL     1      -6.361  -4.984   2.446  0.00  0.00    +0.048 C 
ENDBRANCH  23  24
ENDBRANCH  21  23
ENDBRANCH   3  21
BRANCH   2  26
ATOM     26  C   UNL     1      -2.013  -0.344   3.309  0.00  0.00    -0.026 C 
BRANCH  26  27
ATOM     27  N   UNL     1      -1.066  -1.333   3.841  0.00  0.00    +0.383 N 
ATOM     28  C   UNL     1       0.242  -1.150   3.201  0.00  0.00    -0.078 C 
ATOM     29  C   UNL     1       1.210  -2.229   3.692  0.00  0.00    -0.016 C 
ATOM     30  C   UNL     1       1.363  -2.115   5.211  0.00  0.00    -0.018 C 
ATOM     31  C   UNL     1      -0.017  -2.233   5.864  0.00  0.00    -0.016 C 
ATOM     32  C   UNL     1      -0.939  -1.155   5.293  0.00  0.00    -0.078 C 
ATOM     33  C   UNL     1       2.268  -3.240   5.719  0.00  0.00    +0.007 C 
ATOM     34  H   UNL     1      -1.407  -2.263   3.647  0.00  0.00    -0.081 HD
ENDBRANCH  26  27
ENDBRANCH   2  26
TORSDOF 9
