REMARK  Name = ZINC08838331
REMARK  6 active torsions:
REMARK  status: ('A' for Active; 'I' for Inactive)
REMARK    1  A    between atoms: C_4  and  C_7
REMARK    2  A    between atoms: C_9  and  C_32
REMARK    3  A    between atoms: C_11  and  C_23
REMARK    4  A    between atoms: C_13  and  C_17
REMARK    5  A    between atoms: C_27  and  N_29
REMARK    6  A    between atoms: C_36  and  N_38
REMARK                            x       y       z     vdW  Elec       q    Type
REMARK                         _______ _______ _______ _____ _____    ______ ____
ROOT
ATOM      1  C   UNL     1      -0.896   1.514   1.130  0.00  0.00    +0.076 C 
ATOM      2  C   UNL     1       0.019   1.223  -0.065  0.00  0.00    -0.025 C 
ATOM      3  C   UNL     1      -0.411   3.384  -1.087  0.00  0.00    -0.025 C 
ATOM      4  C   UNL     1      -1.355   3.821   0.038  0.00  0.00    +0.076 C 
ATOM      5  C   UNL     1      -1.020   3.016   1.277  0.00  0.00    +0.145 C 
ATOM      6  O   UNL     1      -0.858   3.554   2.346  0.00  0.00    -0.296 OA
ATOM      7  N   UNL     1      -0.493   1.920  -1.262  0.00  0.00    +0.389 N 
ATOM      8  H   UNL     1      -1.473   1.653  -1.415  0.00  0.00    -0.084 HD
ATOM      9  H   UNL     1       0.067   1.645  -2.078  0.00  0.00    -0.084 HD
ENDROOT
BRANCH   1  13
ATOM     10  C   UNL     1      -4.751  -0.191   0.442  0.00  0.00    +0.000 A 
ATOM     11  C   UNL     1      -4.004  -0.589   1.535  0.00  0.00    +0.000 A 
ATOM     12  C   UNL     1      -2.756  -0.038   1.757  0.00  0.00    +0.004 A 
ATOM     13  C   UNL     1      -2.256   0.913   0.887  0.00  0.00    -0.038 A 
ATOM     14  C   UNL     1      -3.005   1.315  -0.202  0.00  0.00    +0.004 A 
ATOM     15  C   UNL     1      -4.251   0.760  -0.428  0.00  0.00    +0.000 A 
ENDBRANCH   1  13
BRANCH   4  16
ATOM     16  C   UNL     1      -1.164   5.289   0.320  0.00  0.00    -0.038 A 
ATOM     17  C   UNL     1      -0.113   5.710   1.113  0.00  0.00    +0.004 A 
ATOM     18  C   UNL     1       0.065   7.058   1.367  0.00  0.00    +0.000 A 
ATOM     19  C   UNL     1      -0.814   7.983   0.836  0.00  0.00    +0.000 A 
ATOM     20  C   UNL     1      -1.868   7.561   0.048  0.00  0.00    +0.000 A 
ATOM     21  C   UNL     1      -2.043   6.215  -0.211  0.00  0.00    +0.004 A 
ENDBRANCH   4  16
BRANCH   3  22
ATOM     22  C   UNL     1       1.002   3.776  -0.740  0.00  0.00    -0.058 A 
ATOM     23  C   UNL     1       1.756   4.511  -1.636  0.00  0.00    +0.002 A 
ATOM     24  C   UNL     1       3.052   4.871  -1.317  0.00  0.00    +0.002 A 
ATOM     25  C   UNL     1       3.594   4.497  -0.102  0.00  0.00    +0.033 A 
ATOM     26  C   UNL     1       2.841   3.762   0.794  0.00  0.00    +0.126 A 
ATOM     27  C   UNL     1       1.543   3.406   0.477  0.00  0.00    +0.034 A 
BRANCH  26  28
ATOM     28  N   UNL     1       3.421   3.361   2.095  0.00  0.00    +0.056 N 
ATOM     29  O   UNL     1       4.563   3.678   2.377  0.00  0.00    -0.126 OA
ATOM     30  O   UNL     1       2.757   2.713   2.885  0.00  0.00    -0.126 OA
ENDBRANCH  26  28
ENDBRANCH   3  22
BRANCH   2  31
ATOM     31  C   UNL     1       0.041  -0.260  -0.332  0.00  0.00    -0.058 A 
ATOM     32  C   UNL     1      -0.997  -0.853  -1.026  0.00  0.00    +0.002 A 
ATOM     33  C   UNL     1      -0.977  -2.213  -1.271  0.00  0.00    +0.002 A 
ATOM     34  C   UNL     1       0.082  -2.980  -0.822  0.00  0.00    +0.033 A 
ATOM     35  C   UNL     1       1.120  -2.388  -0.128  0.00  0.00    +0.126 A 
ATOM     36  C   UNL     1       1.102  -1.026   0.112  0.00  0.00    +0.034 A 
BRANCH  35  37
ATOM     37  N   UNL     1       2.253  -3.209   0.353  0.00  0.00    +0.056 N 
ATOM     38  O   UNL     1       2.272  -4.408   0.137  0.00  0.00    -0.126 OA
ATOM     39  O   UNL     1       3.168  -2.687   0.965  0.00  0.00    -0.126 OA
ENDBRANCH  35  37
ENDBRANCH   2  31
TORSDOF 6
