REMARK  Name = ZINC39485991
REMARK  8 active torsions:
REMARK  status: ('A' for Active; 'I' for Inactive)
REMARK    1  A    between atoms: C_1  and  N_2
REMARK    2  A    between atoms: N_2  and  C_3
REMARK    3  A    between atoms: N_2  and  C_15
REMARK    4  A    between atoms: C_3  and  C_4
REMARK    5  A    between atoms: C_15  and  C_16
REMARK    6  A    between atoms: C_19  and  C_22
REMARK    7  A    between atoms: C_22  and  C_23
REMARK    8  A    between atoms: C_27  and  C_29
REMARK                            x       y       z     vdW  Elec       q    Type
REMARK                         _______ _______ _______ _____ _____    ______ ____
ROOT
ATOM      1  C   UNL     1      -2.128  -0.334  -1.161  0.00  0.00    +0.275 C 
ATOM      2  N   UNL     1      -1.486  -0.962  -2.327  0.00  0.00    -0.295 N 
ATOM      3  C   UNL     1      -1.150   0.053  -3.192  0.00  0.00    +0.141 C 
ATOM      4  N   UNL     1      -1.491   1.200  -2.727  0.00  0.00    -0.072 NA
ATOM      5  O   UNL     1      -2.114   1.071  -1.460  0.00  0.00    -0.372 OA
ATOM      6  H   UNL     1      -1.329  -1.910  -2.460  0.00  0.00    +0.151 HD
ENDROOT
BRANCH   1   7
ATOM      7  C   UNL     1      -1.325  -0.619   0.110  0.00  0.00    -0.010 C 
BRANCH   7   9
ATOM      8  C   UNL     1       0.273   1.122  -0.306  0.00  0.00    -0.096 C 
ATOM      9  N   UNL     1       0.094  -0.326  -0.132  0.00  0.00    +0.383 N 
ATOM     10  H   UNL     1       0.400  -0.805  -0.965  0.00  0.00    -0.082 HD
BRANCH   9  11
ATOM     11  C   UNL     1       0.890  -0.783   1.015  0.00  0.00    -0.046 C 
BRANCH  11  12
ATOM     12  C   UNL     1       0.817  -2.308   1.112  0.00  0.00    +0.139 C 
ATOM     13  C   UNL     1       1.840  -2.833   2.083  0.00  0.00    -0.023 C 
ATOM     14  C   UNL     1       2.647  -3.600   1.364  0.00  0.00    +0.064 C 
ATOM     15  C   UNL     1       3.853  -4.334   1.935  0.00  0.00    +0.057 C 
ATOM     16  C   UNL     1       4.843  -3.265   2.418  0.00  0.00    +0.006 C 
ATOM     17  C   UNL     1       4.448  -2.719   3.767  0.00  0.00    +0.001 C 
ATOM     18  C   UNL     1       3.252  -1.798   3.801  0.00  0.00    +0.004 C 
ATOM     19  C   UNL     1       1.951  -2.587   3.572  0.00  0.00    +0.035 C 
ATOM     20  N   UNL     1       2.239  -3.622   0.073  0.00  0.00    -0.159 NA
ATOM     21  N   UNL     1       1.231  -2.936  -0.159  0.00  0.00    -0.181 NA
ENDBRANCH  11  12
ENDBRANCH   9  11
ENDBRANCH   7   9
ENDBRANCH   1   7
BRANCH   3  22
ATOM     22  C   UNL     1      -0.467  -0.155  -4.519  0.00  0.00    +0.110 C 
BRANCH  22  23
ATOM     23  C   UNL     1      -0.258   1.178  -5.191  0.00  0.00    -0.040 A 
ATOM     24  C   UNL     1      -1.232   1.690  -6.028  0.00  0.00    +0.004 A 
ATOM     25  C   UNL     1      -1.041   2.913  -6.644  0.00  0.00    +0.001 A 
ATOM     26  C   UNL     1       0.124   3.623  -6.423  0.00  0.00    +0.012 A 
ATOM     27  C   UNL     1       1.098   3.111  -5.585  0.00  0.00    +0.055 A 
ATOM     28  C   UNL     1       0.904   1.891  -4.966  0.00  0.00    +0.016 A 
BRANCH  27  29
ATOM     29  C   UNL     1       2.368   3.886  -5.345  0.00  0.00    +0.417 C 
ATOM     30  F   UNL     1       2.330   5.081  -6.071  0.00  0.00    -0.166 F 
ATOM     31  F   UNL     1       2.488   4.173  -3.981  0.00  0.00    -0.166 F 
ATOM     32  F   UNL     1       3.465   3.122  -5.758  0.00  0.00    -0.166 F 
ENDBRANCH  27  29
ENDBRANCH  22  23
ENDBRANCH   3  22
TORSDOF 7
