REMARK  Name = ZINC09090294
REMARK  5 active torsions:
REMARK  status: ('A' for Active; 'I' for Inactive)
REMARK    1  A    between atoms: C_5  and  C_11
REMARK    2  A    between atoms: C_13  and  C_25
REMARK    3  A    between atoms: C_15  and  C_20
REMARK    4  A    between atoms: C_15  and  O_24
REMARK    5  A    between atoms: C_25  and  C_27
REMARK                            x       y       z     vdW  Elec       q    Type
REMARK                         _______ _______ _______ _____ _____    ______ ____
ROOT
ATOM      1  C   UNL     1       1.230   7.350   0.027  0.00  0.00    +0.120 C 
ATOM      2  C   UNL     1       1.484   7.861  -1.395  0.00  0.00    +0.145 C 
ATOM      3  C   UNL     1       1.639   9.385  -1.345  0.00  0.00    +0.243 C 
ATOM      4  N   UNL     1       2.697   9.730  -0.394  0.00  0.00    -0.264 N 
ATOM      5  C   UNL     1       2.971   8.947   0.660  0.00  0.00    +0.302 C 
ATOM      6  O   UNL     1       3.853   9.285   1.425  0.00  0.00    -0.253 OA
ATOM      7  N   UNL     1       2.311   7.805   0.903  0.00  0.00    -0.292 N 
ATOM      8  H   UNL     1       3.211  10.542  -0.530  0.00  0.00    +0.153 HD
ATOM      9  H   UNL     1       2.554   7.271   1.675  0.00  0.00    +0.151 HD
ENDROOT
BRANCH   1  14
ATOM     10  C   UNL     1      -1.238   1.737   0.018  0.00  0.00    +0.020 A 
ATOM     11  C   UNL     1      -1.276   3.103   0.031  0.00  0.00    +0.011 A 
ATOM     12  C   UNL     1      -0.054   3.801   0.023  0.00  0.00    +0.001 A 
ATOM     13  C   UNL     1      -0.014   5.205   0.029  0.00  0.00    +0.015 A 
ATOM     14  C   UNL     1       1.188   5.843   0.020  0.00  0.00    -0.026 A 
ATOM     15  C   UNL     1       2.381   5.122   0.005  0.00  0.00    +0.007 A 
ATOM     16  C   UNL     1       2.379   3.762  -0.001  0.00  0.00    +0.028 A 
ATOM     17  C   UNL     1       1.157   3.066   0.007  0.00  0.00    +0.071 A 
ATOM     18  N   UNL     1       1.124   1.729   0.001  0.00  0.00    -0.255 NA
ATOM     19  C   UNL     1      -0.013   1.076   0.008  0.00  0.00    +0.111 A 
ENDBRANCH   1  14
BRANCH   3  20
ATOM     20  C   UNL     1       2.009   9.909  -2.734  0.00  0.00    +0.436 C 
ATOM     21  F   UNL     1       3.213   9.328  -3.146  0.00  0.00    -0.166 F 
ATOM     22  F   UNL     1       0.997   9.578  -3.642  0.00  0.00    -0.166 F 
ATOM     23  F   UNL     1       2.155  11.299  -2.685  0.00  0.00    -0.166 F 
ENDBRANCH   3  20
BRANCH   3  24
ATOM     24  O   UNL     1       0.408   9.975  -0.924  0.00  0.00    -0.364 OA
ATOM     25  H   UNL     1       0.434  10.940  -0.865  0.00  0.00    +0.212 HD
ENDBRANCH   3  24
BRANCH   2  26
ATOM     26  C   UNL     1       0.318   7.499  -2.279  0.00  0.00    +0.179 C 
ATOM     27  O   UNL     1      -0.797   7.407  -1.806  0.00  0.00    -0.291 OA
BRANCH  26  28
ATOM     28  C   UNL     1       0.522   7.266  -3.657  0.00  0.00    +0.055 A 
ATOM     29  C   UNL     1      -0.404   6.919  -4.635  0.00  0.00    +0.019 A 
ATOM     30  C   UNL     1       0.068   6.756  -5.910  0.00  0.00    +0.008 A 
ATOM     31  C   UNL     1       1.396   6.927  -6.155  0.00  0.00    +0.046 A 
ATOM     32  S   UNL     1       2.038   7.333  -4.596  0.00  0.00    -0.094 S 
ENDBRANCH  26  28
ENDBRANCH   2  26
TORSDOF 5
