REMARK  Name = ZINC21583997
REMARK  12 active torsions:
REMARK  status: ('A' for Active; 'I' for Inactive)
REMARK    1  A    between atoms: C_1  and  C_2
REMARK    2  A    between atoms: C_2  and  O_3
REMARK    3  A    between atoms: O_3  and  C_4
REMARK    4  A    between atoms: C_4  and  C_6
REMARK    5  A    between atoms: C_7  and  C_19
REMARK    6  A    between atoms: C_12  and  C_14
REMARK    7  A    between atoms: C_19  and  N_20
REMARK    8  A    between atoms: N_20  and  C_21
REMARK    9  A    between atoms: N_20  and  C_22
REMARK   10  A    between atoms: C_22  and  C_23
REMARK   11  A    between atoms: C_28  and  O_33
REMARK   12  A    between atoms: O_33  and  C_34
REMARK                            x       y       z     vdW  Elec       q    Type
REMARK                         _______ _______ _______ _____ _____    ______ ____
ROOT
ATOM      1  C   UNL     1       1.087  -3.899  11.028  0.00  0.00    +0.079 C 
ATOM      2  C   UNL     1       0.499  -2.689  10.914  0.00  0.00    +0.008 C 
ATOM      3  N   UNL     1      -0.839  -2.532  11.136  0.00  0.00    -0.274 N 
ATOM      4  C   UNL     1      -1.657  -3.534  11.482  0.00  0.00    +0.304 C 
ATOM      5  O   UNL     1      -2.836  -3.296  11.659  0.00  0.00    -0.252 OA
ATOM      6  N   UNL     1      -1.216  -4.798  11.640  0.00  0.00    -0.285 N 
ATOM      7  C   UNL     1       0.214  -5.073  11.423  0.00  0.00    +0.179 C 
ATOM      8  H   UNL     1      -1.300  -1.538  11.034  0.00  0.00    +0.156 HD
ATOM      9  H   UNL     1      -1.896  -5.614  11.925  0.00  0.00    +0.151 HD
ENDROOT
BRANCH   7  10
ATOM     10  C   UNL     1       0.327  -6.115  10.340  0.00  0.00    +0.130 A 
ATOM     11  C   UNL     1       1.195  -7.143  10.325  0.00  0.00    +0.047 A 
ATOM     12  C   UNL     1       0.955  -7.864   9.133  0.00  0.00    +0.041 A 
ATOM     13  C   UNL     1      -0.045  -7.234   8.491  0.00  0.00    +0.195 A 
ATOM     14  O   UNL     1      -0.426  -6.179   9.230  0.00  0.00    -0.466 OA
ENDBRANCH   7  10
BRANCH   1  15
ATOM     15  C   UNL     1       2.472  -4.065  10.793  0.00  0.00    +0.339 C 
ATOM     16  O   UNL     1       2.860  -4.497   9.723  0.00  0.00    -0.245 OA
BRANCH  15  17
ATOM     17  O   UNL     1       3.364  -3.743  11.753  0.00  0.00    -0.462 OA
BRANCH  17  19
ATOM     18  C   UNL     1       5.597  -3.519  12.648  0.00  0.00    +0.048 C 
ATOM     19  C   UNL     1       4.746  -3.935  11.447  0.00  0.00    +0.229 C 
ENDBRANCH  17  19
ENDBRANCH  15  17
ENDBRANCH   1  15
BRANCH   2  20
ATOM     20  C   UNL     1       1.332  -1.494  10.528  0.00  0.00    -0.026 C 
BRANCH  20  21
ATOM     21  N   UNL     1       0.882  -0.982   9.227  0.00  0.00    +0.384 N 
ATOM     22  C   UNL     1       1.149  -1.954   8.158  0.00  0.00    -0.095 C 
ATOM     23  H   UNL     1      -0.207  -0.831   9.282  0.00  0.00    -0.081 HD
BRANCH  21  24
ATOM     24  C   UNL     1       1.503   0.315   8.928  0.00  0.00    -0.043 C 
BRANCH  24  25
ATOM     25  C   UNL     1       0.841   0.922   7.718  0.00  0.00    -0.063 A 
ATOM     26  C   UNL     1      -0.267   1.751   7.885  0.00  0.00    +0.002 A 
ATOM     27  C   UNL     1      -0.888   2.315   6.814  0.00  0.00    +0.009 A 
ATOM     28  C   UNL     1      -0.408   2.059   5.517  0.00  0.00    -0.014 A 
ATOM     29  C   UNL     1      -1.024   2.624   4.388  0.00  0.00    +0.054 A 
ATOM     30  C   UNL     1      -0.530   2.353   3.144  0.00  0.00    +0.121 A 
ATOM     31  C   UNL     1       0.578   1.516   2.978  0.00  0.00    +0.046 A 
ATOM     32  C   UNL     1       1.200   0.959   4.051  0.00  0.00    +0.012 A 
ATOM     33  C   UNL     1       0.719   1.216   5.347  0.00  0.00    -0.017 A 
ATOM     34  C   UNL     1       1.334   0.652   6.478  0.00  0.00    +0.010 A 
BRANCH  30  35
ATOM     35  O   UNL     1      -1.127   2.900   2.052  0.00  0.00    -0.495 OA
ATOM     36  C   UNL     1      -0.565   2.580   0.778  0.00  0.00    +0.277 C 
ENDBRANCH  30  35
ENDBRANCH  24  25
ENDBRANCH  21  24
ENDBRANCH  20  21
ENDBRANCH   2  20
TORSDOF 9
