REMARK  Name = ZINC33052696
REMARK  9 active torsions:
REMARK  status: ('A' for Active; 'I' for Inactive)
REMARK    1  A    between atoms: C_1  and  C_2
REMARK    2  A    between atoms: C_2  and  O_3
REMARK    3  A    between atoms: O_3  and  C_4
REMARK    4  A    between atoms: C_8  and  C_10
REMARK    5  A    between atoms: C_19  and  C_28
REMARK    6  A    between atoms: N_21  and  C_22
REMARK    7  A    between atoms: N_33  and  C_34
REMARK    8  A    between atoms: C_34  and  C_35
REMARK    9  A    between atoms: C_38  and  C_41
REMARK                            x       y       z     vdW  Elec       q    Type
REMARK                         _______ _______ _______ _____ _____    ______ ____
ROOT
ATOM      1  C   UNL     1       0.060   1.087   0.264  0.00  0.00    +0.155 C 
ATOM      2  C   UNL     1      -0.325   1.847  -0.972  0.00  0.00    +0.050 A 
ATOM      3  C   UNL     1      -0.736   1.376  -2.159  0.00  0.00    +0.025 A 
ATOM      4  C   UNL     1      -1.044   2.489  -2.973  0.00  0.00    +0.020 A 
ATOM      5  C   UNL     1      -0.788   3.604  -2.251  0.00  0.00    +0.093 A 
ATOM      6  N   UNL     1      -0.312   3.218  -1.045  0.00  0.00    -0.303 N 
ATOM      7  C   UNL     1       0.179   3.976   0.024  0.00  0.00    +0.146 A 
ATOM      8  C   UNL     1       1.317   3.599   0.676  0.00  0.00    +0.035 A 
ATOM      9  C   UNL     1       1.489   4.464   1.753  0.00  0.00    +0.067 A 
ATOM     10  N   UNL     1       0.517   5.345   1.736  0.00  0.00    -0.169 NA
ATOM     11  N   UNL     1      -0.314   5.069   0.636  0.00  0.00    -0.215 N 
ATOM     12  C   UNL     1       2.602   4.399   2.767  0.00  0.00    +0.068 C 
ATOM     13  C   UNL     1       2.175   2.449   0.238  0.00  0.00    +0.151 C 
ATOM     14  N   UNL     1       1.520   1.148   0.509  0.00  0.00    -0.269 N 
ATOM     15  C   UNL     1       2.212   0.081   0.955  0.00  0.00    +0.304 C 
ATOM     16  O   UNL     1       1.639  -0.971   1.166  0.00  0.00    -0.253 OA
ATOM     17  N   UNL     1       3.540   0.179   1.165  0.00  0.00    -0.295 N 
ATOM     18  H   UNL     1       4.058   1.130   0.973  0.00  0.00    +0.151 HD
ENDROOT
BRANCH   1  23
ATOM     19  C   UNL     1      -0.679   2.345   3.749  0.00  0.00    +0.121 A 
ATOM     20  C   UNL     1      -1.997   2.758   3.619  0.00  0.00    +0.045 A 
ATOM     21  C   UNL     1      -2.642   2.630   2.404  0.00  0.00    +0.004 A 
ATOM     22  C   UNL     1      -1.976   2.089   1.320  0.00  0.00    +0.006 A 
ATOM     23  C   UNL     1      -0.663   1.677   1.448  0.00  0.00    -0.018 A 
ATOM     24  C   UNL     1      -0.014   1.799   2.661  0.00  0.00    +0.051 A 
BRANCH  19  25
ATOM     25  O   UNL     1      -0.042   2.471   4.943  0.00  0.00    -0.492 OA
BRANCH  25  27
ATOM     26  C   UNL     1       0.087   3.096   7.274  0.00  0.00    +0.048 C 
ATOM     27  C   UNL     1      -0.789   3.036   6.022  0.00  0.00    +0.225 C 
ENDBRANCH  25  27
ENDBRANCH  19  25
ENDBRANCH   1  23
BRANCH  11  28
ATOM     28  C   UNL     1      -1.448   5.797   0.249  0.00  0.00    +0.068 A 
ATOM     29  C   UNL     1      -1.435   7.184   0.302  0.00  0.00    +0.028 A 
ATOM     30  C   UNL     1      -2.551   7.899  -0.085  0.00  0.00    +0.002 A 
ATOM     31  C   UNL     1      -3.685   7.234  -0.515  0.00  0.00    +0.000 A 
ATOM     32  C   UNL     1      -3.703   5.852  -0.563  0.00  0.00    +0.002 A 
ATOM     33  C   UNL     1      -2.587   5.132  -0.182  0.00  0.00    +0.028 A 
ENDBRANCH  11  28
BRANCH  17  34
ATOM     34  C   UNL     1       4.293  -0.981   1.649  0.00  0.00    +0.141 C 
BRANCH  34  35
ATOM     35  C   UNL     1       5.745  -0.610   1.800  0.00  0.00    -0.030 A 
ATOM     36  C   UNL     1       6.617  -0.783   0.741  0.00  0.00    +0.005 A 
ATOM     37  C   UNL     1       7.949  -0.439   0.878  0.00  0.00    +0.003 A 
ATOM     38  C   UNL     1       8.411   0.071   2.077  0.00  0.00    -0.050 A 
ATOM     39  C   UNL     1       7.540   0.240   3.138  0.00  0.00    +0.003 A 
ATOM     40  C   UNL     1       6.208  -0.100   2.999  0.00  0.00    +0.005 A 
ATOM     41  C   UNL     1       9.863   0.442   2.228  0.00  0.00    +0.044 C 
ENDBRANCH  34  35
ENDBRANCH  17  34
TORSDOF 6
