REMARK  Name = ZINC35074893
REMARK  8 active torsions:
REMARK  status: ('A' for Active; 'I' for Inactive)
REMARK    1  A    between atoms: C_1  and  C_2
REMARK    2  A    between atoms: N_7  and  C_9
REMARK    3  A    between atoms: C_9  and  C_11
REMARK    4  A    between atoms: C_9  and  C_22
REMARK    5  A    between atoms: C_11  and  C_12
REMARK    6  A    between atoms: C_18  and  C_21
REMARK    7  A    between atoms: N_24  and  C_25
REMARK    8  A    between atoms: C_28  and  N_31
REMARK                            x       y       z     vdW  Elec       q    Type
REMARK                         _______ _______ _______ _____ _____    ______ ____
ROOT
ATOM      1  C   UNL     1       1.630  -2.748   2.478  0.00  0.00    +0.028 C 
ENDROOT
BRANCH   1   7
ATOM      2  C   UNL     1      -0.223   0.886  -0.229  0.00  0.00    +0.005 C 
ATOM      3  C   UNL     1      -0.042  -0.630  -0.131  0.00  0.00    -0.031 C 
ATOM      4  C   UNL     1       0.720  -1.134  -1.360  0.00  0.00    -0.001 C 
ATOM      5  C   UNL     1       0.965  -2.639  -1.214  0.00  0.00    -0.018 C 
ATOM      6  C   UNL     1       1.724  -2.903   0.087  0.00  0.00    -0.078 C 
ATOM      7  N   UNL     1       0.933  -2.422   1.226  0.00  0.00    +0.388 N 
ATOM      8  C   UNL     1       0.754  -0.969   1.132  0.00  0.00    -0.075 C 
ATOM      9  H   UNL     1       0.029  -2.872   1.220  0.00  0.00    -0.081 HD
ENDBRANCH   1   7
BRANCH   1  10
ATOM     10  C   UNL     1       1.704  -4.245   2.637  0.00  0.00    +0.204 C 
ATOM     11  O   UNL     1       0.940  -4.958   2.021  0.00  0.00    -0.277 OA
ATOM     12  N   UNL     1       2.618  -4.790   3.463  0.00  0.00    -0.287 N 
ATOM     13  H   UNL     1       3.274  -4.226   3.901  0.00  0.00    +0.155 HD
BRANCH  12  14
ATOM     14  C   UNL     1       2.621  -6.171   3.689  0.00  0.00    +0.033 A 
ATOM     15  C   UNL     1       2.953  -6.671   4.941  0.00  0.00    +0.025 A 
ATOM     16  C   UNL     1       2.955  -8.034   5.161  0.00  0.00    +0.034 A 
ATOM     17  C   UNL     1       2.628  -8.902   4.136  0.00  0.00    +0.126 A 
ATOM     18  C   UNL     1       2.297  -8.408   2.887  0.00  0.00    +0.034 A 
ATOM     19  C   UNL     1       2.287  -7.045   2.662  0.00  0.00    +0.025 A 
BRANCH  17  20
ATOM     20  N   UNL     1       2.631 -10.363   4.375  0.00  0.00    +0.056 N 
ATOM     21  O   UNL     1       2.920 -10.796   5.466  0.00  0.00    -0.126 OA
ATOM     22  O   UNL     1       2.345 -11.122   3.479  0.00  0.00    -0.126 OA
ENDBRANCH  17  20
ENDBRANCH  12  14
ENDBRANCH   1  10
BRANCH   1  23
ATOM     23  C   UNL     1       0.866  -2.147   3.659  0.00  0.00    +0.090 C 
BRANCH  23  24
ATOM     24  C   UNL     1      -0.540  -2.689   3.676  0.00  0.00    +0.214 C 
ATOM     25  O   UNL     1      -0.872  -3.539   2.876  0.00  0.00    -0.276 OA
ATOM     26  N   UNL     1      -1.428  -2.231   4.580  0.00  0.00    -0.301 N 
ATOM     27  C   UNL     1      -1.043  -1.198   5.551  0.00  0.00    +0.108 C 
ATOM     28  C   UNL     1      -2.041  -0.040   5.461  0.00  0.00    +0.019 C 
ATOM     29  C   UNL     1      -3.461  -0.579   5.648  0.00  0.00    +0.006 C 
ATOM     30  C   UNL     1      -3.779  -1.579   4.534  0.00  0.00    +0.003 C 
ATOM     31  C   UNL     1      -2.802  -2.751   4.609  0.00  0.00    +0.111 C 
ATOM     32  C   UNL     1      -5.210  -2.093   4.702  0.00  0.00    +0.009 C 
ENDBRANCH  23  24
ENDBRANCH   1  23
TORSDOF 6
