REMARK  Name = ZINC66774083
REMARK  8 active torsions:
REMARK  status: ('A' for Active; 'I' for Inactive)
REMARK    1  A    between atoms: C_1  and  C_2
REMARK    2  A    between atoms: C_3  and  C_17
REMARK    3  A    between atoms: N_6  and  C_7
REMARK    4  A    between atoms: N_19  and  C_20
REMARK    5  A    between atoms: C_20  and  C_22
REMARK    6  A    between atoms: C_20  and  C_25
REMARK    7  A    between atoms: C_22  and  C_23
REMARK    8  A    between atoms: C_22  and  C_24
REMARK                            x       y       z     vdW  Elec       q    Type
REMARK                         _______ _______ _______ _____ _____    ______ ____
ROOT
ATOM      1  C   UNL     1      -0.211   1.340   0.014  0.00  0.00    +0.068 C 
ATOM      2  C   UNL     1      -0.296  -0.164  -0.023  0.00  0.00    +0.074 A 
ATOM      3  C   UNL     1      -0.419  -0.946  -1.137  0.00  0.00    +0.170 A 
ATOM      4  N   UNL     1      -0.461  -2.233  -0.751  0.00  0.00    -0.124 NA
ATOM      5  N   UNL     1      -0.372  -2.303   0.532  0.00  0.00    -0.060 NA
ATOM      6  N   UNL     1      -0.259  -1.000   1.038  0.00  0.00    -0.216 N 
ENDROOT
BRANCH   6   7
ATOM      7  C   UNL     1      -0.136  -0.635   2.383  0.00  0.00    +0.076 A 
ATOM      8  C   UNL     1       0.845   0.250   2.777  0.00  0.00    +0.028 A 
ATOM      9  C   UNL     1       0.974   0.617   4.112  0.00  0.00    +0.004 A 
ATOM     10  C   UNL     1       0.140   0.116   5.065  0.00  0.00    +0.028 A 
ATOM     11  C   UNL     1      -0.873  -0.790   4.706  0.00  0.00    +0.073 A 
ATOM     12  C   UNL     1      -1.016  -1.165   3.348  0.00  0.00    +0.026 A 
ATOM     13  C   UNL     1      -2.035  -2.067   2.992  0.00  0.00    +0.013 A 
ATOM     14  C   UNL     1      -2.851  -2.540   3.980  0.00  0.00    +0.020 A 
ATOM     15  C   UNL     1      -2.661  -2.127   5.296  0.00  0.00    +0.111 A 
ATOM     16  N   UNL     1      -1.702  -1.295   5.626  0.00  0.00    -0.255 NA
ENDBRANCH   6   7
BRANCH   3  17
ATOM     17  C   UNL     1      -0.493  -0.461  -2.528  0.00  0.00    +0.267 C 
ATOM     18  O   UNL     1      -0.446   0.733  -2.758  0.00  0.00    -0.268 OA
ATOM     19  N   UNL     1      -0.614  -1.339  -3.543  0.00  0.00    -0.298 N 
ATOM     20  H   UNL     1      -0.652  -2.291  -3.359  0.00  0.00    +0.150 HD
BRANCH  19  21
ATOM     21  C   UNL     1      -0.689  -0.856  -4.924  0.00  0.00    +0.161 C 
BRANCH  21  22
ATOM     22  C   UNL     1      -1.408  -1.873  -5.773  0.00  0.00    +0.231 C 
ATOM     23  O   UNL     1      -1.537  -3.012  -5.377  0.00  0.00    -0.274 OA
ATOM     24  N   UNL     1      -1.908  -1.516  -6.973  0.00  0.00    -0.328 N 
ATOM     25  H   UNL     1      -1.748  -0.624  -7.319  0.00  0.00    +0.145 HD
ATOM     26  H   UNL     1      -2.427  -2.151  -7.490  0.00  0.00    +0.145 HD
ENDBRANCH  21  22
BRANCH  21  27
ATOM     27  C   UNL     1       0.726  -0.647  -5.468  0.00  0.00    +0.012 C 
ATOM     28  C   UNL     1       1.417   0.467  -4.677  0.00  0.00    +0.009 C 
ATOM     29  C   UNL     1       1.524  -1.944  -5.326  0.00  0.00    +0.009 C 
ENDBRANCH  21  27
ENDBRANCH  19  21
ENDBRANCH   3  17
TORSDOF 5
