REMARK  Name = ZINC20103165
REMARK  7 active torsions:
REMARK  status: ('A' for Active; 'I' for Inactive)
REMARK    1  A    between atoms: C_1  and  C_2
REMARK    2  A    between atoms: C_4  and  C_23
REMARK    3  A    between atoms: C_5  and  O_9
REMARK    4  A    between atoms: O_9  and  C_10
REMARK    5  A    between atoms: C_10  and  C_11
REMARK    6  A    between atoms: N_13  and  N_14
REMARK    7  A    between atoms: C_15  and  C_16
REMARK                            x       y       z     vdW  Elec       q    Type
REMARK                         _______ _______ _______ _____ _____    ______ ____
ROOT
ATOM      1  C   UNL     1       1.044   5.584   1.089  0.00  0.00    +0.270 C 
ATOM      2  O   UNL     1       1.089   6.055  -0.028  0.00  0.00    -0.270 OA
ATOM      3  N   UNL     1       1.048   6.397   2.164  0.00  0.00    -0.204 N 
ATOM      4  H   UNL     1       1.007   5.969   3.177  0.00  0.00    +0.177 HD
ENDROOT
BRANCH   3   5
ATOM      5  N   UNL     1       1.105   7.786   1.992  0.00  0.00    -0.185 NA
ATOM      6  C   UNL     1       1.029   8.573   3.025  0.00  0.00    +0.176 C 
BRANCH   6   7
ATOM      7  C   UNL     1       1.048   8.011   4.378  0.00  0.00    +0.150 A 
ATOM      8  C   UNL     1       0.859   8.706   5.538  0.00  0.00    +0.067 A 
ATOM      9  C   UNL     1       0.956   7.774   6.588  0.00  0.00    +0.071 A 
ATOM     10  C   UNL     1       1.207   6.571   6.029  0.00  0.00    +0.185 A 
ATOM     11  O   UNL     1       1.261   6.718   4.695  0.00  0.00    -0.446 OA
ATOM     12 BR   UNL     1       1.441   4.947   6.969  0.00  0.00    -0.007 Br
ATOM     13 BR   UNL     1       0.778   8.141   8.435  0.00  0.00    -0.046 Br
ENDBRANCH   6   7
ENDBRANCH   3   5
BRANCH   1  14
ATOM     14  C   UNL     1       0.982   4.090   1.275  0.00  0.00    +0.326 C 
BRANCH  14  15
ATOM     15  O   UNL     1       0.989   3.450  -0.003  0.00  0.00    -0.481 OA
BRANCH  15  20
ATOM     16  C   UNL     1       0.774  -2.179  -0.050  0.00  0.00    +0.044 C 
ATOM     17  C   UNL     1       0.832  -0.673  -0.037  0.00  0.00    -0.049 A 
ATOM     18  C   UNL     1      -0.338   0.063  -0.061  0.00  0.00    +0.010 A 
ATOM     19  C   UNL     1      -0.288   1.444  -0.050  0.00  0.00    -0.007 A 
ATOM     20  C   UNL     1       0.938   2.092  -0.014  0.00  0.00    +0.138 A 
ATOM     21  C   UNL     1       2.111   1.352   0.009  0.00  0.00    +0.060 A 
ATOM     22  C   UNL     1       2.055  -0.030  -0.002  0.00  0.00    +0.022 A 
ATOM     23 BR   UNL     1       3.784   2.231   0.058  0.00  0.00    -0.047 Br
ATOM     24  C   UNL     1      -1.564   2.245  -0.082  0.00  0.00    +0.047 C 
ENDBRANCH  15  20
ENDBRANCH  14  15
ENDBRANCH   1  14
TORSDOF 5
