REMARK  Name = ZINC63993640
REMARK  12 active torsions:
REMARK  status: ('A' for Active; 'I' for Inactive)
REMARK    1  A    between atoms: C_1  and  O_2
REMARK    2  A    between atoms: O_2  and  C_3
REMARK    3  A    between atoms: C_3  and  C_4
REMARK    4  A    between atoms: N_6  and  C_7
REMARK    5  A    between atoms: C_11  and  N_33
REMARK    6  A    between atoms: N_15  and  C_22
REMARK    7  A    between atoms: C_16  and  C_18
REMARK    8  A    between atoms: C_18  and  O_20
REMARK    9  A    between atoms: O_20  and  C_21
REMARK   10  A    between atoms: C_22  and  C_23
REMARK   11  A    between atoms: C_23  and  C_24
REMARK   12  A    between atoms: N_33  and  C_34
REMARK                            x       y       z     vdW  Elec       q    Type
REMARK                         _______ _______ _______ _____ _____    ______ ____
ROOT
ATOM      1  C   UNL     1       1.169  -4.307   1.857  0.00  0.00    +0.138 C 
ATOM      2  C   UNL     1       2.350  -4.809   1.059  0.00  0.00    +0.015 A 
ATOM      3  C   UNL     1       2.734  -4.573  -0.247  0.00  0.00    +0.033 A 
ATOM      4  C   UNL     1       3.894  -5.185  -0.719  0.00  0.00    +0.044 A 
ATOM      5  C   UNL     1       4.613  -6.003   0.139  0.00  0.00    +0.107 A 
ATOM      6  N   UNL     1       4.215  -6.204   1.377  0.00  0.00    -0.348 N 
ATOM      7  C   UNL     1       3.112  -5.638   1.869  0.00  0.00    +0.105 A 
ATOM      8  N   UNL     1       2.564  -5.751   3.145  0.00  0.00    -0.301 N 
ATOM      9  C   UNL     1       1.337  -4.952   3.243  0.00  0.00    +0.208 C 
ATOM     10  H   UNL     1       4.741  -6.782   1.951  0.00  0.00    +0.167 HD
ENDROOT
BRANCH   1  13
ATOM     11  C   UNL     1       0.633  -2.085   1.012  0.00  0.00    +0.239 C 
ATOM     12  O   UNL     1       0.084  -2.609   0.067  0.00  0.00    -0.273 OA
ATOM     13  N   UNL     1       1.208  -2.846   1.964  0.00  0.00    -0.304 N 
ATOM     14  H   UNL     1       1.647  -2.427   2.721  0.00  0.00    +0.149 HD
BRANCH  11  15
ATOM     15  C   UNL     1       0.673  -0.582   1.123  0.00  0.00    +0.255 C 
BRANCH  15  17
ATOM     16  C   UNL     1      -0.017   1.425   0.010  0.00  0.00    +0.194 C 
ATOM     17  O   UNL     1       0.002  -0.004   0.002  0.00  0.00    -0.374 OA
ENDBRANCH  15  17
ENDBRANCH  11  15
ENDBRANCH   1  13
BRANCH   9  18
ATOM     18  C   UNL     1       0.157  -5.837   3.553  0.00  0.00    +0.330 C 
ATOM     19  O   UNL     1       0.244  -7.034   3.407  0.00  0.00    -0.249 OA
BRANCH  18  20
ATOM     20  O   UNL     1      -0.991  -5.297   3.992  0.00  0.00    -0.467 OA
ATOM     21  C   UNL     1      -2.067  -6.195   4.267  0.00  0.00    +0.280 C 
ENDBRANCH  18  20
ENDBRANCH   9  18
BRANCH   4  22
ATOM     22  N   UNL     1       4.325  -4.977  -2.035  0.00  0.00    -0.340 N 
ATOM     23  H   UNL     1       3.815  -4.403  -2.628  0.00  0.00    +0.146 HD
BRANCH  22  24
ATOM     24  C   UNL     1       5.547  -5.627  -2.517  0.00  0.00    +0.075 C 
ATOM     25  C   UNL     1       6.762  -4.770  -2.151  0.00  0.00    +0.050 C 
ATOM     26  C   UNL     1       8.025  -5.417  -2.726  0.00  0.00    +0.161 C 
ATOM     27  O   UNL     1       7.885  -5.554  -4.142  0.00  0.00    -0.380 OA
ATOM     28  C   UNL     1       6.793  -6.384  -4.543  0.00  0.00    +0.161 C 
ATOM     29  C   UNL     1       5.481  -5.776  -4.040  0.00  0.00    +0.050 C 
ENDBRANCH  22  24
ENDBRANCH   4  22
BRANCH   8  30
ATOM     30  C   UNL     1       3.130  -6.553   4.232  0.00  0.00    +0.112 C 
BRANCH  30  31
ATOM     31  C   UNL     1       4.103  -5.697   5.045  0.00  0.00    +0.052 C 
BRANCH  31  32
ATOM     32  C   UNL     1       4.685  -6.522   6.164  0.00  0.00    -0.040 C 
ATOM     33  C   UNL     1       5.859  -7.194   6.153  0.00  0.00    -0.001 A 
ATOM     34  C   UNL     1       6.905  -7.351   5.136  0.00  0.00    +0.010 A 
ATOM     35  C   UNL     1       7.991  -8.104   5.423  0.00  0.00    +0.001 A 
ATOM     36  C   UNL     1       8.143  -8.735   6.665  0.00  0.00    +0.002 A 
ATOM     37  C   UNL     1       7.225  -8.637   7.650  0.00  0.00    +0.026 A 
ATOM     38  C   UNL     1       6.043  -7.870   7.457  0.00  0.00    +0.043 A 
ATOM     39  N   UNL     1       5.022  -7.627   8.243  0.00  0.00    -0.380 N 
ATOM     40  C   UNL     1       4.077  -6.762   7.528  0.00  0.00    +0.144 C 
ATOM     41  H   UNL     1       4.913  -7.959   9.148  0.00  0.00    +0.160 HD
ENDBRANCH  31  32
ENDBRANCH  30  31
ENDBRANCH   8  30
TORSDOF 10
