REMARK  Name = ZINC26441395
REMARK  9 active torsions:
REMARK  status: ('A' for Active; 'I' for Inactive)
REMARK    1  A    between atoms: C_1  and  C_2
REMARK    2  A    between atoms: C_3  and  C_17
REMARK    3  A    between atoms: C_8  and  C_10
REMARK    4  A    between atoms: C_10  and  N_11
REMARK    5  A    between atoms: C_26  and  C_28
REMARK    6  A    between atoms: C_28  and  C_29
REMARK    7  A    between atoms: C_29  and  C_30
REMARK    8  A    between atoms: C_29  and  C_31
REMARK    9  A    between atoms: C_29  and  C_32
REMARK                            x       y       z     vdW  Elec       q    Type
REMARK                         _______ _______ _______ _____ _____    ______ ____
ROOT
ATOM      1  C   UNL     1      -0.619  -0.239   2.482  0.00  0.00    +0.054 C 
ATOM      2  C   UNL     1      -0.271  -0.796   1.125  0.00  0.00    +0.016 A 
ATOM      3  C   UNL     1      -1.064  -0.976   0.026  0.00  0.00    +0.083 A 
ATOM      4  N   UNL     1      -0.540  -1.489  -1.076  0.00  0.00    -0.224 NA
ATOM      5  C   UNL     1       0.734  -1.832  -1.135  0.00  0.00    +0.165 A 
ATOM      6  S   UNL     1       1.295  -1.398   0.506  0.00  0.00    -0.057 S 
ATOM      7  N   UNL     1       1.450  -2.379  -2.192  0.00  0.00    -0.264 N 
ATOM      8  C   UNL     1       2.760  -2.660  -2.046  0.00  0.00    +0.233 C 
ATOM      9  O   UNL     1       3.314  -2.435  -0.991  0.00  0.00    -0.274 OA
ATOM     10  H   UNL     1       1.007  -2.558  -3.036  0.00  0.00    +0.157 HD
ENDROOT
BRANCH   3  11
ATOM     11  C   UNL     1      -2.498  -0.599   0.068  0.00  0.00    +0.002 A 
ATOM     12  C   UNL     1      -2.891   0.602   0.659  0.00  0.00    +0.012 A 
ATOM     13  C   UNL     1      -4.222   0.949   0.696  0.00  0.00    +0.024 A 
ATOM     14  C   UNL     1      -5.190   0.105   0.144  0.00  0.00    +0.040 A 
ATOM     15  C   UNL     1      -4.794  -1.087  -0.443  0.00  0.00    -0.024 A 
ATOM     16  C   UNL     1      -3.460  -1.439  -0.488  0.00  0.00    +0.015 A 
ATOM     17  C   UNL     1      -6.023  -1.802  -0.957  0.00  0.00    +0.056 C 
ATOM     18  C   UNL     1      -7.192  -0.872  -0.594  0.00  0.00    +0.118 C 
ATOM     19  N   UNL     1      -6.577   0.275   0.080  0.00  0.00    -0.271 N 
ATOM     20  C   UNL     1      -7.249   1.336   0.567  0.00  0.00    +0.220 C 
ATOM     21  O   UNL     1      -8.456   1.390   0.462  0.00  0.00    -0.275 OA
BRANCH  20  22
ATOM     22  C   UNL     1      -6.500   2.457   1.241  0.00  0.00    +0.102 C 
BRANCH  22  23
ATOM     23  C   UNL     1      -7.491   3.529   1.699  0.00  0.00    -0.029 C 
ATOM     24  C   UNL     1      -8.487   2.916   2.684  0.00  0.00    +0.011 C 
ATOM     25  C   UNL     1      -6.731   4.667   2.384  0.00  0.00    +0.011 C 
ATOM     26  C   UNL     1      -8.245   4.077   0.486  0.00  0.00    +0.011 C 
ENDBRANCH  22  23
ENDBRANCH  20  22
ENDBRANCH   3  11
BRANCH   8  27
ATOM     27  C   UNL     1       3.536  -3.253  -3.193  0.00  0.00    +0.181 C 
BRANCH  27  28
ATOM     28  N   UNL     1       4.931  -3.464  -2.783  0.00  0.00    -0.290 NA
ATOM     29  C   UNL     1       5.608  -2.183  -2.537  0.00  0.00    +0.113 C 
ATOM     30  C   UNL     1       7.036  -2.450  -2.056  0.00  0.00    +0.175 C 
ATOM     31  O   UNL     1       7.720  -3.245  -3.028  0.00  0.00    -0.377 OA
ATOM     32  C   UNL     1       7.088  -4.501  -3.292  0.00  0.00    +0.175 C 
ATOM     33  C   UNL     1       5.660  -4.255  -3.785  0.00  0.00    +0.113 C 
ENDBRANCH  27  28
ENDBRANCH   8  27
TORSDOF 5
