REMARK  Name = ZINC60161572
REMARK  9 active torsions:
REMARK  status: ('A' for Active; 'I' for Inactive)
REMARK    1  A    between atoms: C_1  and  C_2
REMARK    2  A    between atoms: C_2  and  C_4
REMARK    3  A    between atoms: C_2  and  N_15
REMARK    4  A    between atoms: C_7  and  N_10
REMARK    5  A    between atoms: N_15  and  C_16
REMARK    6  A    between atoms: N_19  and  C_20
REMARK    7  A    between atoms: C_20  and  C_21
REMARK    8  A    between atoms: N_27  and  C_28
REMARK    9  A    between atoms: C_28  and  C_29
REMARK                            x       y       z     vdW  Elec       q    Type
REMARK                         _______ _______ _______ _____ _____    ______ ____
ROOT
ATOM      1  N   UNL     1       0.282  -0.685  -1.289  0.00  0.00    -0.282 N 
ATOM      2  C   UNL     1       1.741  -0.585  -1.373  0.00  0.00    +0.134 C 
ATOM      3  C   UNL     1      -0.420  -1.189  -2.323  0.00  0.00    +0.302 C 
ATOM      4  O   UNL     1      -1.631  -1.272  -2.253  0.00  0.00    -0.253 OA
ATOM      5  N   UNL     1       0.221  -1.601  -3.435  0.00  0.00    -0.301 N 
ATOM      6  H   UNL     1       1.187  -1.535  -3.491  0.00  0.00    +0.150 HD
ENDROOT
BRANCH   1   8
ATOM      7  C   UNL     1      -0.006   1.203   0.239  0.00  0.00    +0.033 C 
ATOM      8  C   UNL     1      -0.414  -0.237  -0.080  0.00  0.00    +0.104 C 
BRANCH   8   9
ATOM      9  C   UNL     1      -0.044  -1.132   1.074  0.00  0.00    -0.027 A 
ATOM     10  C   UNL     1      -1.035  -1.769   1.798  0.00  0.00    +0.007 A 
ATOM     11  C   UNL     1      -0.699  -2.591   2.856  0.00  0.00    +0.028 A 
ATOM     12  C   UNL     1       0.636  -2.777   3.192  0.00  0.00    +0.067 A 
ATOM     13  C   UNL     1       1.628  -2.136   2.463  0.00  0.00    +0.028 A 
ATOM     14  C   UNL     1       1.286  -1.320   1.403  0.00  0.00    +0.007 A 
BRANCH  12  15
ATOM     15  N   UNL     1       0.980  -3.610   4.266  0.00  0.00    -0.220 N 
ATOM     16  C   UNL     1       2.222  -3.882   4.711  0.00  0.00    +0.225 A 
ATOM     17  N   UNL     1       2.118  -4.699   5.728  0.00  0.00    -0.222 NA
ATOM     18  C   UNL     1       0.835  -4.971   5.960  0.00  0.00    +0.245 A 
ATOM     19  N   UNL     1       0.099  -4.322   5.095  0.00  0.00    -0.154 NA
ENDBRANCH  12  15
ENDBRANCH   8   9
ENDBRANCH   1   8
BRANCH   5  20
ATOM     20  C   UNL     1      -0.542  -2.149  -4.559  0.00  0.00    +0.090 C 
BRANCH  20  21
ATOM     21  C   UNL     1       0.404  -2.430  -5.729  0.00  0.00    -0.051 C 
ATOM     22  C   UNL     1       0.975  -1.110  -6.251  0.00  0.00    -0.014 C 
ATOM     23  C   UNL     1       1.921  -1.396  -7.421  0.00  0.00    -0.003 C 
ATOM     24  C   UNL     1       3.017  -2.358  -6.955  0.00  0.00    -0.019 C 
ATOM     25  C   UNL     1       2.370  -3.632  -6.407  0.00  0.00    -0.078 C 
ATOM     26  N   UNL     1       1.500  -3.294  -5.274  0.00  0.00    +0.385 N 
ATOM     27  H   UNL     1       2.037  -2.812  -4.570  0.00  0.00    -0.081 HD
BRANCH  26  28
ATOM     28  C   UNL     1       0.943  -4.528  -4.702  0.00  0.00    -0.043 C 
BRANCH  28  29
ATOM     29  C   UNL     1       2.056  -5.354  -4.110  0.00  0.00    -0.064 A 
ATOM     30  C   UNL     1       2.718  -6.283  -4.891  0.00  0.00    +0.002 A 
ATOM     31  C   UNL     1       3.739  -7.040  -4.348  0.00  0.00    +0.000 A 
ATOM     32  C   UNL     1       4.098  -6.869  -3.024  0.00  0.00    +0.000 A 
ATOM     33  C   UNL     1       3.437  -5.939  -2.244  0.00  0.00    +0.000 A 
ATOM     34  C   UNL     1       2.419  -5.178  -2.788  0.00  0.00    +0.002 A 
ENDBRANCH  28  29
ENDBRANCH  26  28
ENDBRANCH  20  21
ENDBRANCH   5  20
TORSDOF 7
