REMARK  Name = ZINC35593167
REMARK  8 active torsions:
REMARK  status: ('A' for Active; 'I' for Inactive)
REMARK    1  A    between atoms: C_1  and  C_2
REMARK    2  A    between atoms: C_2  and  C_3
REMARK    3  A    between atoms: C_3  and  N_4
REMARK    4  A    between atoms: C_5  and  C_7
REMARK    5  A    between atoms: C_7  and  N_8
REMARK    6  A    between atoms: C_11  and  C_21
REMARK    7  A    between atoms: N_13  and  C_14
REMARK    8  A    between atoms: C_27  and  C_33
REMARK                            x       y       z     vdW  Elec       q    Type
REMARK                         _______ _______ _______ _____ _____    ______ ____
ROOT
ATOM      1  N   UNL     1      -3.514  -4.855   0.107  0.00  0.00    -0.246 N 
ATOM      2  C   UNL     1      -4.476  -5.030   1.113  0.00  0.00    +0.137 A 
ATOM      3  C   UNL     1      -4.944  -6.235   1.504  0.00  0.00    +0.038 A 
ATOM      4  C   UNL     1      -5.894  -6.021   2.517  0.00  0.00    +0.100 A 
ATOM      5  N   UNL     1      -5.981  -4.721   2.724  0.00  0.00    -0.164 NA
ATOM      6  N   UNL     1      -5.093  -4.074   1.850  0.00  0.00    -0.217 N 
ATOM      7  C   UNL     1      -4.498  -7.558   0.935  0.00  0.00    +0.119 C 
ATOM      8  S   UNL     1      -5.213  -7.744  -0.738  0.00  0.00    -0.138 S 
ATOM      9  C   UNL     1      -5.021  -6.062  -1.418  0.00  0.00    +0.166 C 
ATOM     10  C   UNL     1      -3.685  -5.489  -1.057  0.00  0.00    +0.231 C 
ATOM     11  O   UNL     1      -2.753  -5.607  -1.824  0.00  0.00    -0.274 OA
ENDROOT
BRANCH   6  12
ATOM     12  C   UNL     1      -4.883  -2.692   1.757  0.00  0.00    +0.068 A 
ATOM     13  C   UNL     1      -4.782  -2.086   0.512  0.00  0.00    +0.030 A 
ATOM     14  C   UNL     1      -4.574  -0.724   0.423  0.00  0.00    +0.040 A 
ATOM     15  C   UNL     1      -4.466   0.038   1.574  0.00  0.00    +0.124 A 
ATOM     16  C   UNL     1      -4.566  -0.564   2.817  0.00  0.00    +0.040 A 
ATOM     17  C   UNL     1      -4.780  -1.925   2.911  0.00  0.00    +0.030 A 
ATOM     18  F   UNL     1      -4.263   1.371   1.484  0.00  0.00    -0.205 F 
ENDBRANCH   6  12
BRANCH   4  19
ATOM     19  C   UNL     1      -6.663  -7.072   3.229  0.00  0.00    +0.002 A 
ATOM     20  C   UNL     1      -6.630  -7.141   4.620  0.00  0.00    +0.010 A 
ATOM     21  C   UNL     1      -7.348  -8.120   5.277  0.00  0.00    +0.001 A 
ATOM     22  C   UNL     1      -8.098  -9.032   4.556  0.00  0.00    +0.000 A 
ATOM     23  C   UNL     1      -8.134  -8.968   3.175  0.00  0.00    +0.001 A 
ATOM     24  C   UNL     1      -7.425  -7.990   2.508  0.00  0.00    +0.010 A 
ENDBRANCH   4  19
BRANCH   7  25
ATOM     25  C   UNL     1      -4.978  -8.678   1.822  0.00  0.00    +0.007 A 
ATOM     26  C   UNL     1      -4.709  -8.905   3.131  0.00  0.00    +0.012 A 
ATOM     27  C   UNL     1      -5.267 -10.009   3.748  0.00  0.00    +0.008 A 
ATOM     28  C   UNL     1      -6.066 -10.832   3.026  0.00  0.00    +0.045 A 
ATOM     29  S   UNL     1      -6.055 -10.045   1.423  0.00  0.00    -0.100 S 
ENDBRANCH   7  25
BRANCH   1  30
ATOM     30  C   UNL     1      -2.351  -3.991   0.325  0.00  0.00    +0.210 C 
BRANCH  30  32
ATOM     31  N   UNL     1      -0.120  -4.168   1.380  0.00  0.00    -0.314 N 
ATOM     32  C   UNL     1      -1.253  -4.784   0.986  0.00  0.00    +0.231 C 
ATOM     33  O   UNL     1      -1.388  -5.976   1.163  0.00  0.00    -0.274 OA
ATOM     34  H   UNL     1      -0.040  -3.205   1.302  0.00  0.00    +0.149 HD
BRANCH  31  35
ATOM     35  C   UNL     1       0.989  -4.954   1.926  0.00  0.00    +0.104 C 
BRANCH  35  37
ATOM     36  C   UNL     1       3.346  -4.859   2.747  0.00  0.00    +0.005 C 
ATOM     37  C   UNL     1       2.188  -4.038   2.177  0.00  0.00    +0.015 C 
ENDBRANCH  35  37
ENDBRANCH  31  35
ENDBRANCH  30  32
ENDBRANCH   1  30
TORSDOF 7
