REMARK  Name = ZINC39657988
REMARK  5 active torsions:
REMARK  status: ('A' for Active; 'I' for Inactive)
REMARK    1  A    between atoms: C_6  and  C_7
REMARK    2  A    between atoms: C_7  and  C_8
REMARK    3  A    between atoms: C_12  and  C_21
REMARK    4  A    between atoms: N_23  and  C_24
REMARK    5  A    between atoms: C_27  and  C_30
REMARK                            x       y       z     vdW  Elec       q    Type
REMARK                         _______ _______ _______ _____ _____    ______ ____
ROOT
ATOM      1  C   UNL     1      -1.707  -1.141  -1.114  0.00  0.00    +0.220 C 
ATOM      2  O   UNL     1      -0.959  -0.726  -1.973  0.00  0.00    -0.275 OA
ATOM      3  N   UNL     1      -2.848  -1.769  -1.460  0.00  0.00    -0.300 N 
ATOM      4  C   UNL     1      -3.882  -2.334  -0.562  0.00  0.00    +0.121 C 
ATOM      5  C   UNL     1      -5.224  -1.993  -1.248  0.00  0.00    +0.100 C 
ATOM      6  C   UNL     1      -4.869  -1.811  -2.734  0.00  0.00    -0.004 C 
ATOM      7  C   UNL     1      -3.354  -2.046  -2.826  0.00  0.00    +0.115 C 
ATOM      8  C   UNL     1      -5.616  -2.834  -3.584  0.00  0.00    -0.010 C 
ATOM      9  C   UNL     1      -5.292  -2.596  -5.062  0.00  0.00    -0.082 C 
ATOM     10  N   UNL     1      -5.689  -1.234  -5.439  0.00  0.00    +0.379 N 
ATOM     11  C   UNL     1      -4.899  -0.255  -4.681  0.00  0.00    -0.082 C 
ATOM     12  C   UNL     1      -5.206  -0.394  -3.188  0.00  0.00    -0.010 C 
ATOM     13  H   UNL     1      -5.531  -1.099  -6.426  0.00  0.00    -0.086 HD
ATOM     14  H   UNL     1      -6.669  -1.102  -5.236  0.00  0.00    -0.086 HD
ENDROOT
BRANCH   5  15
ATOM     15  C   UNL     1      -5.794  -0.718  -0.683  0.00  0.00    +0.218 C 
ATOM     16  O   UNL     1      -5.052   0.144  -0.263  0.00  0.00    -0.275 OA
ATOM     17  N   UNL     1      -7.129  -0.536  -0.643  0.00  0.00    -0.312 N 
ATOM     18  H   UNL     1      -7.723  -1.226  -0.979  0.00  0.00    +0.149 HD
BRANCH  17  19
ATOM     19  C   UNL     1      -7.684   0.703  -0.093  0.00  0.00    +0.073 C 
ATOM     20  C   UNL     1      -7.803   0.578   1.427  0.00  0.00    +0.023 C 
ATOM     21  C   UNL     1      -8.382   1.873   2.001  0.00  0.00    +0.016 C 
ATOM     22  C   UNL     1      -9.766   2.123   1.400  0.00  0.00    +0.102 C 
ATOM     23  C   UNL     1      -9.647   2.248  -0.120  0.00  0.00    +0.016 C 
ATOM     24  C   UNL     1      -9.068   0.954  -0.695  0.00  0.00    +0.023 C 
BRANCH  22  25
ATOM     25  C   UNL     1     -10.337   3.398   1.966  0.00  0.00    +0.359 C 
ATOM     26  O   UNL     1     -11.102   4.073   1.298  0.00  0.00    -0.246 OA
ATOM     27  O   UNL     1     -10.033   3.755   3.091  0.00  0.00    -0.246 OA
ENDBRANCH  22  25
ENDBRANCH  17  19
ENDBRANCH   5  15
BRANCH   1  28
ATOM     28  C   UNL     1      -1.362  -0.953   0.341  0.00  0.00    +0.131 C 
BRANCH  28  34
ATOM     29  C   UNL     1      -0.021   1.154   0.510  0.00  0.00    +0.005 A 
ATOM     30  C   UNL     1       1.185   1.820   0.615  0.00  0.00    +0.020 A 
ATOM     31  C   UNL     1       2.368   1.105   0.666  0.00  0.00    +0.041 A 
ATOM     32  C   UNL     1       2.342  -0.278   0.612  0.00  0.00    +0.020 A 
ATOM     33  C   UNL     1       1.135  -0.943   0.507  0.00  0.00    +0.005 A 
ATOM     34  C   UNL     1      -0.046  -0.227   0.456  0.00  0.00    -0.039 A 
ATOM     35 CL   UNL     1       3.884   1.940   0.798  0.00  0.00    -0.084 Cl
ENDBRANCH  28  34
ENDBRANCH   1  28
TORSDOF 5
