REMARK  Name = ZINC09558652
REMARK  8 active torsions:
REMARK  status: ('A' for Active; 'I' for Inactive)
REMARK    1  A    between atoms: C_1  and  C_2
REMARK    2  A    between atoms: C_5  and  C_34
REMARK    3  A    between atoms: C_6  and  N_8
REMARK    4  A    between atoms: C_21  and  S_22
REMARK    5  A    between atoms: S_22  and  C_23
REMARK    6  A    between atoms: C_23  and  C_24
REMARK    7  A    between atoms: N_26  and  C_27
REMARK    8  A    between atoms: C_28  and  C_32
REMARK                            x       y       z     vdW  Elec       q    Type
REMARK                         _______ _______ _______ _____ _____    ______ ____
ROOT
ATOM      1  N   UNL     1       2.904 -10.219  -0.083  0.00  0.00    -0.245 N 
ATOM      2  C   UNL     1       1.711 -10.849  -0.061  0.00  0.00    +0.268 A 
ATOM      3  O   UNL     1       1.654 -12.064  -0.063  0.00  0.00    -0.267 OA
ATOM      4  C   UNL     1       0.478 -10.041  -0.042  0.00  0.00    +0.064 A 
ATOM      5  C   UNL     1      -0.780 -10.641  -0.026  0.00  0.00    +0.015 A 
ATOM      6  C   UNL     1      -1.911  -9.853  -0.008  0.00  0.00    +0.001 A 
ATOM      7  C   UNL     1      -1.802  -8.471  -0.006  0.00  0.00    +0.002 A 
ATOM      8  C   UNL     1      -0.561  -7.864  -0.022  0.00  0.00    +0.027 A 
ATOM      9  C   UNL     1       0.587  -8.641  -0.040  0.00  0.00    +0.064 A 
ATOM     10  N   UNL     1       1.849  -8.061  -0.057  0.00  0.00    -0.255 N 
ATOM     11  C   UNL     1       2.980  -8.835  -0.077  0.00  0.00    +0.245 A 
ATOM     12  N   UNL     1       4.003  -8.014  -0.082  0.00  0.00    -0.109 NA
ATOM     13  N   UNL     1       3.593  -6.796  -0.071  0.00  0.00    -0.120 NA
ATOM     14  C   UNL     1       2.282  -6.762  -0.059  0.00  0.00    +0.198 A 
ENDROOT
BRANCH   1  20
ATOM     15  C   UNL     1       6.492 -12.517   2.371  0.00  0.00    +0.044 C 
ATOM     16  C   UNL     1       5.843 -12.102   1.076  0.00  0.00    -0.048 A 
ATOM     17  C   UNL     1       6.412 -12.468  -0.130  0.00  0.00    +0.004 A 
ATOM     18  C   UNL     1       5.819 -12.089  -1.321  0.00  0.00    +0.005 A 
ATOM     19  C   UNL     1       4.653 -11.348  -1.309  0.00  0.00    -0.026 A 
ATOM     20  C   UNL     1       4.083 -10.975  -0.099  0.00  0.00    +0.056 A 
ATOM     21  C   UNL     1       4.681 -11.357   1.095  0.00  0.00    +0.030 A 
ATOM     22  C   UNL     1       4.005 -10.942  -2.607  0.00  0.00    +0.046 C 
ENDBRANCH   1  20
BRANCH  14  23
ATOM     23  S   UNL     1       1.270  -5.320  -0.041  0.00  0.00    -0.076 S 
BRANCH  23  24
ATOM     24  C   UNL     1       2.459  -3.950  -0.044  0.00  0.00    +0.173 C 
BRANCH  24  25
ATOM     25  C   UNL     1       1.715  -2.639  -0.029  0.00  0.00    +0.228 C 
ATOM     26  O   UNL     1       0.503  -2.630  -0.018  0.00  0.00    -0.275 OA
ATOM     27  N   UNL     1       2.398  -1.477  -0.029  0.00  0.00    -0.278 N 
ATOM     28  H   UNL     1       3.368  -1.484  -0.039  0.00  0.00    +0.155 HD
BRANCH  27  29
ATOM     29  C   UNL     1       1.713  -0.270  -0.016  0.00  0.00    +0.089 A 
ATOM     30  C   UNL     1       2.234   1.018  -0.014  0.00  0.00    +0.080 A 
ATOM     31  C   UNL     1       1.284   2.103   0.001  0.00  0.00    +0.028 A 
ATOM     32  C   UNL     1      -0.022   1.777   0.012  0.00  0.00    +0.048 A 
ATOM     33  S   UNL     1       0.002  -0.004   0.002  0.00  0.00    -0.081 S 
BRANCH  30  34
ATOM     34  C   UNL     1       3.646   1.256  -0.026  0.00  0.00    +0.102 C 
ATOM     35  N   UNL     1       4.766   1.446  -0.036  0.00  0.00    -0.191 NA
ENDBRANCH  30  34
ENDBRANCH  27  29
ENDBRANCH  24  25
ENDBRANCH  23  24
ENDBRANCH  14  23
TORSDOF 6
