REMARK  Name = ZINC00081782
REMARK  6 active torsions:
REMARK  status: ('A' for Active; 'I' for Inactive)
REMARK    1  A    between atoms: C_1  and  C_2
REMARK    2  A    between atoms: C_9  and  N_24
REMARK    3  A    between atoms: C_10  and  C_22
REMARK    4  A    between atoms: C_11  and  C_13
REMARK    5  A    between atoms: C_13  and  C_21
REMARK    6  A    between atoms: C_14  and  C_15
REMARK                            x       y       z     vdW  Elec       q    Type
REMARK                         _______ _______ _______ _____ _____    ______ ____
ROOT
ATOM      1  C   UNL     1       1.847  -4.862   2.691  0.00  0.00    +0.068 C 
ATOM      2  C   UNL     1       3.069  -5.256   1.901  0.00  0.00    +0.068 A 
ATOM      3  C   UNL     1       3.289  -4.995   0.556  0.00  0.00    +0.049 A 
ATOM      4  C   UNL     1       4.508  -5.513   0.217  0.00  0.00    +0.222 A 
ATOM      5  N   UNL     1       5.029  -6.077   1.319  0.00  0.00    -0.246 N 
ATOM      6  H   UNL     1       5.914  -6.538   1.382  0.00  0.00    +0.192 HD
ATOM      7  N   UNL     1       4.109  -5.906   2.366  0.00  0.00    -0.176 NA
ATOM      8  O   UNL     1       5.019  -5.424  -1.036  0.00  0.00    -0.423 OA
ATOM      9  C   UNL     1       4.183  -5.051  -2.026  0.00  0.00    +0.200 C 
ATOM     10  C   UNL     1       2.960  -4.517  -1.817  0.00  0.00    +0.098 C 
ATOM     11  C   UNL     1       2.407  -4.278  -0.434  0.00  0.00    +0.097 C 
ENDROOT
BRANCH  11  12
ATOM     12  C   UNL     1       2.404  -2.801  -0.136  0.00  0.00    -0.059 C 
ATOM     13  C   UNL     1       1.263  -2.182   0.135  0.00  0.00    +0.008 C 
ATOM     14  C   UNL     1       3.697  -2.028  -0.144  0.00  0.00    +0.040 C 
BRANCH  13  15
ATOM     15  C   UNL     1       1.275  -0.772   0.580  0.00  0.00    -0.025 A 
ATOM     16  C   UNL     1       0.275   0.104   0.156  0.00  0.00    +0.008 A 
ATOM     17  C   UNL     1       0.291   1.419   0.576  0.00  0.00    +0.001 A 
ATOM     18  C   UNL     1       1.296   1.868   1.414  0.00  0.00    +0.000 A 
ATOM     19  C   UNL     1       2.290   1.004   1.837  0.00  0.00    +0.001 A 
ATOM     20  C   UNL     1       2.285  -0.313   1.425  0.00  0.00    +0.008 A 
ENDBRANCH  13  15
ENDBRANCH  11  12
BRANCH   9  21
ATOM     21  N   UNL     1       4.599  -5.225  -3.323  0.00  0.00    -0.328 N 
ATOM     22  H   UNL     1       4.021  -4.966  -4.057  0.00  0.00    +0.145 HD
ATOM     23  H   UNL     1       5.473  -5.607  -3.505  0.00  0.00    +0.145 HD
ENDBRANCH   9  21
BRANCH  10  24
ATOM     24  C   UNL     1       2.159  -4.164  -2.950  0.00  0.00    +0.101 C 
ATOM     25  N   UNL     1       1.523  -3.884  -3.849  0.00  0.00    -0.191 NA
ENDBRANCH  10  24
TORSDOF 4
