REMARK  Name = ZINC13564209
REMARK  5 active torsions:
REMARK  status: ('A' for Active; 'I' for Inactive)
REMARK    1  A    between atoms: C_4  and  O_10
REMARK    2  A    between atoms: C_5  and  N_7
REMARK    3  A    between atoms: O_10  and  C_11
REMARK    4  A    between atoms: C_11  and  C_12
REMARK    5  A    between atoms: N_14  and  N_15
REMARK                            x       y       z     vdW  Elec       q    Type
REMARK                         _______ _______ _______ _____ _____    ______ ____
ROOT
ATOM      1  C   UNL     1       5.981  -0.737  -0.062  0.00  0.00    +0.270 C 
ATOM      2  O   UNL     1       5.839  -1.941  -0.067  0.00  0.00    -0.270 OA
ATOM      3  N   UNL     1       7.218  -0.204  -0.072  0.00  0.00    -0.203 N 
ATOM      4  H   UNL     1       7.332   0.760  -0.068  0.00  0.00    +0.177 HD
ENDROOT
BRANCH   3   5
ATOM      5  N   UNL     1       8.342  -1.041  -0.088  0.00  0.00    -0.174 NA
ATOM      6  C   UNL     1       9.546  -0.522  -0.098  0.00  0.00    +0.153 C 
ATOM      7  C   UNL     1      10.839  -1.244  -0.121  0.00  0.00    +0.030 A 
ATOM      8  C   UNL     1      11.175  -2.594  -0.138  0.00  0.00    +0.027 A 
ATOM      9  C   UNL     1      12.505  -2.968  -0.159  0.00  0.00    +0.020 A 
ATOM     10  C   UNL     1      13.498  -2.002  -0.162  0.00  0.00    +0.032 A 
ATOM     11  C   UNL     1      13.173  -0.660  -0.144  0.00  0.00    +0.041 A 
ATOM     12  C   UNL     1      11.839  -0.264  -0.124  0.00  0.00    +0.057 A 
ATOM     13  N   UNL     1      11.249   0.996  -0.105  0.00  0.00    -0.279 N 
ATOM     14  C   UNL     1       9.908   0.910  -0.095  0.00  0.00    +0.269 C 
ATOM     15  O   UNL     1       9.130   1.846  -0.081  0.00  0.00    -0.268 OA
ATOM     16 BR   UNL     1      14.544   0.643  -0.147  0.00  0.00    -0.048 Br
ATOM     17 BR   UNL     1      12.970  -4.801  -0.182  0.00  0.00    -0.050 Br
ATOM     18  H   UNL     1      11.743   1.830  -0.103  0.00  0.00    +0.155 HD
ENDBRANCH   3   5
BRANCH   1  19
ATOM     19  C   UNL     1       4.772   0.164  -0.045  0.00  0.00    +0.326 C 
BRANCH  19  20
ATOM     20  O   UNL     1       3.586  -0.632  -0.037  0.00  0.00    -0.480 OA
BRANCH  20  24
ATOM     21  C   UNL     1      -0.017   1.378   0.010  0.00  0.00    +0.002 A 
ATOM     22  C   UNL     1       1.170   2.088   0.002  0.00  0.00    +0.004 A 
ATOM     23  C   UNL     1       2.377   1.417  -0.013  0.00  0.00    +0.048 A 
ATOM     24  C   UNL     1       2.399   0.030  -0.021  0.00  0.00    +0.151 A 
ATOM     25  C   UNL     1       1.207  -0.680  -0.013  0.00  0.00    +0.168 A 
ATOM     26  C   UNL     1       0.002  -0.004   0.002  0.00  0.00    +0.036 A 
BRANCH  25  27
ATOM     27  N   UNL     1       1.226  -2.160  -0.022  0.00  0.00    +0.060 N 
ATOM     28  O   UNL     1       0.188  -2.778  -0.015  0.00  0.00    -0.126 OA
ATOM     29  O   UNL     1       2.281  -2.750  -0.036  0.00  0.00    -0.126 OA
ENDBRANCH  25  27
ENDBRANCH  20  24
ENDBRANCH  19  20
ENDBRANCH   1  19
TORSDOF 5
