REMARK  Name = ZINC00708935
REMARK  7 active torsions:
REMARK  status: ('A' for Active; 'I' for Inactive)
REMARK    1  A    between atoms: C_1  and  C_2
REMARK    2  A    between atoms: C_2  and  C_30
REMARK    3  A    between atoms: C_8  and  C_19
REMARK    4  A    between atoms: C_16  and  C_17
REMARK    5  A    between atoms: C_16  and  C_18
REMARK    6  A    between atoms: C_19  and  S_20
REMARK    7  A    between atoms: S_20  and  C_21
REMARK                            x       y       z     vdW  Elec       q    Type
REMARK                         _______ _______ _______ _____ _____    ______ ____
ROOT
ATOM      1  C   UNL     1      -5.453  10.303  -6.258  0.00  0.00    -0.010 C 
ATOM      2  C   UNL     1      -5.945  11.344  -5.159  0.00  0.00    -0.069 C 
ATOM      3  C   UNL     1      -5.141  11.071  -3.866  0.00  0.00    +0.024 C 
ATOM      4  C   UNL     1      -5.405  12.151  -2.801  0.00  0.00    -0.027 A 
ATOM      5  C   UNL     1      -5.323  11.944  -1.371  0.00  0.00    +0.055 A 
ATOM      6  C   UNL     1      -4.904  10.770  -0.613  0.00  0.00    +0.168 A 
ATOM      7  N   UNL     1      -4.499   9.533  -1.059  0.00  0.00    -0.210 NA
ATOM      8  C   UNL     1      -4.205   8.857   0.094  0.00  0.00    +0.162 A 
ATOM      9  N   UNL     1      -4.370   9.592   1.147  0.00  0.00    -0.148 NA
ATOM     10  N   UNL     1      -4.851  10.837   0.731  0.00  0.00    -0.201 N 
ATOM     11  C   UNL     1      -5.212  11.904   1.314  0.00  0.00    +0.226 A 
ATOM     12  N   UNL     1      -5.672  12.963   0.758  0.00  0.00    -0.228 NA
ATOM     13  C   UNL     1      -5.699  13.027  -0.622  0.00  0.00    +0.114 A 
ATOM     14  S   UNL     1      -6.197  14.252  -1.748  0.00  0.00    -0.075 S 
ATOM     15  C   UNL     1      -5.889  13.300  -3.270  0.00  0.00    -0.016 A 
ATOM     16  C   UNL     1      -6.084  13.759  -4.666  0.00  0.00    -0.041 C 
ATOM     17  C   UNL     1      -5.016  14.908  -4.945  0.00  0.00    -0.005 C 
ATOM     18  C   UNL     1      -7.442  14.288  -4.912  0.00  0.00    -0.005 C 
ATOM     19  C   UNL     1      -7.449  10.984  -4.831  0.00  0.00    -0.010 C 
ATOM     20  N   UNL     1      -5.741  12.706  -5.641  0.00  0.00    +0.389 N 
ATOM     21  H   UNL     1      -6.323  12.841  -6.476  0.00  0.00    -0.084 HD
ATOM     22  H   UNL     1      -4.752  12.812  -5.892  0.00  0.00    -0.084 HD
ENDROOT
BRANCH   8  23
ATOM     23  C   UNL     1      -3.593   7.406   0.080  0.00  0.00    +0.154 C 
BRANCH  23  24
ATOM     24  S   UNL     1      -1.786   7.513   0.062  0.00  0.00    -0.091 S 
BRANCH  24  25
ATOM     25  C   UNL     1      -1.378   5.799   0.048  0.00  0.00    +0.136 A 
ATOM     26  N   UNL     1      -0.191   5.235   0.033  0.00  0.00    -0.233 NA
ATOM     27  C   UNL     1      -0.027   3.894   0.023  0.00  0.00    +0.079 A 
ATOM     28  C   UNL     1       1.184   3.163   0.007  0.00  0.00    +0.029 A 
ATOM     29  C   UNL     1       1.175   1.793   0.001  0.00  0.00    +0.002 A 
ATOM     30  C   UNL     1      -0.013   1.076   0.008  0.00  0.00    +0.001 A 
ATOM     31  C   UNL     1      -1.216   1.758   0.017  0.00  0.00    +0.017 A 
ATOM     32  C   UNL     1      -1.216   3.130   0.031  0.00  0.00    +0.040 A 
ATOM     33  S   UNL     1      -2.473   4.386   0.051  0.00  0.00    -0.061 S 
ENDBRANCH  24  25
ENDBRANCH  23  24
ENDBRANCH   8  23
TORSDOF 3
