REMARK  Name = ZINC07389750
REMARK  9 active torsions:
REMARK  status: ('A' for Active; 'I' for Inactive)
REMARK    1  A    between atoms: C_1  and  C_2
REMARK    2  A    between atoms: C_2  and  C_4
REMARK    3  A    between atoms: C_2  and  N_17
REMARK    4  A    between atoms: N_6  and  C_7
REMARK    5  A    between atoms: C_10  and  S_13
REMARK    6  A    between atoms: S_13  and  N_16
REMARK    7  A    between atoms: N_17  and  C_18
REMARK    8  A    between atoms: C_21  and  O_25
REMARK    9  A    between atoms: O_25  and  C_26
REMARK                            x       y       z     vdW  Elec       q    Type
REMARK                         _______ _______ _______ _____ _____    ______ ____
ROOT
ATOM      1  C   UNL     1       2.152   5.675  -0.444  0.00  0.00    +0.237 C 
ATOM      2  O   UNL     1       1.028   6.060  -0.684  0.00  0.00    -0.273 OA
ATOM      3  N   UNL     1       3.207   6.473  -0.700  0.00  0.00    -0.284 N 
ATOM      4  H   UNL     1       4.099   6.196  -0.438  0.00  0.00    +0.155 HD
ENDROOT
BRANCH   3   5
ATOM      5  C   UNL     1       3.016   7.701  -1.343  0.00  0.00    +0.034 A 
ATOM      6  C   UNL     1       2.016   7.838  -2.297  0.00  0.00    +0.025 A 
ATOM      7  C   UNL     1       1.826   9.053  -2.925  0.00  0.00    +0.030 A 
ATOM      8  C   UNL     1       2.638  10.129  -2.615  0.00  0.00    +0.105 A 
ATOM      9  C   UNL     1       3.638   9.993  -1.670  0.00  0.00    +0.030 A 
ATOM     10  C   UNL     1       3.830   8.783  -1.033  0.00  0.00    +0.025 A 
BRANCH   8  11
ATOM     11  S   UNL     1       2.397  11.675  -3.425  0.00  0.00    +0.056 S 
ATOM     12  O   UNL     1       1.047  11.694  -3.868  0.00  0.00    -0.153 OA
ATOM     13  O   UNL     1       2.930  12.671  -2.564  0.00  0.00    -0.153 OA
BRANCH  11  14
ATOM     14  N   UNL     1       3.342  11.668  -4.784  0.00  0.00    -0.204 NA
ATOM     15  H   UNL     1       3.888  10.893  -4.992  0.00  0.00    +0.144 HD
ATOM     16  H   UNL     1       3.350  12.439  -5.373  0.00  0.00    +0.144 HD
ENDBRANCH  11  14
ENDBRANCH   8  11
ENDBRANCH   3   5
BRANCH   1  18
ATOM     17  C   UNL     1       3.073   4.430   1.493  0.00  0.00    +0.038 C 
ATOM     18  C   UNL     1       2.369   4.303   0.141  0.00  0.00    +0.154 C 
BRANCH  18  19
ATOM     19  N   UNL     1       1.076   3.639   0.324  0.00  0.00    -0.333 N 
ATOM     20  H   UNL     1       0.270   4.169   0.432  0.00  0.00    +0.147 HD
BRANCH  19  21
ATOM     21  C   UNL     1       1.002   2.242   0.342  0.00  0.00    +0.029 A 
ATOM     22  C   UNL     1      -0.224   1.613   0.516  0.00  0.00    +0.026 A 
ATOM     23  C   UNL     1      -0.296   0.234   0.534  0.00  0.00    +0.049 A 
ATOM     24  C   UNL     1       0.856  -0.523   0.378  0.00  0.00    +0.138 A 
ATOM     25  C   UNL     1       2.081   0.104   0.205  0.00  0.00    +0.084 A 
ATOM     26  C   UNL     1       2.155   1.484   0.187  0.00  0.00    +0.046 A 
ATOM     27 CL   UNL     1       3.522  -0.845   0.009  0.00  0.00    -0.080 Cl
BRANCH  24  28
ATOM     28  O   UNL     1       0.783  -1.882   0.396  0.00  0.00    -0.494 OA
ATOM     29  C   UNL     1      -0.510  -2.460   0.579  0.00  0.00    +0.277 C 
ENDBRANCH  24  28
ENDBRANCH  19  21
ENDBRANCH  18  19
ENDBRANCH   1  18
TORSDOF 7
