REMARK  Name = ZINC15523031
REMARK  14 active torsions:
REMARK  status: ('A' for Active; 'I' for Inactive)
REMARK    1  A    between atoms: C_1  and  C_2
REMARK    2  A    between atoms: C_5  and  C_7
REMARK    3  A    between atoms: C_7  and  N_66
REMARK    4  A    between atoms: C_8  and  C_9
REMARK    5  A    between atoms: C_8  and  N_66
REMARK    6  A    between atoms: C_9  and  C_10
REMARK    7  A    between atoms: C_16  and  C_17
REMARK    8  A    between atoms: C_16  and  N_66
REMARK    9  A    between atoms: N_19  and  C_20
REMARK   10  A    between atoms: C_20  and  C_21
REMARK   11  A    between atoms: N_23  and  C_24
REMARK   12  A    between atoms: C_25  and  C_32
REMARK   13  A    between atoms: C_27  and  C_31
REMARK   14  A    between atoms: C_29  and  C_30
REMARK                            x       y       z     vdW  Elec       q    Type
REMARK                         _______ _______ _______ _____ _____    ______ ____
ROOT
ATOM      1  C   UNL     1       3.229  -3.672  -3.652  0.00  0.00    +0.019 C 
ENDROOT
BRANCH   1   2
ATOM      2  C   UNL     1       4.073  -4.052  -2.462  0.00  0.00    +0.197 C 
ATOM      3  O   UNL     1       4.476  -3.194  -1.706  0.00  0.00    -0.278 OA
ATOM      4  N   UNL     1       4.380  -5.345  -2.239  0.00  0.00    -0.308 N 
ATOM      5  H   UNL     1       4.058  -6.032  -2.844  0.00  0.00    +0.149 HD
BRANCH   4   6
ATOM      6  C   UNL     1       5.201  -5.714  -1.083  0.00  0.00    +0.200 C 
BRANCH   6   7
ATOM      7  C   UNL     1       5.397  -7.208  -1.063  0.00  0.00    +0.234 C 
ATOM      8  O   UNL     1       4.901  -7.897  -1.929  0.00  0.00    -0.274 OA
ATOM      9  N   UNL     1       6.125  -7.779  -0.082  0.00  0.00    -0.284 N 
ATOM     10  H   UNL     1       6.580  -7.223   0.570  0.00  0.00    +0.155 HD
BRANCH   9  11
ATOM     11  C   UNL     1       6.223  -9.172  -0.005  0.00  0.00    +0.039 A 
ATOM     12  C   UNL     1       5.075  -9.953  -0.015  0.00  0.00    -0.029 A 
ATOM     13  C   UNL     1       5.176 -11.328   0.057  0.00  0.00    +0.008 A 
ATOM     14  C   UNL     1       6.418 -11.928   0.150  0.00  0.00    -0.050 A 
ATOM     15  C   UNL     1       7.564 -11.153   0.165  0.00  0.00    +0.008 A 
ATOM     16  C   UNL     1       7.470  -9.778   0.088  0.00  0.00    -0.029 A 
ATOM     17  C   UNL     1       8.718  -8.934   0.105  0.00  0.00    +0.045 C 
ATOM     18  C   UNL     1       6.524 -13.429   0.233  0.00  0.00    +0.044 C 
ATOM     19  C   UNL     1       3.720  -9.300  -0.110  0.00  0.00    +0.045 C 
ENDBRANCH   9  11
ENDBRANCH   6   7
ENDBRANCH   4   6
ENDBRANCH   1   2
BRANCH   1  20
ATOM     20  N   UNL     1       3.063  -2.204  -3.670  0.00  0.00    +0.389 N 
ATOM     21  H   UNL     1       3.988  -1.763  -3.600  0.00  0.00    -0.081 HD
BRANCH  20  22
ATOM     22  C   UNL     1       2.239  -1.774  -2.521  0.00  0.00    -0.035 C 
BRANCH  22  27
ATOM     23  C   UNL     1       3.603   3.596  -1.342  0.00  0.00    +0.051 C 
ATOM     24  C   UNL     1       3.037   2.272  -1.787  0.00  0.00    -0.013 A 
ATOM     25  C   UNL     1       1.939   2.023  -2.541  0.00  0.00    +0.011 A 
ATOM     26  C   UNL     1       1.606   0.713  -2.829  0.00  0.00    +0.009 A 
ATOM     27  C   UNL     1       2.388  -0.285  -2.348  0.00  0.00    -0.026 A 
ATOM     28  S   UNL     1       3.640   0.624  -1.458  0.00  0.00    -0.100 S 
ENDBRANCH  22  27
ENDBRANCH  20  22
BRANCH  20  29
ATOM     29  C   UNL     1       2.426  -1.783  -4.935  0.00  0.00    -0.073 C 
BRANCH  29  30
ATOM     30  C   UNL     1       3.451  -1.899  -6.065  0.00  0.00    +0.016 C 
BRANCH  30  31
ATOM     31  C   UNL     1       2.854  -1.367  -7.342  0.00  0.00    -0.049 A 
ATOM     32  C   UNL     1       2.172  -2.216  -8.193  0.00  0.00    +0.003 A 
ATOM     33  C   UNL     1       1.620  -1.727  -9.362  0.00  0.00    +0.000 A 
ATOM     34  C   UNL     1       1.759  -0.390  -9.685  0.00  0.00    +0.000 A 
ATOM     35  C   UNL     1       2.445   0.459  -8.837  0.00  0.00    +0.000 A 
ATOM     36  C   UNL     1       2.993  -0.030  -7.665  0.00  0.00    +0.003 A 
ENDBRANCH  30  31
ENDBRANCH  29  30
ENDBRANCH  20  29
ENDBRANCH   1  20
TORSDOF 10
