REMARK  Name = ZINC34715635
REMARK  11 active torsions:
REMARK  status: ('A' for Active; 'I' for Inactive)
REMARK    1  A    between atoms: C_1  and  C_2
REMARK    2  A    between atoms: C_3  and  C_35
REMARK    3  A    between atoms: C_4  and  C_26
REMARK    4  A    between atoms: C_10  and  C_11
REMARK    5  A    between atoms: C_14  and  N_16
REMARK    6  A    between atoms: N_19  and  C_22
REMARK    7  A    between atoms: C_29  and  C_32
REMARK    8  A    between atoms: C_32  and  C_33
REMARK    9  A    between atoms: C_32  and  C_34
REMARK   10  A    between atoms: C_35  and  O_37
REMARK   11  A    between atoms: O_37  and  C_38
REMARK                            x       y       z     vdW  Elec       q    Type
REMARK                         _______ _______ _______ _____ _____    ______ ____
ROOT
ATOM      1  C   UNL     1      -0.042   1.492  -0.262  0.00  0.00    +0.066 C 
ATOM      2  C   UNL     1      -0.009  -0.009  -0.131  0.00  0.00    +0.053 C 
ATOM      3  C   UNL     1      -1.164  -0.691   0.137  0.00  0.00    +0.085 C 
ATOM      4  C   UNL     1      -1.086  -2.196   0.260  0.00  0.00    +0.162 C 
ATOM      5  N   UNL     1       0.252  -2.822   0.079  0.00  0.00    -0.275 N 
ATOM      6  C   UNL     1       0.528  -4.133   0.148  0.00  0.00    +0.268 A 
ATOM      7  O   UNL     1      -0.340  -4.957   0.377  0.00  0.00    -0.266 OA
ATOM      8  C   UNL     1       1.877  -4.512  -0.058  0.00  0.00    +0.084 A 
ATOM      9  C   UNL     1       2.444  -5.769  -0.045  0.00  0.00    +0.067 C 
ATOM     10  S   UNL     1       2.646  -2.928  -0.338  0.00  0.00    -0.046 S 
ATOM     11  C   UNL     1       1.285  -1.957  -0.184  0.00  0.00    +0.178 A 
ATOM     12  N   UNL     1       1.138  -0.656  -0.281  0.00  0.00    -0.228 NA
ENDROOT
BRANCH   4  13
ATOM     13  C   UNL     1      -1.595  -2.576   1.627  0.00  0.00    -0.020 A 
ATOM     14  C   UNL     1      -0.770  -2.453   2.730  0.00  0.00    +0.006 A 
ATOM     15  C   UNL     1      -1.236  -2.802   3.983  0.00  0.00    +0.004 A 
ATOM     16  C   UNL     1      -2.527  -3.274   4.134  0.00  0.00    -0.045 A 
ATOM     17  C   UNL     1      -3.352  -3.396   3.031  0.00  0.00    +0.004 A 
ATOM     18  C   UNL     1      -2.887  -3.043   1.778  0.00  0.00    +0.006 A 
BRANCH  16  19
ATOM     19  C   UNL     1      -3.035  -3.655   5.501  0.00  0.00    +0.013 C 
ATOM     20  C   UNL     1      -4.250  -2.795   5.852  0.00  0.00    +0.012 C 
ATOM     21  C   UNL     1      -3.437  -5.131   5.502  0.00  0.00    +0.012 C 
ENDBRANCH  16  19
ENDBRANCH   4  13
BRANCH   9  22
ATOM     22  C   UNL     1       1.626  -6.908   0.058  0.00  0.00    +0.131 A 
ATOM     23  C   UNL     1       2.062  -8.219   0.158  0.00  0.00    +0.051 A 
ATOM     24  C   UNL     1       0.919  -9.017   0.238  0.00  0.00    +0.066 A 
ATOM     25  C   UNL     1      -0.161  -8.183   0.186  0.00  0.00    +0.189 A 
ATOM     26  O   UNL     1       0.274  -6.917   0.083  0.00  0.00    -0.442 OA
BRANCH  25  27
ATOM     27  N   UNL     1      -1.483  -8.576   0.236  0.00  0.00    -0.305 N 
ATOM     28  C   UNL     1      -1.845  -9.997   0.362  0.00  0.00    +0.089 C 
ATOM     29  C   UNL     1      -2.847 -10.142   1.512  0.00  0.00    -0.060 C 
ATOM     30  N   UNL     1      -3.986  -9.244   1.284  0.00  0.00    +0.380 N 
ATOM     31  C   UNL     1      -3.538  -7.847   1.325  0.00  0.00    -0.060 C 
ATOM     32  C   UNL     1      -2.570  -7.587   0.172  0.00  0.00    +0.089 C 
ATOM     33  C   UNL     1      -4.997  -9.463   2.327  0.00  0.00    -0.096 C 
ATOM     34  H   UNL     1      -4.391  -9.440   0.380  0.00  0.00    -0.082 HD
ENDBRANCH  25  27
ENDBRANCH   9  22
BRANCH   3  35
ATOM     35  C   UNL     1      -2.384  -0.015   0.293  0.00  0.00    +0.339 C 
ATOM     36  O   UNL     1      -2.425   1.199   0.191  0.00  0.00    -0.245 OA
BRANCH  35  37
ATOM     37  O   UNL     1      -3.512  -0.709   0.557  0.00  0.00    -0.465 OA
ATOM     38  C   UNL     1      -4.718   0.044   0.704  0.00  0.00    +0.280 C 
ENDBRANCH  35  37
ENDBRANCH   3  35
TORSDOF 6
