REMARK  Name = ZINC35892753
REMARK  5 active torsions:
REMARK  status: ('A' for Active; 'I' for Inactive)
REMARK    1  A    between atoms: C_1  and  C_2
REMARK    2  A    between atoms: C_2  and  C_3
REMARK    3  A    between atoms: C_3  and  C_4
REMARK    4  A    between atoms: C_4  and  C_5
REMARK    5  A    between atoms: N_21  and  C_24
REMARK                            x       y       z     vdW  Elec       q    Type
REMARK                         _______ _______ _______ _____ _____    ______ ____
ROOT
ATOM      1  C   UNL     1       1.444  -2.507  -2.506  0.00  0.00    +0.132 A 
ATOM      2  N   UNL     1       0.744  -2.720  -3.606  0.00  0.00    -0.217 NA
ATOM      3  C   UNL     1       1.306  -3.137  -4.729  0.00  0.00    +0.133 A 
ATOM      4  C   UNL     1       2.710  -3.364  -4.758  0.00  0.00    +0.051 A 
ATOM      5  C   UNL     1       3.541  -3.821  -5.873  0.00  0.00    -0.025 A 
ATOM      6  C   UNL     1       4.862  -3.956  -5.636  0.00  0.00    -0.004 A 
ATOM      7  S   UNL     1       5.077  -3.489  -3.939  0.00  0.00    -0.073 S 
ATOM      8  C   UNL     1       3.388  -3.114  -3.549  0.00  0.00    +0.114 A 
ATOM      9  N   UNL     1       2.749  -2.694  -2.474  0.00  0.00    -0.225 NA
ATOM     10  C   UNL     1       5.916  -4.405  -6.601  0.00  0.00    +0.043 C 
ATOM     11  C   UNL     1       5.224  -5.051  -7.809  0.00  0.00    +0.005 C 
ATOM     12  C   UNL     1       4.093  -4.130  -8.276  0.00  0.00    +0.005 C 
ATOM     13  C   UNL     1       2.960  -4.137  -7.249  0.00  0.00    +0.037 C 
ATOM     14  N   UNL     1       0.538  -3.349  -5.860  0.00  0.00    -0.312 N 
ATOM     15  C   UNL     1       0.027  -4.690  -6.176  0.00  0.00    +0.125 C 
ATOM     16  C   UNL     1      -1.497  -4.609  -6.335  0.00  0.00    +0.124 C 
ATOM     17  N   UNL     1      -1.817  -3.498  -7.241  0.00  0.00    -0.327 N 
ATOM     18  C   UNL     1      -1.306  -2.156  -6.924  0.00  0.00    +0.124 C 
ATOM     19  C   UNL     1       0.213  -2.236  -6.763  0.00  0.00    +0.125 C 
ENDROOT
BRANCH  17  20
ATOM     20  C   UNL     1      -2.592  -3.712  -8.383  0.00  0.00    +0.030 A 
ATOM     21  C   UNL     1      -3.175  -4.953  -8.605  0.00  0.00    +0.023 A 
ATOM     22  C   UNL     1      -3.942  -5.161  -9.735  0.00  0.00    +0.002 A 
ATOM     23  C   UNL     1      -4.129  -4.136 -10.644  0.00  0.00    +0.000 A 
ATOM     24  C   UNL     1      -3.550  -2.899 -10.425  0.00  0.00    +0.002 A 
ATOM     25  C   UNL     1      -2.787  -2.683  -9.295  0.00  0.00    +0.023 A 
ENDBRANCH  17  20
BRANCH   1  26
ATOM     26  C   UNL     1       0.737  -2.034  -1.262  0.00  0.00    +0.076 C 
BRANCH  26  27
ATOM     27  C   UNL     1       0.704  -0.504  -1.246  0.00  0.00    +0.007 C 
BRANCH  27  29
ATOM     28  C   UNL     1      -0.048   1.506   0.034  0.00  0.00    +0.004 C 
ATOM     29  C   UNL     1      -0.015  -0.023   0.017  0.00  0.00    -0.003 C 
ENDBRANCH  27  29
ENDBRANCH  26  27
ENDBRANCH   1  26
TORSDOF 4
