REMARK  Name = ZINC13991896
REMARK  11 active torsions:
REMARK  status: ('A' for Active; 'I' for Inactive)
REMARK    1  A    between atoms: C_1  and  C_2
REMARK    2  A    between atoms: C_4  and  C_17
REMARK    3  A    between atoms: C_5  and  C_16
REMARK    4  A    between atoms: N_6  and  C_7
REMARK    5  A    between atoms: C_17  and  N_60
REMARK    6  A    between atoms: C_18  and  C_19
REMARK    7  A    between atoms: C_18  and  N_60
REMARK    8  A    between atoms: C_28  and  C_29
REMARK    9  A    between atoms: C_28  and  N_60
REMARK   10  A    between atoms: C_29  and  C_31
REMARK   11  A    between atoms: C_29  and  O_32
REMARK                            x       y       z     vdW  Elec       q    Type
REMARK                         _______ _______ _______ _____ _____    ______ ____
ROOT
ATOM      1  C   UNL     1       7.508  -1.504   2.102  0.00  0.00    -0.041 C 
ENDROOT
BRANCH   1   5
ATOM      2  C   UNL     1      10.540  -4.831  -0.287  0.00  0.00    +0.064 C 
ATOM      3  C   UNL     1       9.873  -3.555   0.158  0.00  0.00    +0.021 A 
ATOM      4  C   UNL     1       8.890  -3.455   1.077  0.00  0.00    +0.024 A 
ATOM      5  C   UNL     1       8.556  -2.091   1.193  0.00  0.00    -0.043 A 
ATOM      6  C   UNL     1       9.344  -1.408   0.337  0.00  0.00    +0.022 A 
ATOM      7  N   UNL     1      10.159  -2.300  -0.298  0.00  0.00    -0.317 N 
ATOM      8  C   UNL     1       9.328   0.083   0.121  0.00  0.00    +0.064 C 
BRANCH   7   9
ATOM      9  C   UNL     1      11.126  -1.982  -1.263  0.00  0.00    +0.050 A 
ATOM     10  C   UNL     1      10.739  -1.448  -2.484  0.00  0.00    +0.030 A 
ATOM     11  C   UNL     1      11.690  -1.133  -3.436  0.00  0.00    +0.051 A 
ATOM     12  C   UNL     1      13.033  -1.350  -3.174  0.00  0.00    +0.166 A 
ATOM     13  C   UNL     1      13.425  -1.887  -1.950  0.00  0.00    +0.168 A 
ATOM     14  C   UNL     1      12.471  -2.196  -0.995  0.00  0.00    +0.075 A 
ATOM     15  O   UNL     1      14.785  -2.002  -1.939  0.00  0.00    -0.453 OA
ATOM     16  C   UNL     1      15.189  -1.914  -3.318  0.00  0.00    +0.466 C 
ATOM     17  O   UNL     1      14.149  -1.129  -3.930  0.00  0.00    -0.453 OA
ENDBRANCH   7   9
ENDBRANCH   1   5
BRANCH   1  18
ATOM     18  N   UNL     1       6.293  -1.223   1.309  0.00  0.00    +0.387 N 
ATOM     19  H   UNL     1       6.553  -0.668   0.485  0.00  0.00    -0.081 HD
BRANCH  18  20
ATOM     20  C   UNL     1       5.327  -0.452   2.121  0.00  0.00    -0.042 C 
BRANCH  20  21
ATOM     21  C   UNL     1       4.327   0.194   1.197  0.00  0.00    -0.060 A 
ATOM     22  C   UNL     1       3.204  -0.506   0.798  0.00  0.00    +0.005 A 
ATOM     23  C   UNL     1       2.284   0.083  -0.049  0.00  0.00    +0.050 A 
ATOM     24  C   UNL     1       2.486   1.377  -0.501  0.00  0.00    +0.166 A 
ATOM     25  C   UNL     1       3.617   2.082  -0.099  0.00  0.00    +0.166 A 
ATOM     26  C   UNL     1       4.535   1.486   0.750  0.00  0.00    +0.051 A 
ATOM     27  O   UNL     1       3.587   3.320  -0.673  0.00  0.00    -0.453 OA
ATOM     28  C   UNL     1       2.225   3.512  -1.102  0.00  0.00    +0.466 C 
ATOM     29  O   UNL     1       1.746   2.173  -1.327  0.00  0.00    -0.453 OA
ENDBRANCH  20  21
ENDBRANCH  18  20
BRANCH  18  30
ATOM     30  C   UNL     1       5.678  -2.490   0.861  0.00  0.00    -0.047 C 
BRANCH  30  31
ATOM     31  C   UNL     1       5.491  -3.443   2.042  0.00  0.00    +0.095 C 
ATOM     32  C   UNL     1       5.026  -4.807   1.529  0.00  0.00    +0.035 C 
BRANCH  31  33
ATOM     33  O   UNL     1       4.510  -2.910   2.934  0.00  0.00    -0.394 OA
ATOM     34  H   UNL     1       3.614  -2.898   2.571  0.00  0.00    +0.210 HD
ENDBRANCH  31  33
ENDBRANCH  30  31
ENDBRANCH  18  30
ENDBRANCH   1  18
TORSDOF 8
