REMARK  Name = ZINC19608070
REMARK  8 active torsions:
REMARK  status: ('A' for Active; 'I' for Inactive)
REMARK    1  A    between atoms: C_1  and  C_2
REMARK    2  A    between atoms: C_5  and  C_8
REMARK    3  A    between atoms: C_8  and  N_9
REMARK    4  A    between atoms: C_15  and  C_17
REMARK    5  A    between atoms: C_17  and  C_18
REMARK    6  A    between atoms: N_20  and  C_21
REMARK    7  A    between atoms: C_21  and  C_22
REMARK    8  A    between atoms: C_22  and  N_27
REMARK                            x       y       z     vdW  Elec       q    Type
REMARK                         _______ _______ _______ _____ _____    ______ ____
ROOT
ATOM      1  N   UNL     1       6.022   1.605  -4.631  0.00  0.00    +0.391 N 
ATOM      2  C   UNL     1       6.654   0.891  -5.753  0.00  0.00    -0.058 C 
ATOM      3  C   UNL     1       6.669  -0.605  -5.437  0.00  0.00    +0.085 C 
ATOM      4  N   UNL     1       5.338  -1.044  -5.029  0.00  0.00    -0.318 N 
ATOM      5  C   UNL     1       4.387  -0.198  -4.618  0.00  0.00    +0.200 C 
ATOM      6  O   UNL     1       3.318  -0.651  -4.267  0.00  0.00    -0.278 OA
ATOM      7  C   UNL     1       4.589   1.290  -4.573  0.00  0.00    +0.028 C 
ATOM      8  H   UNL     1       5.080  -2.114  -5.051  0.00  0.00    +0.149 HD
ATOM      9  H   UNL     1       6.490   1.269  -3.694  0.00  0.00    -0.080 HD
ENDROOT
BRANCH   1  10
ATOM     10  C   UNL     1       6.239   3.054  -4.739  0.00  0.00    -0.042 C 
BRANCH  10  15
ATOM     11  C   UNL     1      11.889   4.116  -5.329  0.00  0.00    +0.044 C 
ATOM     12  C   UNL     1      10.416   3.839  -5.175  0.00  0.00    -0.050 A 
ATOM     13  C   UNL     1       9.630   3.639  -6.295  0.00  0.00    +0.003 A 
ATOM     14  C   UNL     1       8.278   3.385  -6.154  0.00  0.00    +0.002 A 
ATOM     15  C   UNL     1       7.713   3.331  -4.893  0.00  0.00    -0.064 A 
ATOM     16  C   UNL     1       8.498   3.536  -3.774  0.00  0.00    +0.002 A 
ATOM     17  C   UNL     1       9.850   3.786  -3.915  0.00  0.00    +0.003 A 
ENDBRANCH  10  15
ENDBRANCH   1  10
BRANCH   7  18
ATOM     18  C   UNL     1       4.000   1.843  -3.273  0.00  0.00    +0.089 C 
BRANCH  18  19
ATOM     19  C   UNL     1       4.753   1.275  -2.098  0.00  0.00    +0.212 C 
ATOM     20  O   UNL     1       5.622   0.449  -2.278  0.00  0.00    -0.276 OA
ATOM     21  N   UNL     1       4.462   1.686  -0.848  0.00  0.00    -0.314 N 
ATOM     22  H   UNL     1       3.674   2.436  -0.686  0.00  0.00    +0.149 HD
BRANCH  21  23
ATOM     23  C   UNL     1       5.195   1.134   0.294  0.00  0.00    +0.126 C 
BRANCH  23  24
ATOM     24  C   UNL     1       4.597   1.676   1.594  0.00  0.00    +0.038 C 
ATOM     25  C   UNL     1       5.309   1.044   2.808  0.00  0.00    +0.024 C 
ATOM     26  C   UNL     1       6.394   2.080   3.193  0.00  0.00    +0.002 C 
ATOM     27  C   UNL     1       5.676   3.432   2.957  0.00  0.00    +0.002 C 
ATOM     28  C   UNL     1       4.830   3.194   1.688  0.00  0.00    +0.024 C 
BRANCH  24  29
ATOM     29  N   UNL     1       3.158   1.384   1.645  0.00  0.00    -0.291 NA
ATOM     30  C   UNL     1       2.913  -0.065   1.607  0.00  0.00    +0.113 C 
ATOM     31  C   UNL     1       1.404  -0.322   1.602  0.00  0.00    +0.175 C 
ATOM     32  O   UNL     1       0.817   0.296   2.751  0.00  0.00    -0.377 OA
ATOM     33  C   UNL     1       1.036   1.708   2.820  0.00  0.00    +0.175 C 
ATOM     34  C   UNL     1       2.541   1.985   2.837  0.00  0.00    +0.113 C 
ENDBRANCH  24  29
ENDBRANCH  23  24
ENDBRANCH  21  23
ENDBRANCH  18  19
ENDBRANCH   7  18
TORSDOF 7
