REMARK  Name = ZINC44710182
REMARK  7 active torsions:
REMARK  status: ('A' for Active; 'I' for Inactive)
REMARK    1  A    between atoms: C_1  and  C_2
REMARK    2  A    between atoms: C_4  and  S_27
REMARK    3  A    between atoms: C_5  and  N_9
REMARK    4  A    between atoms: N_10  and  C_11
REMARK    5  A    between atoms: C_12  and  N_26
REMARK    6  A    between atoms: C_17  and  O_25
REMARK    7  A    between atoms: C_19  and  S_21
REMARK                            x       y       z     vdW  Elec       q    Type
REMARK                         _______ _______ _______ _____ _____    ______ ____
ROOT
ATOM      1  C   UNL     1       0.197  -6.445   0.199  0.00  0.00    +0.118 A 
ATOM      2  C   UNL     1       0.373  -6.785  -1.148  0.00  0.00    +0.053 A 
ATOM      3  C   UNL     1       0.604  -8.113  -1.514  0.00  0.00    +0.025 A 
ATOM      4  C   UNL     1       0.665  -9.109  -0.593  0.00  0.00    +0.010 A 
ATOM      5  C   UNL     1       0.497  -8.837   0.777  0.00  0.00    -0.010 A 
ATOM      6  C   UNL     1       0.266  -7.506   1.202  0.00  0.00    +0.053 A 
ATOM      7  C   UNL     1       0.103  -7.233   2.569  0.00  0.00    +0.129 A 
ATOM      8  C   UNL     1       0.177  -8.265   3.480  0.00  0.00    +0.075 A 
ATOM      9  C   UNL     1       0.410  -9.570   3.056  0.00  0.00    +0.124 A 
ATOM     10  C   UNL     1       0.559  -9.864   1.734  0.00  0.00    +0.038 A 
ENDROOT
BRANCH   9  11
ATOM     11  S   UNL     1       0.498 -10.866   4.247  0.00  0.00    +0.140 S 
ATOM     12  O   UNL     1       1.403 -11.871   3.712  0.00  0.00    -0.140 OA
ATOM     13  O   UNL     1       1.006 -10.276   5.476  0.00  0.00    -0.140 OA
ATOM     14  O   UNL     1      -0.852 -11.382   4.410  0.00  0.00    -0.043 OA
ENDBRANCH   9  11
BRANCH   2  15
ATOM     15  N   UNL     1       0.318  -5.798  -2.123  0.00  0.00    -0.356 N 
ATOM     16  H   UNL     1       0.298  -4.863  -1.867  0.00  0.00    +0.142 HD
ATOM     17  H   UNL     1       0.299  -6.044  -3.062  0.00  0.00    +0.142 HD
ENDBRANCH   2  15
BRANCH   1  19
ATOM     18  N   UNL     1      -0.921  -4.458  -0.050  0.00  0.00    -0.147 NA
ATOM     19  N   UNL     1      -0.028  -5.157   0.565  0.00  0.00    -0.147 NA
BRANCH  18  24
ATOM     20  C   UNL     1      -1.573   1.010   1.189  0.00  0.00    +0.045 C 
ATOM     21  C   UNL     1      -1.399  -0.450   0.858  0.00  0.00    -0.030 A 
ATOM     22  C   UNL     1      -2.266  -1.064  -0.029  0.00  0.00    +0.036 A 
ATOM     23  C   UNL     1      -2.113  -2.399  -0.337  0.00  0.00    +0.147 A 
ATOM     24  C   UNL     1      -1.078  -3.134   0.250  0.00  0.00    +0.115 A 
ATOM     25  C   UNL     1      -0.205  -2.509   1.144  0.00  0.00    +0.051 A 
ATOM     26  C   UNL     1      -0.368  -1.170   1.439  0.00  0.00    +0.046 A 
ATOM     27 CL   UNL     1       0.719  -0.388   2.544  0.00  0.00    -0.083 Cl
BRANCH  23  28
ATOM     28  S   UNL     1      -3.219  -3.178  -1.466  0.00  0.00    +0.142 S 
ATOM     29  O   UNL     1      -2.589  -3.129  -2.776  0.00  0.00    -0.140 OA
ATOM     30  O   UNL     1      -3.403  -4.544  -1.002  0.00  0.00    -0.140 OA
ATOM     31  O   UNL     1      -4.460  -2.420  -1.431  0.00  0.00    -0.043 OA
ENDBRANCH  23  28
ENDBRANCH  18  24
ENDBRANCH   1  19
BRANCH   7  32
ATOM     32  O   UNL     1      -0.124  -5.962   2.991  0.00  0.00    -0.506 OA
ATOM     33  H   UNL     1      -1.060  -5.723   3.036  0.00  0.00    +0.292 HD
ENDBRANCH   7  32
TORSDOF 6
