REMARK  Name = ZINC12170427
REMARK  9 active torsions:
REMARK  status: ('A' for Active; 'I' for Inactive)
REMARK    1  A    between atoms: C_4  and  C_7
REMARK    2  A    between atoms: C_7  and  O_8
REMARK    3  A    between atoms: O_8  and  C_9
REMARK    4  A    between atoms: C_9  and  C_10
REMARK    5  A    between atoms: C_10  and  C_12
REMARK    6  A    between atoms: C_10  and  O_34
REMARK    7  A    between atoms: C_12  and  N_64
REMARK    8  A    between atoms: C_15  and  C_18
REMARK    9  A    between atoms: C_18  and  N_19
REMARK                            x       y       z     vdW  Elec       q    Type
REMARK                         _______ _______ _______ _____ _____    ______ ____
ROOT
ATOM      1  C   UNL     1      -0.832   3.562  -1.183  0.00  0.00    -0.078 C 
ATOM      2  C   UNL     1      -0.762   2.034  -1.228  0.00  0.00    -0.014 C 
ATOM      3  C   UNL     1      -0.019   1.526   0.010  0.00  0.00    +0.003 C 
ATOM      4  C   UNL     1      -0.738   2.021   1.268  0.00  0.00    -0.014 C 
ATOM      5  C   UNL     1      -0.810   3.549   1.240  0.00  0.00    -0.078 C 
ATOM      6  N   UNL     1      -1.558   3.973   0.038  0.00  0.00    +0.381 N 
ATOM      7  H   UNL     1      -2.481   3.523   0.043  0.00  0.00    -0.082 HD
ENDROOT
BRANCH   6   8
ATOM      8  C   UNL     1      -1.740   5.440   0.047  0.00  0.00    -0.045 C 
BRANCH   8   9
ATOM      9  C   UNL     1      -2.679   5.812   1.196  0.00  0.00    +0.124 C 
BRANCH   9  10
ATOM     10  O   UNL     1      -3.934   5.152   1.018  0.00  0.00    -0.391 OA
ATOM     11  H   UNL     1      -4.386   5.381   0.195  0.00  0.00    +0.210 HD
ENDBRANCH   9  10
BRANCH   9  12
ATOM     12  C   UNL     1      -2.896   7.327   1.206  0.00  0.00    +0.189 C 
BRANCH  12  13
ATOM     13  O   UNL     1      -3.678   7.689   2.346  0.00  0.00    -0.373 OA
BRANCH  13  14
ATOM     14  C   UNL     1      -3.940   9.089   2.451  0.00  0.00    +0.195 C 
BRANCH  14  18
ATOM     15  C   UNL     1      -6.284   9.843   5.942  0.00  0.00    +0.000 A 
ATOM     16  C   UNL     1      -4.904   9.860   6.019  0.00  0.00    +0.000 A 
ATOM     17  C   UNL     1      -4.145   9.616   4.889  0.00  0.00    +0.006 A 
ATOM     18  C   UNL     1      -4.767   9.355   3.682  0.00  0.00    -0.022 A 
ATOM     19  C   UNL     1      -6.147   9.343   3.604  0.00  0.00    +0.006 A 
ATOM     20  C   UNL     1      -6.905   9.582   4.735  0.00  0.00    +0.000 A 
ENDBRANCH  14  18
ENDBRANCH  13  14
ENDBRANCH  12  13
ENDBRANCH   9  12
ENDBRANCH   8   9
ENDBRANCH   6   8
BRANCH   3  21
ATOM     21  C   UNL     1       0.002  -0.004   0.002  0.00  0.00    +0.120 C 
BRANCH  21  22
ATOM     22  N   UNL     1       0.812  -0.488   1.123  0.00  0.00    -0.234 N 
ATOM     23  C   UNL     1       2.129  -0.690   0.932  0.00  0.00    +0.254 C 
ATOM     24  O   UNL     1       2.623  -0.470  -0.158  0.00  0.00    -0.270 OA
ATOM     25  C   UNL     1       2.975  -1.171   2.034  0.00  0.00    +0.046 A 
ATOM     26  C   UNL     1       4.337  -1.387   1.883  0.00  0.00    +0.014 A 
ATOM     27  C   UNL     1       5.094  -1.846   2.954  0.00  0.00    +0.001 A 
ATOM     28  C   UNL     1       4.532  -2.095   4.173  0.00  0.00    +0.008 A 
ATOM     29  C   UNL     1       3.155  -1.889   4.369  0.00  0.00    -0.016 A 
ATOM     30  C   UNL     1       2.376  -1.423   3.289  0.00  0.00    +0.006 A 
ATOM     31  C   UNL     1       0.989  -1.205   3.454  0.00  0.00    +0.046 A 
ATOM     32  C   UNL     1       0.410  -1.455   4.689  0.00  0.00    +0.014 A 
ATOM     33  C   UNL     1       1.189  -1.913   5.745  0.00  0.00    +0.001 A 
ATOM     34  C   UNL     1       2.529  -2.130   5.604  0.00  0.00    +0.008 A 
ATOM     35  C   UNL     1       0.210  -0.718   2.305  0.00  0.00    +0.254 C 
ATOM     36  O   UNL     1      -0.985  -0.524   2.424  0.00  0.00    -0.270 OA
ENDBRANCH  21  22
ENDBRANCH   3  21
TORSDOF 9
