REMARK  Name = ZINC38976334
REMARK  6 active torsions:
REMARK  status: ('A' for Active; 'I' for Inactive)
REMARK    1  A    between atoms: N_7  and  S_8
REMARK    2  A    between atoms: S_8  and  C_11
REMARK    3  A    between atoms: C_20  and  N_25
REMARK    4  A    between atoms: N_25  and  C_26
REMARK    5  A    between atoms: C_29  and  C_32
REMARK    6  A    between atoms: C_32  and  O_34
REMARK                            x       y       z     vdW  Elec       q    Type
REMARK                         _______ _______ _______ _____ _____    ______ ____
ROOT
ATOM      1  C   UNL     1      -0.272   1.095   0.333  0.00  0.00    +0.002 A 
ATOM      2  C   UNL     1       0.836   1.949   0.204  0.00  0.00    +0.002 A 
ATOM      3  C   UNL     1       2.098   1.490   0.054  0.00  0.00    +0.030 A 
ATOM      4  C   UNL     1       2.355   0.096   0.020  0.00  0.00    +0.089 A 
ATOM      5  N   UNL     1       3.587  -0.345  -0.126  0.00  0.00    -0.226 NA
ATOM      6  C   UNL     1       3.865  -1.658  -0.162  0.00  0.00    +0.192 C 
ATOM      7  N   UNL     1       5.090  -2.070  -0.307  0.00  0.00    -0.110 NA
ATOM      8  C   UNL     1       2.732  -2.651  -0.032  0.00  0.00    +0.237 C 
ATOM      9  N   UNL     1       1.369  -2.122   0.130  0.00  0.00    -0.359 N 
ATOM     10  C   UNL     1       1.203  -0.829   0.154  0.00  0.00    +0.063 A 
ATOM     11  C   UNL     1      -0.139  -0.249   0.314  0.00  0.00    +0.027 A 
ATOM     12  H   UNL     1       0.612  -2.721   0.217  0.00  0.00    +0.162 HD
ENDROOT
BRANCH   7  13
ATOM     13  S   UNL     1       6.321  -0.971  -0.449  0.00  0.00    +0.103 S 
ATOM     14  O   UNL     1       6.115  -0.286  -1.676  0.00  0.00    -0.146 OA
ATOM     15  O   UNL     1       6.405  -0.293   0.797  0.00  0.00    -0.146 OA
BRANCH  13  16
ATOM     16  C   UNL     1       7.817  -1.885  -0.626  0.00  0.00    +0.141 A 
ATOM     17  C   UNL     1       8.525  -1.804  -1.777  0.00  0.00    +0.031 A 
ATOM     18  C   UNL     1       9.713  -2.513  -1.953  0.00  0.00    +0.004 A 
ATOM     19  C   UNL     1      10.210  -3.313  -0.980  0.00  0.00    +0.031 A 
ATOM     20  C   UNL     1       9.520  -3.446   0.255  0.00  0.00    +0.102 A 
ATOM     21  C   UNL     1       8.281  -2.701   0.441  0.00  0.00    +0.127 A 
ATOM     22  N   UNL     1       7.724  -2.898   1.637  0.00  0.00    -0.189 NA
ATOM     23  S   UNL     1       8.702  -3.916   2.408  0.00  0.00    +0.117 S 
ATOM     24  N   UNL     1       9.855  -4.181   1.317  0.00  0.00    -0.191 NA
ENDBRANCH  13  16
ENDBRANCH   7  13
BRANCH   8  25
ATOM     25  N   UNL     1       2.743  -3.501  -1.225  0.00  0.00    -0.318 N 
ATOM     26  H   UNL     1       2.868  -3.104  -2.102  0.00  0.00    +0.148 HD
BRANCH  25  27
ATOM     27  C   UNL     1       2.572  -4.875  -1.102  0.00  0.00    +0.029 A 
ATOM     28  C   UNL     1       2.743  -5.698  -2.212  0.00  0.00    +0.024 A 
ATOM     29  C   UNL     1       2.575  -7.054  -2.094  0.00  0.00    +0.017 A 
ATOM     30  C   UNL     1       2.233  -7.609  -0.857  0.00  0.00    +0.059 A 
ATOM     31  C   UNL     1       2.062  -6.780   0.255  0.00  0.00    +0.017 A 
ATOM     32  C   UNL     1       2.236  -5.425   0.132  0.00  0.00    +0.024 A 
BRANCH  30  33
ATOM     33  C   UNL     1       2.052  -9.066  -0.727  0.00  0.00    +0.337 C 
ATOM     34  O   UNL     1       2.200  -9.786  -1.695  0.00  0.00    -0.245 OA
BRANCH  33  35
ATOM     35  O   UNL     1       1.722  -9.600   0.466  0.00  0.00    -0.477 OA
ATOM     36  H   UNL     1       1.625 -10.562   0.453  0.00  0.00    +0.295 HD
ENDBRANCH  33  35
ENDBRANCH  30  33
ENDBRANCH  25  27
ENDBRANCH   8  25
TORSDOF 6
