REMARK  Name = ZINC15071704
REMARK  7 active torsions:
REMARK  status: ('A' for Active; 'I' for Inactive)
REMARK    1  A    between atoms: C_5  and  C_7
REMARK    2  A    between atoms: C_7  and  C_21
REMARK    3  A    between atoms: N_10  and  C_14
REMARK    4  A    between atoms: C_14  and  C_15
REMARK    5  A    between atoms: C_15  and  C_16
REMARK    6  A    between atoms: C_27  and  C_29
REMARK    7  A    between atoms: C_29  and  N_68
REMARK                            x       y       z     vdW  Elec       q    Type
REMARK                         _______ _______ _______ _____ _____    ______ ____
ROOT
ATOM      1  C   UNL     1       0.002  -0.004   0.002  0.00  0.00    +0.158 C 
ATOM      2  C   UNL     1      -0.330   1.464   0.183  0.00  0.00    +0.253 C 
ATOM      3  O   UNL     1       0.001   2.181   1.103  0.00  0.00    -0.272 OA
ATOM      4  N   UNL     1      -1.068   1.806  -0.891  0.00  0.00    -0.224 N 
ATOM      5  C   UNL     1      -1.247   0.769  -1.717  0.00  0.00    +0.310 C 
ATOM      6  O   UNL     1      -1.880   0.832  -2.753  0.00  0.00    -0.252 OA
ATOM      7  N   UNL     1      -0.649  -0.351  -1.273  0.00  0.00    -0.280 N 
ATOM      8  H   UNL     1      -0.644  -1.218  -1.709  0.00  0.00    +0.152 HD
ENDROOT
BRANCH   1   9
ATOM      9  C   UNL     1      -0.582  -0.833   1.148  0.00  0.00    +0.031 C 
ATOM     10  C   UNL     1      -0.476  -2.321   0.806  0.00  0.00    +0.025 C 
ATOM     11  C   UNL     1      -1.029  -3.149   1.970  0.00  0.00    +0.108 C 
ATOM     12  N   UNL     1      -2.394  -2.694   2.267  0.00  0.00    -0.303 N 
ATOM     13  C   UNL     1      -2.623  -1.265   2.522  0.00  0.00    +0.108 C 
ATOM     14  C   UNL     1      -2.051  -0.458   1.351  0.00  0.00    +0.025 C 
ATOM     15  C   UNL     1      -3.417  -3.570   2.305  0.00  0.00    +0.199 C 
ATOM     16  O   UNL     1      -4.539  -3.182   2.551  0.00  0.00    -0.278 OA
BRANCH  15  17
ATOM     17  C   UNL     1      -3.166  -5.033   2.042  0.00  0.00    +0.019 C 
BRANCH  17  23
ATOM     18  C   UNL     1      -4.952  -5.743   3.514  0.00  0.00    -0.078 C 
ATOM     19  C   UNL     1      -6.337  -6.394   3.550  0.00  0.00    -0.019 C 
ATOM     20  C   UNL     1      -6.228  -7.840   3.056  0.00  0.00    -0.004 C 
ATOM     21  C   UNL     1      -5.639  -7.845   1.643  0.00  0.00    -0.019 C 
ATOM     22  C   UNL     1      -4.274  -7.151   1.662  0.00  0.00    -0.078 C 
ATOM     23  N   UNL     1      -4.451  -5.758   2.123  0.00  0.00    +0.385 N 
ATOM     24  H   UNL     1      -5.136  -5.291   1.517  0.00  0.00    -0.081 HD
ENDBRANCH  17  23
ENDBRANCH  15  17
ENDBRANCH   1   9
BRANCH   1  29
ATOM     25  C   UNL     1       3.571   0.197  -1.195  0.00  0.00    +0.003 A 
ATOM     26  C   UNL     1       4.181  -0.593  -0.232  0.00  0.00    +0.020 A 
ATOM     27  C   UNL     1       3.409  -1.156   0.765  0.00  0.00    +0.111 A 
ATOM     28  N   UNL     1       2.107  -0.951   0.807  0.00  0.00    -0.257 NA
ATOM     29  C   UNL     1       1.492  -0.207  -0.091  0.00  0.00    +0.074 A 
ATOM     30  C   UNL     1       2.199   0.385  -1.121  0.00  0.00    +0.026 A 
ENDBRANCH   1  29
BRANCH   4  31
ATOM     31  C   UNL     1      -1.607   3.148  -1.126  0.00  0.00    +0.123 C 
BRANCH  31  32
ATOM     32  C   UNL     1      -0.593   3.974  -1.919  0.00  0.00    +0.062 C 
BRANCH  32  33
ATOM     33  C   UNL     1      -1.148   5.354  -2.161  0.00  0.00    -0.009 A 
ATOM     34  C   UNL     1      -1.028   6.467  -1.397  0.00  0.00    +0.011 A 
ATOM     35  C   UNL     1      -1.628   7.638  -1.821  0.00  0.00    +0.008 A 
ATOM     36  C   UNL     1      -2.318   7.638  -2.988  0.00  0.00    +0.045 A 
ATOM     37  S   UNL     1      -2.127   5.948  -3.530  0.00  0.00    -0.102 S 
ENDBRANCH  32  33
ENDBRANCH  31  32
ENDBRANCH   4  31
TORSDOF 7
