REMARK  Name = ZINC04608275
REMARK  10 active torsions:
REMARK  status: ('A' for Active; 'I' for Inactive)
REMARK    1  A    between atoms: C_1  and  C_2
REMARK    2  A    between atoms: C_6  and  C_8
REMARK    3  A    between atoms: C_8  and  N_66
REMARK    4  A    between atoms: C_9  and  C_10
REMARK    5  A    between atoms: C_9  and  N_66
REMARK    6  A    between atoms: C_13  and  C_15
REMARK    7  A    between atoms: N_17  and  C_18
REMARK    8  A    between atoms: C_18  and  C_20
REMARK    9  A    between atoms: C_18  and  C_21
REMARK   10  A    between atoms: C_27  and  N_66
REMARK                            x       y       z     vdW  Elec       q    Type
REMARK                         _______ _______ _______ _____ _____    ______ ____
ROOT
ATOM      1  C   UNL     1       0.337   7.260  -1.579  0.00  0.00    -0.002 C 
ENDROOT
BRANCH   1   2
ATOM      2  C   UNL     1       0.752   7.436  -3.017  0.00  0.00    +0.090 A 
ATOM      3  C   UNL     1      -0.062   7.798  -4.033  0.00  0.00    +0.043 A 
ATOM      4  C   UNL     1       0.724   7.848  -5.195  0.00  0.00    +0.055 A 
ATOM      5  C   UNL     1       1.992   7.501  -4.826  0.00  0.00    +0.189 A 
ATOM      6  O   UNL     1       1.988   7.254  -3.500  0.00  0.00    -0.457 OA
BRANCH   5   7
ATOM      7  C   UNL     1       3.154   7.412  -5.716  0.00  0.00    +0.280 C 
ATOM      8  O   UNL     1       3.033   7.660  -6.901  0.00  0.00    -0.267 OA
ATOM      9  N   UNL     1       4.356   7.055  -5.221  0.00  0.00    -0.302 N 
ATOM     10  H   UNL     1       4.452   6.858  -4.277  0.00  0.00    +0.150 HD
BRANCH   9  11
ATOM     11  C   UNL     1       5.517   6.966  -6.110  0.00  0.00    +0.100 C 
ATOM     12  C   UNL     1       5.546   5.589  -6.775  0.00  0.00    +0.033 C 
BRANCH  11  13
ATOM     13  C   UNL     1       6.778   7.165  -5.310  0.00  0.00    -0.027 A 
ATOM     14  C   UNL     1       6.894   6.604  -4.052  0.00  0.00    +0.005 A 
ATOM     15  C   UNL     1       8.053   6.783  -3.320  0.00  0.00    +0.000 A 
ATOM     16  C   UNL     1       9.093   7.529  -3.842  0.00  0.00    +0.000 A 
ATOM     17  C   UNL     1       8.975   8.094  -5.099  0.00  0.00    +0.000 A 
ATOM     18  C   UNL     1       7.817   7.912  -5.832  0.00  0.00    +0.005 A 
ENDBRANCH  11  13
ENDBRANCH   9  11
ENDBRANCH   5   7
ENDBRANCH   1   2
BRANCH   1  19
ATOM     19  N   UNL     1       0.143   5.818  -1.315  0.00  0.00    +0.389 N 
ATOM     20  H   UNL     1       0.926   5.296  -1.725  0.00  0.00    -0.080 HD
BRANCH  19  21
ATOM     21  C   UNL     1      -1.118   5.356  -1.933  0.00  0.00    -0.068 C 
ATOM     22  C   UNL     1      -0.845   5.008  -3.397  0.00  0.00    -0.015 C 
ATOM     23  C   UNL     1      -2.135   4.512  -4.053  0.00  0.00    -0.002 C 
ATOM     24  C   UNL     1      -3.199   5.609  -3.979  0.00  0.00    -0.000 C 
ATOM     25  C   UNL     1      -3.472   5.957  -2.515  0.00  0.00    -0.002 C 
ATOM     26  C   UNL     1      -2.182   6.453  -1.859  0.00  0.00    -0.015 C 
ENDBRANCH  19  21
BRANCH  19  27
ATOM     27  C   UNL     1       0.111   5.572   0.142  0.00  0.00    -0.042 C 
BRANCH  27  33
ATOM     28  C   UNL     1      -1.855   1.052   1.011  0.00  0.00    +0.044 C 
ATOM     29  C   UNL     1      -0.650   1.933   0.803  0.00  0.00    -0.050 A 
ATOM     30  C   UNL     1       0.620   1.388   0.839  0.00  0.00    +0.003 A 
ATOM     31  C   UNL     1       1.724   2.195   0.643  0.00  0.00    +0.000 A 
ATOM     32  C   UNL     1       1.560   3.549   0.417  0.00  0.00    +0.002 A 
ATOM     33  C   UNL     1       0.291   4.096   0.387  0.00  0.00    -0.064 A 
ATOM     34  C   UNL     1      -0.815   3.288   0.582  0.00  0.00    +0.005 A 
ENDBRANCH  27  33
ENDBRANCH  19  27
ENDBRANCH   1  19
TORSDOF 8
