REMARK  Name = ZINC08870387
REMARK  11 active torsions:
REMARK  status: ('A' for Active; 'I' for Inactive)
REMARK    1  A    between atoms: C_1  and  C_2
REMARK    2  A    between atoms: C_7  and  N_8
REMARK    3  A    between atoms: N_8  and  S_9
REMARK    4  A    between atoms: S_9  and  C_12
REMARK    5  A    between atoms: C_22  and  C_29
REMARK    6  A    between atoms: C_23  and  C_25
REMARK    7  A    between atoms: C_25  and  C_26
REMARK    8  A    between atoms: C_25  and  C_27
REMARK    9  A    between atoms: C_25  and  C_28
REMARK   10  A    between atoms: C_29  and  O_31
REMARK   11  A    between atoms: O_31  and  C_32
REMARK                            x       y       z     vdW  Elec       q    Type
REMARK                         _______ _______ _______ _____ _____    ______ ____
ROOT
ATOM      1  C   UNL     1       1.587  -2.719   0.090  0.00  0.00    +0.046 C 
ATOM      2  C   UNL     1       1.340  -1.239  -0.053  0.00  0.00    -0.025 A 
ATOM      3  C   UNL     1       0.048  -0.764  -0.104  0.00  0.00    +0.052 A 
ATOM      4  C   UNL     1      -0.189   0.599  -0.236  0.00  0.00    +0.136 A 
ATOM      5  C   UNL     1       0.898   1.481  -0.317  0.00  0.00    +0.036 A 
ATOM      6  C   UNL     1       2.201   0.998  -0.265  0.00  0.00    +0.037 A 
ATOM      7  C   UNL     1       2.420  -0.363  -0.133  0.00  0.00    +0.052 A 
ATOM      8  C   UNL     1       0.304   2.827  -0.449  0.00  0.00    +0.108 A 
ATOM      9  C   UNL     1      -1.044   2.637  -0.437  0.00  0.00    +0.126 A 
ATOM     10  O   UNL     1      -1.319   1.334  -0.317  0.00  0.00    -0.458 OA
ENDROOT
BRANCH   9  11
ATOM     11  C   UNL     1      -2.074   3.732  -0.547  0.00  0.00    +0.021 C 
ATOM     12  C   UNL     1      -1.890   4.473  -1.874  0.00  0.00    +0.019 C 
ATOM     13  C   UNL     1      -3.475   3.122  -0.494  0.00  0.00    +0.019 C 
ATOM     14  C   UNL     1      -1.901   4.714   0.613  0.00  0.00    +0.019 C 
ENDBRANCH   9  11
BRANCH   7  15
ATOM     15  N   UNL     1       3.727  -0.859  -0.080  0.00  0.00    -0.216 N 
ATOM     16  H   UNL     1       4.059  -1.428  -0.792  0.00  0.00    +0.174 HD
BRANCH  15  17
ATOM     17  S   UNL     1       4.707  -0.474   1.198  0.00  0.00    +0.074 S 
ATOM     18  O   UNL     1       5.953  -1.115   0.962  0.00  0.00    -0.150 OA
ATOM     19  O   UNL     1       4.597   0.930   1.386  0.00  0.00    -0.150 OA
BRANCH  17  20
ATOM     20  C   UNL     1       4.016  -1.231   2.631  0.00  0.00    +0.134 A 
ATOM     21  C   UNL     1       4.670  -2.252   3.248  0.00  0.00    +0.031 A 
ATOM     22  C   UNL     1       4.141  -2.864   4.382  0.00  0.00    +0.003 A 
ATOM     23  C   UNL     1       2.952  -2.456   4.906  0.00  0.00    +0.010 A 
ATOM     24  C   UNL     1       2.249  -1.405   4.295  0.00  0.00    +0.002 A 
ATOM     25  C   UNL     1       2.788  -0.777   3.145  0.00  0.00    +0.097 A 
ATOM     26  N   UNL     1       2.120   0.220   2.557  0.00  0.00    -0.253 NA
ATOM     27  C   UNL     1       0.973   0.643   3.029  0.00  0.00    +0.111 A 
ATOM     28  C   UNL     1       0.390   0.073   4.160  0.00  0.00    +0.020 A 
ATOM     29  C   UNL     1       1.017  -0.954   4.805  0.00  0.00    +0.011 A 
ENDBRANCH  17  20
ENDBRANCH  15  17
ENDBRANCH   7  15
BRANCH   8  30
ATOM     30  C   UNL     1       1.019   4.104  -0.569  0.00  0.00    +0.343 C 
ATOM     31  O   UNL     1       1.320   4.532  -1.667  0.00  0.00    -0.245 OA
BRANCH  30  32
ATOM     32  O   UNL     1       1.342   4.803   0.538  0.00  0.00    -0.464 OA
ATOM     33  C   UNL     1       2.048   6.057   0.343  0.00  0.00    +0.280 C 
ENDBRANCH  30  32
ENDBRANCH   8  30
TORSDOF 6
