REMARK  Name = ZINC36728543
REMARK  4 active torsions:
REMARK  status: ('A' for Active; 'I' for Inactive)
REMARK    1  A    between atoms: C_5  and  S_6
REMARK    2  A    between atoms: S_6  and  N_9
REMARK    3  A    between atoms: C_15  and  C_17
REMARK    4  A    between atoms: C_17  and  C_18
REMARK                            x       y       z     vdW  Elec       q    Type
REMARK                         _______ _______ _______ _____ _____    ______ ____
ROOT
ATOM      1  N   UNL     1      -1.744  -1.437  -1.570  0.00  0.00    -0.173 NA
ATOM      2  C   UNL     1      -2.726  -0.599  -2.272  0.00  0.00    +0.128 C 
ATOM      3  C   UNL     1      -2.078  -0.048  -3.548  0.00  0.00    +0.125 C 
ATOM      4  N   UNL     1      -1.449  -1.161  -4.273  0.00  0.00    -0.299 N 
ATOM      5  C   UNL     1      -0.467  -1.999  -3.571  0.00  0.00    +0.125 C 
ATOM      6  C   UNL     1      -1.111  -2.546  -2.297  0.00  0.00    +0.128 C 
ATOM      7  C   UNL     1      -1.769  -1.410  -5.559  0.00  0.00    +0.216 C 
ATOM      8  O   UNL     1      -2.581  -0.712  -6.128  0.00  0.00    -0.276 OA
ENDROOT
BRANCH   1   9
ATOM      9  S   UNL     1      -1.352  -1.132   0.010  0.00  0.00    +0.067 S 
ATOM     10  O   UNL     1      -0.861  -2.352   0.549  0.00  0.00    -0.152 OA
ATOM     11  O   UNL     1      -2.455  -0.438   0.576  0.00  0.00    -0.152 OA
BRANCH   9  16
ATOM     12  C   UNL     1      -0.016   1.351   0.009  0.00  0.00    +0.037 A 
ATOM     13  C   UNL     1       1.183   2.038   0.002  0.00  0.00    +0.025 A 
ATOM     14  C   UNL     1       2.343   1.335  -0.013  0.00  0.00    +0.057 A 
ATOM     15  S   UNL     1       1.753  -0.350  -0.017  0.00  0.00    -0.062 S 
ATOM     16  C   UNL     1       0.002  -0.004   0.002  0.00  0.00    +0.144 A 
ATOM     17 BR   UNL     1       4.123   1.974  -0.027  0.00  0.00    -0.043 Br
ENDBRANCH   9  16
ENDBRANCH   1   9
BRANCH   7  18
ATOM     18  C   UNL     1      -1.116  -2.555  -6.290  0.00  0.00    +0.103 C 
BRANCH  18  19
ATOM     19  C   UNL     1      -1.650  -2.616  -7.722  0.00  0.00    -0.020 C 
ATOM     20  C   UNL     1      -3.165  -2.827  -7.693  0.00  0.00    +0.011 C 
ATOM     21  C   UNL     1      -3.700  -2.889  -9.125  0.00  0.00    -0.010 C 
ATOM     22  C   UNL     1      -3.037  -4.051  -9.867  0.00  0.00    +0.007 C 
ATOM     23  C   UNL     1      -1.522  -3.840  -9.897  0.00  0.00    -0.010 C 
ATOM     24  C   UNL     1      -0.988  -3.779  -8.464  0.00  0.00    +0.011 C 
ATOM     25  C   UNL     1      -1.204  -2.528 -10.617  0.00  0.00    +0.007 C 
ATOM     26  C   UNL     1      -1.866  -1.365  -9.874  0.00  0.00    -0.010 C 
ATOM     27  C   UNL     1      -3.381  -1.577  -9.845  0.00  0.00    +0.007 C 
ATOM     28  C   UNL     1      -1.332  -1.304  -8.442  0.00  0.00    +0.011 C 
ENDBRANCH  18  19
ENDBRANCH   7  18
TORSDOF 4
