REMARK  Name = ZINC33568555
REMARK  5 active torsions:
REMARK  status: ('A' for Active; 'I' for Inactive)
REMARK    1  A    between atoms: C_4  and  C_7
REMARK    2  A    between atoms: C_9  and  C_33
REMARK    3  A    between atoms: N_10  and  C_12
REMARK    4  A    between atoms: C_15  and  C_18
REMARK    5  A    between atoms: N_21  and  C_22
REMARK                            x       y       z     vdW  Elec       q    Type
REMARK                         _______ _______ _______ _____ _____    ______ ____
ROOT
ATOM      1  C   UNL     1       7.242  -0.767  -1.069  0.00  0.00    +0.066 A 
ATOM      2  C   UNL     1       8.073  -1.870  -0.897  0.00  0.00    +0.028 A 
ATOM      3  C   UNL     1       9.441  -1.713  -0.905  0.00  0.00    +0.010 A 
ATOM      4  C   UNL     1       9.995  -0.440  -1.088  0.00  0.00    -0.024 A 
ATOM      5  C   UNL     1       9.155   0.667  -1.260  0.00  0.00    +0.010 A 
ATOM      6  C   UNL     1       7.789   0.498  -1.255  0.00  0.00    +0.028 A 
ENDROOT
BRANCH   4   7
ATOM      7  C   UNL     1      11.454  -0.266  -1.097  0.00  0.00    +0.026 C 
ATOM      8  C   UNL     1      12.266  -1.353  -1.133  0.00  0.00    +0.058 C 
ATOM      9  C   UNL     1      13.736  -1.429  -1.008  0.00  0.00    +0.140 C 
ATOM     10  N   UNL     1      14.477  -0.357  -0.833  0.00  0.00    -0.231 NA
ATOM     11  N   UNL     1      14.277  -2.674  -1.083  0.00  0.00    -0.260 N 
ATOM     12  C   UNL     1      13.495  -3.756  -1.262  0.00  0.00    +0.282 C 
ATOM     13  O   UNL     1      13.832  -4.921  -1.349  0.00  0.00    -0.262 OA
ATOM     14  S   UNL     1      11.846  -3.077  -1.336  0.00  0.00    -0.028 S 
ATOM     15  H   UNL     1      15.238  -2.784  -1.007  0.00  0.00    +0.157 HD
BRANCH  10  16
ATOM     16  C   UNL     1      13.884   0.857  -0.630  0.00  0.00    +0.066 A 
ATOM     17  C   UNL     1      13.177   1.105   0.549  0.00  0.00    +0.030 A 
ATOM     18  C   UNL     1      12.581   2.332   0.748  0.00  0.00    +0.040 A 
ATOM     19  C   UNL     1      12.682   3.320  -0.220  0.00  0.00    +0.124 A 
ATOM     20  C   UNL     1      13.382   3.080  -1.392  0.00  0.00    +0.040 A 
ATOM     21  C   UNL     1      13.988   1.859  -1.600  0.00  0.00    +0.030 A 
ATOM     22  F   UNL     1      12.095   4.520  -0.020  0.00  0.00    -0.205 F 
ENDBRANCH  10  16
ENDBRANCH   4   7
BRANCH   1  26
ATOM     23  C   UNL     1       3.732  -0.729  -1.623  0.00  0.00    +0.094 A 
ATOM     24  C   UNL     1       3.824  -1.590  -0.515  0.00  0.00    +0.058 A 
ATOM     25  C   UNL     1       5.142  -1.703  -0.183  0.00  0.00    +0.075 A 
ATOM     26  N   UNL     1       5.854  -0.933  -1.059  0.00  0.00    -0.232 N 
ATOM     27  N   UNL     1       4.948  -0.342  -1.949  0.00  0.00    -0.166 NA
BRANCH  23  31
ATOM     28  C   UNL     1       0.143   0.413  -3.596  0.00  0.00    +0.000 A 
ATOM     29  C   UNL     1       1.359   0.897  -4.044  0.00  0.00    +0.001 A 
ATOM     30  C   UNL     1       2.527   0.529  -3.407  0.00  0.00    +0.010 A 
ATOM     31  C   UNL     1       2.479  -0.330  -2.311  0.00  0.00    +0.002 A 
ATOM     32  C   UNL     1       1.251  -0.814  -1.865  0.00  0.00    +0.010 A 
ATOM     33  C   UNL     1       0.090  -0.440  -2.510  0.00  0.00    +0.001 A 
ENDBRANCH  23  31
BRANCH  25  34
ATOM     34  C   UNL     1       5.699  -2.511   0.924  0.00  0.00    +0.000 A 
ATOM     35  C   UNL     1       6.915  -2.154   1.509  0.00  0.00    +0.010 A 
ATOM     36  C   UNL     1       7.428  -2.912   2.541  0.00  0.00    +0.001 A 
ATOM     37  C   UNL     1       6.741  -4.023   2.996  0.00  0.00    +0.000 A 
ATOM     38  C   UNL     1       5.535  -4.381   2.421  0.00  0.00    +0.001 A 
ATOM     39  C   UNL     1       5.008  -3.629   1.392  0.00  0.00    +0.010 A 
ENDBRANCH  25  34
ENDBRANCH   1  26
TORSDOF 5
