REMARK  Name = ZINC15379619
REMARK  5 active torsions:
REMARK  status: ('A' for Active; 'I' for Inactive)
REMARK    1  A    between atoms: C_3  and  C_22
REMARK    2  A    between atoms: C_5  and  N_7
REMARK    3  A    between atoms: C_8  and  C_10
REMARK    4  A    between atoms: C_11  and  C_12
REMARK    5  A    between atoms: C_16  and  N_18
REMARK                            x       y       z     vdW  Elec       q    Type
REMARK                         _______ _______ _______ _____ _____    ______ ____
ROOT
ATOM      1  C   UNL     1       0.001   1.098   0.194  0.00  0.00    +0.002 A 
ATOM      2  C   UNL     1      -1.207   1.766   0.216  0.00  0.00    +0.012 A 
ATOM      3  C   UNL     1      -1.241   3.151   0.051  0.00  0.00    +0.021 A 
ATOM      4  C   UNL     1      -0.054   3.855  -0.146  0.00  0.00    +0.035 A 
ATOM      5  C   UNL     1       1.154   3.175  -0.172  0.00  0.00    +0.034 A 
ATOM      6  C   UNL     1       1.178   1.796  -0.002  0.00  0.00    +0.023 A 
ENDROOT
BRANCH   3   7
ATOM      7  C   UNL     1      -2.534   3.870   0.080  0.00  0.00    +0.164 A 
ATOM      8  N   UNL     1      -3.728   3.345  -0.094  0.00  0.00    -0.129 NA
ATOM      9  N   UNL     1      -4.626   4.262   0.006  0.00  0.00    -0.134 NA
ATOM     10  C   UNL     1      -4.061   5.413   0.241  0.00  0.00    +0.134 A 
ATOM     11  N   UNL     1      -2.718   5.207   0.286  0.00  0.00    -0.311 N 
ATOM     12  C   UNL     1      -1.687   6.222   0.499  0.00  0.00    +0.125 C 
ATOM     13  C   UNL     1      -2.269   7.369   1.331  0.00  0.00    +0.022 C 
ATOM     14  C   UNL     1      -2.891   8.413   0.406  0.00  0.00    +0.002 C 
ATOM     15  C   UNL     1      -4.034   7.803  -0.401  0.00  0.00    +0.008 C 
ATOM     16  C   UNL     1      -4.746   6.740   0.441  0.00  0.00    +0.076 C 
ENDBRANCH   3   7
BRANCH   5  17
ATOM     17  N   UNL     1       2.347   3.876  -0.370  0.00  0.00    -0.282 N 
ATOM     18  C   UNL     1       2.372   4.947  -1.188  0.00  0.00    +0.241 C 
ATOM     19  O   UNL     1       1.340   5.355  -1.688  0.00  0.00    -0.270 OA
ATOM     20  H   UNL     1       3.157   3.592   0.082  0.00  0.00    +0.155 HD
BRANCH  18  21
ATOM     21  C   UNL     1       3.640   5.619  -1.476  0.00  0.00    +0.068 C 
ATOM     22  C   UNL     1       3.664   6.690  -2.295  0.00  0.00    +0.013 C 
BRANCH  22  23
ATOM     23  C   UNL     1       4.939   7.366  -2.585  0.00  0.00    -0.023 A 
ATOM     24  C   UNL     1       6.128   6.899  -2.012  0.00  0.00    +0.009 A 
ATOM     25  C   UNL     1       7.318   7.537  -2.288  0.00  0.00    +0.023 A 
ATOM     26  C   UNL     1       7.340   8.637  -3.130  0.00  0.00    +0.071 A 
ATOM     27  C   UNL     1       6.167   9.105  -3.700  0.00  0.00    +0.145 A 
ATOM     28  C   UNL     1       4.970   8.473  -3.438  0.00  0.00    +0.042 A 
ATOM     29 CL   UNL     1       8.843   9.435  -3.471  0.00  0.00    -0.081 Cl
BRANCH  27  30
ATOM     30  N   UNL     1       6.200  10.281  -4.598  0.00  0.00    +0.058 N 
ATOM     31  O   UNL     1       5.170  10.693  -5.100  0.00  0.00    -0.126 OA
ATOM     32  O   UNL     1       7.258  10.837  -4.834  0.00  0.00    -0.126 OA
ENDBRANCH  27  30
ENDBRANCH  22  23
ENDBRANCH  18  21
ENDBRANCH   5  17
TORSDOF 5
