REMARK  Name = ZINC05123865
REMARK  4 active torsions:
REMARK  status: ('A' for Active; 'I' for Inactive)
REMARK    1  A    between atoms: C_1  and  C_2
REMARK    2  A    between atoms: C_4  and  O_26
REMARK    3  A    between atoms: C_11  and  O_25
REMARK    4  A    between atoms: N_23  and  O_24
REMARK                            x       y       z     vdW  Elec       q    Type
REMARK                         _______ _______ _______ _____ _____    ______ ____
ROOT
ATOM      1  C   UNL     1      -0.019   1.523   0.010  0.00  0.00    +0.018 C 
ATOM      2  C   UNL     1       0.002  -0.004   0.002  0.00  0.00    +0.015 C 
ATOM      3  C   UNL     1      -1.397  -0.566   0.039  0.00  0.00    +0.044 C 
ATOM      4  C   UNL     1      -2.038  -0.349   1.410  0.00  0.00    +0.123 C 
ATOM      5  C   UNL     1      -1.181  -0.835   2.568  0.00  0.00    +0.051 C 
ATOM      6  C   UNL     1      -1.823  -0.447   3.877  0.00  0.00    -0.038 A 
ATOM      7  C   UNL     1      -3.054  -1.018   4.179  0.00  0.00    +0.008 A 
ATOM      8  C   UNL     1      -3.699  -0.717   5.359  0.00  0.00    +0.046 A 
ATOM      9  C   UNL     1      -3.114   0.165   6.257  0.00  0.00    +0.117 A 
ATOM     10  C   UNL     1      -1.889   0.735   5.956  0.00  0.00    +0.049 A 
ATOM     11  C   UNL     1      -1.244   0.432   4.765  0.00  0.00    -0.040 A 
ATOM     12  C   UNL     1       0.081   1.099   4.499  0.00  0.00    +0.036 C 
ATOM     13  C   UNL     1       0.355   1.099   2.988  0.00  0.00    +0.009 C 
ATOM     14  C   UNL     1       0.263  -0.341   2.505  0.00  0.00    +0.003 C 
ATOM     15  C   UNL     1       0.834  -0.607   1.151  0.00  0.00    +0.005 C 
ATOM     16  C   UNL     1       2.234  -0.078   0.821  0.00  0.00    +0.010 C 
ATOM     17  C   UNL     1       2.284  -0.246  -0.726  0.00  0.00    +0.055 C 
ATOM     18  C   UNL     1       0.842  -0.422  -1.192  0.00  0.00    +0.064 C 
ATOM     19  N   UNL     1       0.417  -0.827  -2.321  0.00  0.00    -0.096 NA
ENDROOT
BRANCH  19  20
ATOM     20  O   UNL     1       1.337  -1.181  -3.338  0.00  0.00    -0.409 OA
ATOM     21  H   UNL     1       0.921  -1.476  -4.159  0.00  0.00    +0.328 HD
ENDBRANCH  19  20
BRANCH   9  22
ATOM     22  O   UNL     1      -3.741   0.465   7.426  0.00  0.00    -0.507 OA
ATOM     23  H   UNL     1      -3.510  -0.123   8.158  0.00  0.00    +0.292 HD
ENDBRANCH   9  22
BRANCH   4  24
ATOM     24  O   UNL     1      -2.395   1.017   1.596  0.00  0.00    -0.391 OA
ATOM     25  H   UNL     1      -3.028   1.350   0.945  0.00  0.00    +0.210 HD
ENDBRANCH   4  24
TORSDOF 3
