REMARK  Name = ZINC10732230
REMARK  9 active torsions:
REMARK  status: ('A' for Active; 'I' for Inactive)
REMARK    1  A    between atoms: C_1  and  C_2
REMARK    2  A    between atoms: C_2  and  C_3
REMARK    3  A    between atoms: C_6  and  C_9
REMARK    4  A    between atoms: C_9  and  C_11
REMARK    5  A    between atoms: C_9  and  N_12
REMARK    6  A    between atoms: C_13  and  C_15
REMARK    7  A    between atoms: C_15  and  O_16
REMARK    8  A    between atoms: O_16  and  C_17
REMARK    9  A    between atoms: C_17  and  C_19
REMARK                            x       y       z     vdW  Elec       q    Type
REMARK                         _______ _______ _______ _____ _____    ______ ____
ROOT
ATOM      1  C   UNL     1       6.229   2.206  -0.044  0.00  0.00    +0.341 C 
ATOM      2  O   UNL     1       6.221   3.421  -0.038  0.00  0.00    -0.245 OA
ENDROOT
BRANCH   1   3
ATOM      3  C   UNL     1       4.955   1.457  -0.036  0.00  0.00    +0.078 A 
ATOM      4  C   UNL     1       4.966   0.062  -0.043  0.00  0.00    +0.017 A 
ATOM      5  C   UNL     1       3.778  -0.645  -0.036  0.00  0.00    +0.013 A 
ATOM      6  C   UNL     1       2.562   0.032  -0.022  0.00  0.00    +0.035 A 
ATOM      7  C   UNL     1       2.541   1.439  -0.014  0.00  0.00    +0.052 A 
ATOM      8  C   UNL     1       3.739   2.148  -0.022  0.00  0.00    +0.066 A 
ATOM      9 CL   UNL     1       3.724   3.884  -0.015  0.00  0.00    -0.082 Cl
ATOM     10  C   UNL     1       1.252   2.160   0.002  0.00  0.00    +0.196 C 
ATOM     11  O   UNL     1       1.235   3.375   0.008  0.00  0.00    -0.287 OA
ATOM     12  C   UNL     1      -0.017   1.402   0.010  0.00  0.00    +0.033 A 
ATOM     13  C   UNL     1      -1.236   2.075   0.031  0.00  0.00    +0.012 A 
ATOM     14  C   UNL     1      -2.419   1.357   0.034  0.00  0.00    +0.001 A 
ATOM     15  C   UNL     1      -2.401  -0.026   0.026  0.00  0.00    +0.001 A 
ATOM     16  C   UNL     1      -1.198  -0.710   0.010  0.00  0.00    +0.012 A 
ATOM     17  C   UNL     1       0.002  -0.004   0.002  0.00  0.00    +0.033 A 
ATOM     18  C   UNL     1       1.291  -0.726  -0.014  0.00  0.00    +0.195 C 
ATOM     19  O   UNL     1       1.307  -1.941  -0.021  0.00  0.00    -0.287 OA
ENDBRANCH   1   3
BRANCH   1  20
ATOM     20  O   UNL     1       7.401   1.541  -0.058  0.00  0.00    -0.452 OA
BRANCH  20  21
ATOM     21  C   UNL     1       8.613   2.341  -0.065  0.00  0.00    +0.328 C 
BRANCH  21  23
ATOM     22  N   UNL     1      11.056   1.956  -0.089  0.00  0.00    -0.306 N 
ATOM     23  C   UNL     1       9.815   1.432  -0.081  0.00  0.00    +0.251 C 
ATOM     24  O   UNL     1       9.665   0.229  -0.085  0.00  0.00    -0.272 OA
ATOM     25  H   UNL     1      11.176   2.919  -0.086  0.00  0.00    +0.149 HD
BRANCH  22  26
ATOM     26  C   UNL     1      12.225   1.073  -0.104  0.00  0.00    +0.100 C 
ATOM     27  C   UNL     1      12.542   0.672  -1.546  0.00  0.00    +0.033 C 
BRANCH  26  31
ATOM     28  C   UNL     1      15.578   3.116   1.577  0.00  0.00    -0.048 A 
ATOM     29  C   UNL     1      15.367   1.781   1.865  0.00  0.00    +0.004 A 
ATOM     30  C   UNL     1      14.281   1.120   1.321  0.00  0.00    +0.006 A 
ATOM     31  C   UNL     1      13.407   1.794   0.489  0.00  0.00    -0.027 A 
ATOM     32  C   UNL     1      13.622   3.128   0.196  0.00  0.00    +0.006 A 
ATOM     33  C   UNL     1      14.704   3.790   0.744  0.00  0.00    +0.004 A 
BRANCH  28  35
ATOM     34  C   UNL     1      17.961   3.708   1.228  0.00  0.00    +0.009 C 
ATOM     35  C   UNL     1      16.761   3.837   2.169  0.00  0.00    +0.032 C 
ENDBRANCH  28  35
ENDBRANCH  26  31
ENDBRANCH  22  26
ENDBRANCH  21  23
ENDBRANCH  20  21
ENDBRANCH   1  20
TORSDOF 7
