REMARK  Name = ZINC11963677
REMARK  10 active torsions:
REMARK  status: ('A' for Active; 'I' for Inactive)
REMARK    1  A    between atoms: C_1  and  C_2
REMARK    2  A    between atoms: C_3  and  C_4
REMARK    3  A    between atoms: C_4  and  N_5
REMARK    4  A    between atoms: C_8  and  C_12
REMARK    5  A    between atoms: C_8  and  C_21
REMARK    6  A    between atoms: C_12  and  C_13
REMARK    7  A    between atoms: C_13  and  C_14
REMARK    8  A    between atoms: C_14  and  C_15
REMARK    9  A    between atoms: C_26  and  C_27
REMARK   10  A    between atoms: C_26  and  N_71
REMARK                            x       y       z     vdW  Elec       q    Type
REMARK                         _______ _______ _______ _____ _____    ______ ____
ROOT
ATOM      1  N   UNL     1      -2.351  -2.476   9.869  0.00  0.00    -0.212 N 
ATOM      2  C   UNL     1      -1.214  -2.568   9.145  0.00  0.00    +0.248 C 
ATOM      3  O   UNL     1      -0.080  -2.657   9.564  0.00  0.00    -0.273 OA
ATOM      4  C   UNL     1      -1.654  -2.535   7.695  0.00  0.00    +0.115 C 
ATOM      5  N   UNL     1      -3.121  -2.422   7.776  0.00  0.00    -0.285 N 
ATOM      6  C   UNL     1      -3.432  -2.394   9.085  0.00  0.00    +0.310 C 
ATOM      7  O   UNL     1      -4.568  -2.305   9.507  0.00  0.00    -0.252 OA
ATOM      8  H   UNL     1      -3.741  -2.375   7.032  0.00  0.00    +0.151 HD
ENDROOT
BRANCH   4   9
ATOM      9  C   UNL     1      -1.059  -1.321   6.979  0.00  0.00    +0.018 C 
ATOM     10  C   UNL     1      -1.474  -0.042   7.710  0.00  0.00    -0.013 C 
ATOM     11  C   UNL     1      -0.926   1.172   6.956  0.00  0.00    -0.078 C 
ATOM     12  C   UNL     1      -1.028  -0.019   4.848  0.00  0.00    -0.078 C 
ATOM     13  C   UNL     1      -1.580  -1.268   5.540  0.00  0.00    -0.013 C 
ATOM     14  N   UNL     1      -1.483   1.178   5.587  0.00  0.00    +0.382 N 
ATOM     15  H   UNL     1      -2.508   1.164   5.645  0.00  0.00    -0.081 HD
BRANCH  14  16
ATOM     16  C   UNL     1      -1.060   2.401   4.875  0.00  0.00    -0.043 C 
BRANCH  16  17
ATOM     17  C   UNL     1      -1.402   2.266   3.414  0.00  0.00    -0.063 A 
ATOM     18  C   UNL     1      -2.640   2.673   2.951  0.00  0.00    +0.005 A 
ATOM     19  C   UNL     1      -2.960   2.548   1.615  0.00  0.00    +0.046 A 
ATOM     20  C   UNL     1      -2.038   2.010   0.720  0.00  0.00    +0.124 A 
ATOM     21  C   UNL     1      -0.795   1.611   1.196  0.00  0.00    -0.002 A 
ATOM     22  C   UNL     1      -0.480   1.733   2.531  0.00  0.00    +0.009 A 
ATOM     23  C   UNL     1      -0.013   1.086   0.008  0.00  0.00    +0.080 C 
ATOM     24  C   UNL     1      -0.834   1.634  -1.183  0.00  0.00    +0.234 C 
ATOM     25  O   UNL     1      -2.147   1.791  -0.619  0.00  0.00    -0.491 OA
ENDBRANCH  16  17
ENDBRANCH  14  16
ENDBRANCH   4   9
BRANCH   1  26
ATOM     26  C   UNL     1      -2.395  -2.470  11.334  0.00  0.00    +0.206 C 
BRANCH  26  29
ATOM     27  C   UNL     1      -2.735  -6.335  12.713  0.00  0.00    +0.106 C 
ATOM     28  C   UNL     1      -2.614  -4.953  12.220  0.00  0.00    -0.104 C 
ATOM     29  C   UNL     1      -2.517  -3.851  11.827  0.00  0.00    -0.083 C 
ENDBRANCH  26  29
ENDBRANCH   1  26
BRANCH   4  30
ATOM     30  C   UNL     1      -1.253  -3.829   6.982  0.00  0.00    +0.036 C 
BRANCH  30  31
ATOM     31  C   UNL     1      -1.960  -5.015   7.641  0.00  0.00    +0.007 C 
BRANCH  31  32
ATOM     32  C   UNL     1      -1.559  -6.308   6.928  0.00  0.00    +0.035 C 
BRANCH  32  33
ATOM     33  C   UNL     1      -2.256  -7.476   7.577  0.00  0.00    -0.047 A 
ATOM     34  C   UNL     1      -1.651  -8.145   8.625  0.00  0.00    +0.003 A 
ATOM     35  C   UNL     1      -2.292  -9.214   9.224  0.00  0.00    +0.000 A 
ATOM     36  C   UNL     1      -3.532  -9.620   8.768  0.00  0.00    +0.000 A 
ATOM     37  C   UNL     1      -4.135  -8.953   7.717  0.00  0.00    +0.000 A 
ATOM     38  C   UNL     1      -3.496  -7.882   7.122  0.00  0.00    +0.003 A 
ENDBRANCH  32  33
ENDBRANCH  31  32
ENDBRANCH  30  31
ENDBRANCH   4  30
TORSDOF 9
