REMARK  Name = ZINC13469901
REMARK  5 active torsions:
REMARK  status: ('A' for Active; 'I' for Inactive)
REMARK    1  A    between atoms: C_9  and  C_11
REMARK    2  A    between atoms: C_11  and  C_13
REMARK    3  A    between atoms: C_11  and  O_27
REMARK    4  A    between atoms: C_13  and  C_15
REMARK    5  A    between atoms: C_13  and  O_26
REMARK                            x       y       z     vdW  Elec       q    Type
REMARK                         _______ _______ _______ _____ _____    ______ ____
ROOT
ATOM      1  C   UNL     1       5.964   0.872  -0.050  0.00  0.00    +0.216 C 
ENDROOT
BRANCH   1  10
ATOM      2  C   UNL     1      -0.017   1.384   0.010  0.00  0.00    +0.022 A 
ATOM      3  C   UNL     1       1.149   2.097   0.002  0.00  0.00    +0.031 A 
ATOM      4  C   UNL     1       2.375   1.427  -0.013  0.00  0.00    +0.089 A 
ATOM      5  C   UNL     1       2.395   0.021  -0.021  0.00  0.00    +0.068 A 
ATOM      6  C   UNL     1       1.201  -0.687  -0.014  0.00  0.00    +0.047 A 
ATOM      7  C   UNL     1       0.002  -0.004   0.002  0.00  0.00    +0.043 A 
ATOM      8 CL   UNL     1      -1.493  -0.887   0.012  0.00  0.00    -0.083 Cl
ATOM      9  N   UNL     1       3.727  -0.340  -0.035  0.00  0.00    -0.340 N 
ATOM     10  C   UNL     1       4.458   0.807  -0.036  0.00  0.00    +0.140 A 
ATOM     11  N   UNL     1       3.668   1.841  -0.023  0.00  0.00    -0.230 NA
ATOM     12  H   UNL     1       4.077  -1.245  -0.044  0.00  0.00    +0.167 HD
ENDBRANCH   1  10
BRANCH   1  13
ATOM     13  O   UNL     1       6.496  -0.448  -0.180  0.00  0.00    -0.381 OA
ATOM     14  H   UNL     1       6.222  -0.905  -0.987  0.00  0.00    +0.210 HD
ENDBRANCH   1  13
BRANCH   1  15
ATOM     15  C   UNL     1       6.427   1.727  -1.232  0.00  0.00    +0.216 C 
BRANCH  15  16
ATOM     16  C   UNL     1       7.932   1.791  -1.246  0.00  0.00    +0.140 A 
ATOM     17  N   UNL     1       8.717   1.454  -2.305  0.00  0.00    -0.340 N 
ATOM     18  H   UNL     1       8.411   1.136  -3.168  0.00  0.00    +0.167 HD
ATOM     19  C   UNL     1      10.029   1.650  -1.922  0.00  0.00    +0.066 A 
ATOM     20  C   UNL     1      11.254   1.483  -2.554  0.00  0.00    +0.029 A 
ATOM     21  C   UNL     1      12.420   1.774  -1.879  0.00  0.00    +0.022 A 
ATOM     22  C   UNL     1      12.378   2.234  -0.569  0.00  0.00    +0.043 A 
ATOM     23  C   UNL     1      11.173   2.405   0.074  0.00  0.00    +0.050 A 
ATOM     24  C   UNL     1       9.981   2.114  -0.597  0.00  0.00    +0.091 A 
ATOM     25  N   UNL     1       8.671   2.183  -0.249  0.00  0.00    -0.230 NA
ATOM     26 CL   UNL     1      13.858   2.594   0.265  0.00  0.00    -0.083 Cl
ENDBRANCH  15  16
BRANCH  15  27
ATOM     27  O   UNL     1       5.894   3.047  -1.102  0.00  0.00    -0.381 OA
ATOM     28  H   UNL     1       6.168   3.503  -0.295  0.00  0.00    +0.210 HD
ENDBRANCH  15  27
ENDBRANCH   1  15
TORSDOF 5
