REMARK  Name = ZINC36583670
REMARK  11 active torsions:
REMARK  status: ('A' for Active; 'I' for Inactive)
REMARK    1  A    between atoms: C_1  and  C_2
REMARK    2  A    between atoms: C_2  and  C_3
REMARK    3  A    between atoms: C_2  and  C_4
REMARK    4  A    between atoms: C_2  and  N_5
REMARK    5  A    between atoms: N_5  and  C_6
REMARK    6  A    between atoms: C_6  and  C_8
REMARK    7  A    between atoms: C_6  and  C_14
REMARK    8  A    between atoms: N_16  and  C_17
REMARK    9  A    between atoms: C_23  and  C_25
REMARK   10  A    between atoms: C_27  and  N_34
REMARK   11  A    between atoms: C_29  and  N_31
REMARK                            x       y       z     vdW  Elec       q    Type
REMARK                         _______ _______ _______ _____ _____    ______ ____
ROOT
ATOM      1  N   UNL     1       0.097   0.045  -1.633  0.00  0.00    -0.281 N 
ATOM      2  C   UNL     1      -0.230  -0.661  -0.533  0.00  0.00    +0.248 C 
ATOM      3  O   UNL     1      -0.952  -1.635  -0.629  0.00  0.00    -0.270 OA
ENDROOT
BRANCH   2   4
ATOM      4  C   UNL     1       0.289  -0.252   0.789  0.00  0.00    +0.041 A 
ATOM      5  C   UNL     1       1.585   0.251   0.908  0.00  0.00    +0.046 A 
ATOM      6  C   UNL     1       2.063   0.631   2.146  0.00  0.00    +0.129 A 
ATOM      7  C   UNL     1       1.260   0.515   3.266  0.00  0.00    +0.065 A 
ATOM      8  C   UNL     1      -0.026   0.017   3.155  0.00  0.00    +0.129 A 
ATOM      9  C   UNL     1      -0.518  -0.362   1.923  0.00  0.00    +0.046 A 
BRANCH   8  10
ATOM     10  N   UNL     1      -0.877  -0.105   4.359  0.00  0.00    +0.057 N 
ATOM     11  O   UNL     1      -0.449   0.231   5.439  0.00  0.00    -0.126 OA
ATOM     12  O   UNL     1      -2.001  -0.540   4.264  0.00  0.00    -0.126 OA
ENDBRANCH   8  10
BRANCH   6  13
ATOM     13  N   UNL     1       3.438   1.165   2.274  0.00  0.00    +0.057 N 
ATOM     14  O   UNL     1       4.171   1.185   1.313  0.00  0.00    -0.126 OA
ATOM     15  O   UNL     1       3.827   1.582   3.340  0.00  0.00    -0.126 OA
ENDBRANCH   6  13
ENDBRANCH   2   4
BRANCH   1  17
ATOM     16  C   UNL     1      -0.265   1.062  -3.828  0.00  0.00    +0.031 C 
ATOM     17  C   UNL     1      -0.877   0.209  -2.715  0.00  0.00    +0.030 C 
ATOM     18  C   UNL     1      -2.130   0.900  -2.173  0.00  0.00    +0.031 C 
ATOM     19  C   UNL     1      -1.254  -1.164  -3.275  0.00  0.00    +0.031 C 
ENDBRANCH   1  17
BRANCH   1  20
ATOM     20  C   UNL     1       1.427   0.650  -1.748  0.00  0.00    +0.166 C 
BRANCH  20  21
ATOM     21  C   UNL     1       2.495  -0.426  -1.542  0.00  0.00    +0.019 C 
ATOM     22  C   UNL     1       3.877   0.166  -1.828  0.00  0.00    +0.006 C 
ATOM     23  C   UNL     1       4.945  -0.909  -1.622  0.00  0.00    +0.000 C 
ATOM     24  C   UNL     1       4.683  -2.077  -2.575  0.00  0.00    +0.000 C 
ATOM     25  C   UNL     1       3.302  -2.669  -2.289  0.00  0.00    +0.000 C 
ATOM     26  C   UNL     1       2.233  -1.594  -2.495  0.00  0.00    +0.006 C 
ENDBRANCH  20  21
BRANCH  20  27
ATOM     27  C   UNL     1       1.583   1.721  -0.699  0.00  0.00    +0.234 C 
ATOM     28  O   UNL     1       0.656   1.991   0.035  0.00  0.00    -0.274 OA
ATOM     29  N   UNL     1       2.754   2.378  -0.576  0.00  0.00    -0.311 N 
ATOM     30  H   UNL     1       3.489   2.174  -1.174  0.00  0.00    +0.149 HD
BRANCH  29  31
ATOM     31  C   UNL     1       2.914   3.400   0.461  0.00  0.00    +0.073 C 
ATOM     32  C   UNL     1       2.034   4.607   0.128  0.00  0.00    +0.022 C 
ATOM     33  C   UNL     1       2.203   5.674   1.211  0.00  0.00    +0.002 C 
ATOM     34  C   UNL     1       3.667   6.113   1.272  0.00  0.00    +0.000 C 
ATOM     35  C   UNL     1       4.547   4.906   1.605  0.00  0.00    +0.002 C 
ATOM     36  C   UNL     1       4.379   3.838   0.522  0.00  0.00    +0.022 C 
ENDBRANCH  29  31
ENDBRANCH  20  27
ENDBRANCH   1  20
TORSDOF 8
