REMARK  Name = ZINC06807910
REMARK  9 active torsions:
REMARK  status: ('A' for Active; 'I' for Inactive)
REMARK    1  A    between atoms: C_1  and  C_2
REMARK    2  A    between atoms: C_5  and  C_8
REMARK    3  A    between atoms: C_8  and  N_9
REMARK    4  A    between atoms: C_10  and  C_33
REMARK    5  A    between atoms: N_14  and  C_20
REMARK    6  A    between atoms: C_18  and  C_19
REMARK    7  A    between atoms: C_20  and  C_21
REMARK    8  A    between atoms: N_23  and  C_24
REMARK    9  A    between atoms: C_30  and  C_32
REMARK                            x       y       z     vdW  Elec       q    Type
REMARK                         _______ _______ _______ _____ _____    ______ ____
ROOT
ATOM      1  N   UNL     1       1.257   1.801  -0.000  0.00  0.00    -0.343 N 
ATOM      2  C   UNL     1       2.134   0.761  -0.014  0.00  0.00    +0.026 A 
ATOM      3  C   UNL     1       1.429  -0.397  -0.014  0.00  0.00    +0.028 A 
ATOM      4  C   UNL     1       1.745  -1.827  -0.024  0.00  0.00    +0.143 A 
ATOM      5  N   UNL     1       0.784  -2.699  -0.019  0.00  0.00    -0.176 NA
ATOM      6  N   UNL     1      -0.566  -2.358  -0.004  0.00  0.00    -0.220 N 
ATOM      7  C   UNL     1      -0.994  -1.078   0.006  0.00  0.00    +0.277 A 
ATOM      8  O   UNL     1      -2.184  -0.821   0.019  0.00  0.00    -0.265 OA
ATOM      9  C   UNL     1       0.002  -0.004   0.002  0.00  0.00    +0.070 A 
ATOM     10  C   UNL     1      -0.016   1.353   0.009  0.00  0.00    +0.029 A 
ATOM     11  C   UNL     1      -1.252   2.215   0.020  0.00  0.00    +0.064 C 
ATOM     12  C   UNL     1       3.637   0.877  -0.028  0.00  0.00    +0.064 C 
ENDROOT
BRANCH   1  13
ATOM     13  C   UNL     1       1.641   3.215   0.004  0.00  0.00    +0.157 C 
BRANCH  13  18
ATOM     14  C   UNL     1       2.200   5.042   5.458  0.00  0.00    +0.044 C 
ATOM     15  C   UNL     1       2.054   4.566   4.035  0.00  0.00    -0.050 A 
ATOM     16  C   UNL     1       3.142   4.033   3.370  0.00  0.00    +0.004 A 
ATOM     17  C   UNL     1       3.009   3.596   2.066  0.00  0.00    +0.005 A 
ATOM     18  C   UNL     1       1.787   3.692   1.426  0.00  0.00    -0.028 A 
ATOM     19  C   UNL     1       0.700   4.230   2.090  0.00  0.00    +0.005 A 
ATOM     20  C   UNL     1       0.833   4.663   3.396  0.00  0.00    +0.004 A 
ENDBRANCH  13  18
ENDBRANCH   1  13
BRANCH   6  21
ATOM     21  C   UNL     1      -1.563  -3.432   0.000  0.00  0.00    +0.243 C 
BRANCH  21  22
ATOM     22  C   UNL     1      -1.919  -3.793  -1.419  0.00  0.00    +0.235 C 
ATOM     23  O   UNL     1      -1.392  -3.211  -2.343  0.00  0.00    -0.274 OA
ATOM     24  N   UNL     1      -2.822  -4.763  -1.661  0.00  0.00    -0.311 N 
ATOM     25  H   UNL     1      -3.244  -5.229  -0.922  0.00  0.00    +0.149 HD
BRANCH  24  26
ATOM     26  C   UNL     1      -3.168  -5.114  -3.041  0.00  0.00    +0.076 C 
ATOM     27  C   UNL     1      -2.155  -6.127  -3.578  0.00  0.00    +0.022 C 
ATOM     28  C   UNL     1      -2.516  -6.494  -5.019  0.00  0.00    +0.002 C 
ATOM     29  C   UNL     1      -3.918  -7.107  -5.053  0.00  0.00    +0.000 C 
ATOM     30  C   UNL     1      -4.931  -6.095  -4.515  0.00  0.00    +0.005 C 
ATOM     31  C   UNL     1      -4.569  -5.728  -3.075  0.00  0.00    +0.006 C 
ATOM     32  C   UNL     1      -5.583  -4.715  -2.537  0.00  0.00    +0.009 C 
ENDBRANCH  24  26
ENDBRANCH  21  22
ENDBRANCH   6  21
TORSDOF 5
