REMARK  Name = ZINC34890017
REMARK  10 active torsions:
REMARK  status: ('A' for Active; 'I' for Inactive)
REMARK    1  A    between atoms: C_1  and  C_2
REMARK    2  A    between atoms: C_2  and  O_3
REMARK    3  A    between atoms: O_3  and  C_4
REMARK    4  A    between atoms: C_4  and  C_6
REMARK    5  A    between atoms: C_10  and  N_11
REMARK    6  A    between atoms: C_12  and  C_14
REMARK    7  A    between atoms: C_14  and  S_15
REMARK    8  A    between atoms: S_15  and  C_16
REMARK    9  A    between atoms: C_19  and  C_21
REMARK   10  A    between atoms: C_26  and  N_27
REMARK                            x       y       z     vdW  Elec       q    Type
REMARK                         _______ _______ _______ _____ _____    ______ ____
ROOT
ATOM      1  N   UNL     1      -2.943  -2.479   2.508  0.00  0.00    -0.279 N 
ATOM      2  C   UNL     1      -3.783  -2.620   3.553  0.00  0.00    +0.228 C 
ATOM      3  O   UNL     1      -4.973  -2.756   3.360  0.00  0.00    -0.275 OA
ATOM      4  H   UNL     1      -1.992  -2.371   2.662  0.00  0.00    +0.155 HD
ENDROOT
BRANCH   1   9
ATOM      5  C   UNL     1      -2.731  -2.361   0.028  0.00  0.00    +0.091 A 
ATOM      6  C   UNL     1      -3.493  -2.414  -1.209  0.00  0.00    -0.021 A 
ATOM      7  C   UNL     1      -4.821  -2.580  -1.033  0.00  0.00    -0.004 A 
ATOM      8  S   UNL     1      -5.035  -2.662   0.721  0.00  0.00    -0.077 S 
ATOM      9  C   UNL     1      -3.439  -2.491   1.214  0.00  0.00    +0.086 A 
ATOM     10  C   UNL     1      -5.865  -2.670  -2.102  0.00  0.00    +0.043 C 
ATOM     11  C   UNL     1      -5.253  -2.169  -3.418  0.00  0.00    +0.005 C 
ATOM     12  C   UNL     1      -3.891  -2.841  -3.619  0.00  0.00    +0.005 C 
ATOM     13  C   UNL     1      -2.887  -2.297  -2.600  0.00  0.00    +0.037 C 
BRANCH   5  14
ATOM     14  C   UNL     1      -1.278  -2.185   0.022  0.00  0.00    +0.342 C 
ATOM     15  O   UNL     1      -0.547  -3.157  -0.018  0.00  0.00    -0.245 OA
BRANCH  14  16
ATOM     16  O   UNL     1      -0.748  -0.945   0.062  0.00  0.00    -0.461 OA
BRANCH  16  18
ATOM     17  C   UNL     1       1.088   0.625   0.103  0.00  0.00    +0.048 C 
ATOM     18  C   UNL     1       0.677  -0.848   0.054  0.00  0.00    +0.229 C 
ENDBRANCH  16  18
ENDBRANCH  14  16
ENDBRANCH   5  14
ENDBRANCH   1   9
BRANCH   2  19
ATOM     19  C   UNL     1      -3.244  -2.607   4.960  0.00  0.00    +0.175 C 
BRANCH  19  20
ATOM     20  S   UNL     1      -4.611  -2.816   6.133  0.00  0.00    -0.056 S 
BRANCH  20  21
ATOM     21  C   UNL     1      -3.828  -2.781   7.711  0.00  0.00    +0.278 A 
ATOM     22  N   UNL     1      -2.543  -2.628   7.938  0.00  0.00    -0.101 NA
ATOM     23  N   UNL     1      -2.327  -2.652   9.206  0.00  0.00    -0.106 NA
ATOM     24  C   UNL     1      -3.462  -2.820   9.839  0.00  0.00    +0.251 A 
ATOM     25  O   UNL     1      -4.437  -2.899   8.906  0.00  0.00    -0.411 OA
BRANCH  24  26
ATOM     26  C   UNL     1      -3.644  -2.901  11.303  0.00  0.00    +0.069 A 
ATOM     27  C   UNL     1      -4.249  -4.023  11.873  0.00  0.00    +0.015 A 
ATOM     28  C   UNL     1      -4.416  -4.092  13.241  0.00  0.00    +0.001 A 
ATOM     29  C   UNL     1      -3.985  -3.054  14.047  0.00  0.00    +0.002 A 
ATOM     30  C   UNL     1      -3.384  -1.939  13.489  0.00  0.00    +0.033 A 
ATOM     31  C   UNL     1      -3.206  -1.860  12.123  0.00  0.00    +0.138 A 
BRANCH  31  32
ATOM     32  N   UNL     1      -2.557  -0.669  11.527  0.00  0.00    +0.057 N 
ATOM     33  O   UNL     1      -2.082   0.182  12.243  0.00  0.00    -0.126 OA
ATOM     34  O   UNL     1      -2.501  -0.549  10.326  0.00  0.00    -0.126 OA
ENDBRANCH  31  32
ENDBRANCH  24  26
ENDBRANCH  20  21
ENDBRANCH  19  20
ENDBRANCH   2  19
TORSDOF 9
