REMARK  Name = ZINC09272986
REMARK  16 active torsions:
REMARK  status: ('A' for Active; 'I' for Inactive)
REMARK    1  A    between atoms: C_1  and  C_2
REMARK    2  A    between atoms: C_2  and  O_3
REMARK    3  A    between atoms: O_3  and  C_4
REMARK    4  A    between atoms: C_7  and  C_12
REMARK    5  A    between atoms: C_9  and  O_10
REMARK    6  A    between atoms: O_10  and  C_11
REMARK    7  A    between atoms: C_14  and  C_15
REMARK    8  A    between atoms: C_15  and  C_16
REMARK    9  A    between atoms: C_19  and  O_23
REMARK   10  A    between atoms: C_20  and  C_22
REMARK   11  A    between atoms: O_23  and  C_24
REMARK   12  A    between atoms: N_30  and  C_31
REMARK   13  A    between atoms: C_31  and  C_32
REMARK   14  A    between atoms: C_32  and  C_33
REMARK   15  A    between atoms: C_33  and  O_34
REMARK   16  A    between atoms: O_34  and  C_35
REMARK                            x       y       z     vdW  Elec       q    Type
REMARK                         _______ _______ _______ _____ _____    ______ ____
ROOT
ATOM      1  C   UNL     1      -1.937  -6.034   0.267  0.00  0.00    +0.145 C 
ATOM      2  C   UNL     1      -1.850  -6.647   1.645  0.00  0.00    +0.076 C 
ATOM      3  C   UNL     1      -0.958  -7.662   1.565  0.00  0.00    +0.249 C 
ATOM      4  O   UNL     1      -0.594  -8.468   2.589  0.00  0.00    -0.282 OA
ATOM      5  C   UNL     1      -0.445  -7.750   0.181  0.00  0.00    +0.288 C 
ATOM      6  O   UNL     1       0.370  -8.561  -0.209  0.00  0.00    -0.266 OA
ATOM      7  N   UNL     1      -1.016  -6.799  -0.581  0.00  0.00    -0.283 N 
ENDROOT
BRANCH   1  11
ATOM      8  C   UNL     1      -0.737  -1.931   0.405  0.00  0.00    +0.162 A 
ATOM      9  C   UNL     1       0.194  -2.936   0.612  0.00  0.00    +0.050 A 
ATOM     10  C   UNL     1      -0.197  -4.261   0.567  0.00  0.00    +0.009 A 
ATOM     11  C   UNL     1      -1.516  -4.588   0.315  0.00  0.00    -0.019 A 
ATOM     12  C   UNL     1      -2.451  -3.590   0.108  0.00  0.00    +0.055 A 
ATOM     13  C   UNL     1      -2.067  -2.260   0.158  0.00  0.00    +0.162 A 
BRANCH  13  14
ATOM     14  O   UNL     1      -2.986  -1.277  -0.040  0.00  0.00    -0.491 OA
ATOM     15  C   UNL     1      -4.348  -1.683  -0.189  0.00  0.00    +0.277 C 
ENDBRANCH  13  14
BRANCH   8  16
ATOM     16  O   UNL     1      -0.354  -0.627   0.450  0.00  0.00    -0.489 OA
BRANCH  16  18
ATOM     17  C   UNL     1       1.265   1.146   0.721  0.00  0.00    +0.048 C 
ATOM     18  C   UNL     1       1.026  -0.365   0.708  0.00  0.00    +0.226 C 
ENDBRANCH  16  18
ENDBRANCH   8  16
ENDBRANCH   1  11
BRANCH   2  19
ATOM     19  C   UNL     1      -2.589  -6.224   2.839  0.00  0.00    +0.195 C 
ATOM     20  O   UNL     1      -1.988  -5.788   3.803  0.00  0.00    -0.287 OA
BRANCH  19  21
ATOM     21  C   UNL     1      -4.061  -6.327   2.870  0.00  0.00    +0.023 A 
ATOM     22  C   UNL     1      -4.748  -6.890   1.791  0.00  0.00    +0.015 A 
ATOM     23  C   UNL     1      -6.120  -6.984   1.825  0.00  0.00    +0.046 A 
ATOM     24  C   UNL     1      -6.824  -6.520   2.930  0.00  0.00    +0.123 A 
ATOM     25  C   UNL     1      -6.145  -5.959   4.006  0.00  0.00    -0.008 A 
ATOM     26  C   UNL     1      -4.772  -5.866   3.983  0.00  0.00    +0.018 A 
ATOM     27  C   UNL     1      -6.913  -5.457   5.201  0.00  0.00    +0.047 C 
BRANCH  24  28
ATOM     28  O   UNL     1      -8.178  -6.615   2.960  0.00  0.00    -0.495 OA
ATOM     29  C   UNL     1      -8.804  -7.300   1.873  0.00  0.00    +0.277 C 
ENDBRANCH  24  28
ENDBRANCH  19  21
ENDBRANCH   2  19
BRANCH   7  30
ATOM     30  C   UNL     1      -0.762  -6.569  -2.006  0.00  0.00    +0.111 C 
BRANCH  30  31
ATOM     31  C   UNL     1       0.393  -5.578  -2.164  0.00  0.00    +0.047 C 
BRANCH  31  32
ATOM     32  C   UNL     1       0.658  -5.338  -3.652  0.00  0.00    +0.161 C 
BRANCH  32  33
ATOM     33  O   UNL     1       1.736  -4.413  -3.800  0.00  0.00    -0.383 OA
ATOM     34  C   UNL     1       2.067  -4.118  -5.159  0.00  0.00    +0.193 C 
ENDBRANCH  32  33
ENDBRANCH  31  32
ENDBRANCH  30  31
ENDBRANCH   7  30
TORSDOF 11
