REMARK  Name = ZINC41584910
REMARK  6 active torsions:
REMARK  status: ('A' for Active; 'I' for Inactive)
REMARK    1  A    between atoms: C_4  and  C_7
REMARK    2  A    between atoms: C_7  and  N_8
REMARK    3  A    between atoms: N_11  and  C_14
REMARK    4  A    between atoms: C_14  and  C_15
REMARK    5  A    between atoms: C_16  and  O_33
REMARK    6  A    between atoms: C_23  and  C_24
REMARK                            x       y       z     vdW  Elec       q    Type
REMARK                         _______ _______ _______ _____ _____    ______ ____
ROOT
ATOM      1  C   UNL     1       6.720  -3.806   4.668  0.00  0.00    +0.051 A 
ATOM      2  C   UNL     1       6.653  -5.189   4.613  0.00  0.00    +0.125 A 
ATOM      3  C   UNL     1       7.816  -5.953   4.575  0.00  0.00    +0.046 A 
ATOM      4  C   UNL     1       9.039  -5.343   4.592  0.00  0.00    +0.019 A 
ATOM      5  C   UNL     1       9.121  -3.951   4.647  0.00  0.00    +0.068 A 
ATOM      6  C   UNL     1       7.954  -3.170   4.680  0.00  0.00    +0.147 A 
ATOM      7  O   UNL     1       8.284  -1.861   4.725  0.00  0.00    -0.451 OA
ATOM      8  C   UNL     1       9.625  -1.679   4.719  0.00  0.00    +0.176 C 
ATOM      9  C   UNL     1      10.272  -0.487   4.757  0.00  0.00    +0.058 C 
ATOM     10  C   UNL     1      10.254  -3.009   4.679  0.00  0.00    +0.231 C 
ATOM     11  O   UNL     1      11.443  -3.272   4.662  0.00  0.00    -0.283 OA
ENDROOT
BRANCH   9  12
ATOM     12  C   UNL     1       9.508   0.766   4.697  0.00  0.00    -0.021 A 
ATOM     13  C   UNL     1      10.175   1.993   4.600  0.00  0.00    +0.009 A 
ATOM     14  C   UNL     1       9.451   3.165   4.544  0.00  0.00    +0.016 A 
ATOM     15  C   UNL     1       8.067   3.130   4.583  0.00  0.00    +0.018 A 
ATOM     16  C   UNL     1       7.399   1.920   4.679  0.00  0.00    +0.016 A 
ATOM     17  C   UNL     1       8.109   0.740   4.729  0.00  0.00    +0.009 A 
ATOM     18 BR   UNL     1       7.084   4.744   4.506  0.00  0.00    -0.050 Br
ENDBRANCH   9  12
BRANCH   2  19
ATOM     19  O   UNL     1       5.443  -5.804   4.596  0.00  0.00    -0.506 OA
ATOM     20  H   UNL     1       5.087  -5.947   3.709  0.00  0.00    +0.292 HD
ENDBRANCH   2  19
BRANCH   1  21
ATOM     21  C   UNL     1       5.452  -2.992   4.709  0.00  0.00    +0.126 C 
BRANCH  21  25
ATOM     22  N   UNL     1       4.208  -0.919   1.241  0.00  0.00    +0.384 N 
ATOM     23  C   UNL     1       3.252  -1.835   1.879  0.00  0.00    -0.063 C 
ATOM     24  C   UNL     1       3.679  -2.092   3.325  0.00  0.00    +0.066 C 
ATOM     25  N   UNL     1       5.028  -2.677   3.338  0.00  0.00    -0.301 NA
ATOM     26  C   UNL     1       5.991  -1.782   2.681  0.00  0.00    +0.066 C 
ATOM     27  C   UNL     1       5.545  -1.527   1.240  0.00  0.00    -0.063 C 
ATOM     28  H   UNL     1       4.234  -0.051   1.754  0.00  0.00    -0.081 HD
BRANCH  22  29
ATOM     29  C   UNL     1       3.787  -0.658  -0.142  0.00  0.00    -0.043 C 
BRANCH  29  33
ATOM     30  C   UNL     1       0.057   1.423  -0.129  0.00  0.00    +0.000 A 
ATOM     31  C   UNL     1       1.244   2.132  -0.111  0.00  0.00    +0.000 A 
ATOM     32  C   UNL     1       2.451   1.458  -0.114  0.00  0.00    +0.002 A 
ATOM     33  C   UNL     1       2.471   0.076  -0.137  0.00  0.00    -0.064 A 
ATOM     34  C   UNL     1       1.284  -0.632  -0.155  0.00  0.00    +0.002 A 
ATOM     35  C   UNL     1       0.077   0.041  -0.152  0.00  0.00    +0.000 A 
ENDBRANCH  29  33
ENDBRANCH  22  29
ENDBRANCH  21  25
ENDBRANCH   1  21
TORSDOF 6
