REMARK  Name = ZINC35034031
REMARK  11 active torsions:
REMARK  status: ('A' for Active; 'I' for Inactive)
REMARK    1  A    between atoms: C_1  and  C_2
REMARK    2  A    between atoms: C_2  and  N_3
REMARK    3  A    between atoms: C_13  and  C_14
REMARK    4  A    between atoms: C_14  and  C_16
REMARK    5  A    between atoms: C_14  and  N_17
REMARK    6  A    between atoms: N_17  and  C_18
REMARK    7  A    between atoms: C_18  and  C_19
REMARK    8  A    between atoms: C_19  and  N_20
REMARK    9  A    between atoms: N_20  and  C_21
REMARK   10  A    between atoms: N_20  and  C_22
REMARK   11  A    between atoms: N_25  and  C_26
REMARK                            x       y       z     vdW  Elec       q    Type
REMARK                         _______ _______ _______ _____ _____    ______ ____
ROOT
ATOM      1  N   UNL     1      -1.855  -0.716   3.936  0.00  0.00    -0.277 N 
ATOM      2  C   UNL     1      -2.833  -1.635   4.065  0.00  0.00    +0.307 C 
ATOM      3  O   UNL     1      -3.105  -2.368   3.134  0.00  0.00    -0.252 OA
ATOM      4  N   UNL     1      -3.509  -1.741   5.226  0.00  0.00    -0.268 N 
ATOM      5  H   UNL     1      -3.340  -1.111   5.944  0.00  0.00    +0.156 HD
ENDROOT
BRANCH   4   6
ATOM      6  C   UNL     1      -4.454  -2.759   5.395  0.00  0.00    +0.049 A 
ATOM      7  C   UNL     1      -5.149  -3.253   4.299  0.00  0.00    +0.024 A 
ATOM      8  C   UNL     1      -6.080  -4.258   4.468  0.00  0.00    +0.002 A 
ATOM      9  C   UNL     1      -6.322  -4.774   5.729  0.00  0.00    +0.001 A 
ATOM     10  C   UNL     1      -5.633  -4.285   6.823  0.00  0.00    +0.017 A 
ATOM     11  C   UNL     1      -4.695  -3.283   6.659  0.00  0.00    +0.039 A 
ATOM     12 BR   UNL     1      -3.747  -2.619   8.155  0.00  0.00    -0.048 Br
ENDBRANCH   4   6
BRANCH   1  13
ATOM     13  C   UNL     1      -1.120  -0.601   2.674  0.00  0.00    +0.141 C 
ATOM     14  C   UNL     1      -1.306   0.806   2.102  0.00  0.00    +0.036 C 
BRANCH  13  25
ATOM     15  N   UNL     1       0.910  -1.959   2.368  0.00  0.00    -0.295 N 
ATOM     16  C   UNL     1       2.223  -2.228   2.555  0.00  0.00    +0.262 A 
ATOM     17  O   UNL     1       2.743  -3.212   2.062  0.00  0.00    -0.267 OA
ATOM     18  C   UNL     1       2.997  -1.287   3.378  0.00  0.00    +0.065 A 
ATOM     19  C   UNL     1       4.354  -1.472   3.631  0.00  0.00    +0.017 A 
ATOM     20  C   UNL     1       5.028  -0.567   4.402  0.00  0.00    +0.021 A 
ATOM     21  C   UNL     1       4.373   0.537   4.937  0.00  0.00    +0.043 A 
ATOM     22  C   UNL     1       3.031   0.743   4.701  0.00  0.00    +0.048 A 
ATOM     23  C   UNL     1       2.322  -0.168   3.916  0.00  0.00    +0.080 A 
ATOM     24  N   UNL     1       1.001  -0.008   3.655  0.00  0.00    -0.232 NA
ATOM     25  C   UNL     1       0.345  -0.854   2.921  0.00  0.00    +0.133 A 
ATOM     26 CL   UNL     1       5.256   1.669   5.913  0.00  0.00    -0.083 Cl
BRANCH  15  28
ATOM     27  C   UNL     1       0.040  -2.350   0.116  0.00  0.00    +0.027 C 
ATOM     28  C   UNL     1       0.092  -2.863   1.556  0.00  0.00    +0.123 C 
ENDBRANCH  15  28
ENDBRANCH  13  25
ENDBRANCH   1  13
BRANCH   1  29
ATOM     29  C   UNL     1      -1.528   0.168   5.058  0.00  0.00    +0.091 C 
BRANCH  29  30
ATOM     30  C   UNL     1      -2.379   1.436   4.973  0.00  0.00    -0.060 C 
BRANCH  30  31
ATOM     31  N   UNL     1      -2.050   2.322   6.098  0.00  0.00    +0.377 N 
ATOM     32  C   UNL     1      -2.779   3.589   5.952  0.00  0.00    -0.097 C 
ATOM     33  C   UNL     1      -2.438   1.676   7.359  0.00  0.00    -0.097 C 
ATOM     34  H   UNL     1      -1.058   2.503   6.105  0.00  0.00    -0.083 HD
ENDBRANCH  30  31
ENDBRANCH  29  30
ENDBRANCH   1  29
TORSDOF 7
