REMARK  Name = ZINC40947419
REMARK  10 active torsions:
REMARK  status: ('A' for Active; 'I' for Inactive)
REMARK    1  A    between atoms: C_1  and  O_2
REMARK    2  A    between atoms: O_2  and  C_3
REMARK    3  A    between atoms: C_6  and  C_9
REMARK    4  A    between atoms: C_12  and  N_18
REMARK    5  A    between atoms: C_13  and  C_14
REMARK    6  A    between atoms: C_14  and  O_16
REMARK    7  A    between atoms: O_16  and  C_17
REMARK    8  A    between atoms: C_19  and  C_21
REMARK    9  A    between atoms: C_21  and  O_22
REMARK   10  A    between atoms: O_22  and  C_23
REMARK                            x       y       z     vdW  Elec       q    Type
REMARK                         _______ _______ _______ _____ _____    ______ ____
ROOT
ATOM      1  N   UNL     1      -7.096  -5.264  -1.548  0.00  0.00    -0.277 N 
ATOM      2  C   UNL     1      -8.348  -5.695  -1.298  0.00  0.00    +0.255 C 
ATOM      3  O   UNL     1      -8.996  -5.190  -0.406  0.00  0.00    -0.272 OA
ATOM      4  H   UNL     1      -6.578  -5.668  -2.262  0.00  0.00    +0.155 HD
ENDROOT
BRANCH   1   8
ATOM      5  C   UNL     1      -4.963  -2.620   0.036  0.00  0.00    +0.005 A 
ATOM      6  C   UNL     1      -5.944  -2.302   0.919  0.00  0.00    +0.056 A 
ATOM      7  S   UNL     1      -7.262  -3.416   0.486  0.00  0.00    -0.080 S 
ATOM      8  C   UNL     1      -6.548  -4.245  -0.785  0.00  0.00    +0.086 A 
ATOM      9  C   UNL     1      -5.289  -3.678  -0.903  0.00  0.00    +0.095 A 
BRANCH   5  13
ATOM     10  C   UNL     1      -1.200  -0.637   0.010  0.00  0.00    +0.120 A 
ATOM     11  C   UNL     1      -2.374   0.104   0.020  0.00  0.00    +0.046 A 
ATOM     12  C   UNL     1      -3.596  -0.535   0.028  0.00  0.00    +0.012 A 
ATOM     13  C   UNL     1      -3.651  -1.929   0.027  0.00  0.00    -0.016 A 
ATOM     14  C   UNL     1      -2.471  -2.671   0.017  0.00  0.00    +0.012 A 
ATOM     15  C   UNL     1      -1.252  -2.025   0.003  0.00  0.00    +0.046 A 
BRANCH  10  17
ATOM     16  C   UNL     1      -0.017   1.425   0.010  0.00  0.00    +0.277 C 
ATOM     17  O   UNL     1       0.002  -0.004   0.002  0.00  0.00    -0.495 OA
ENDBRANCH  10  17
ENDBRANCH   5  13
BRANCH   9  18
ATOM     18  C   UNL     1      -4.336  -4.127  -1.918  0.00  0.00    +0.342 C 
ATOM     19  O   UNL     1      -3.558  -5.028  -1.667  0.00  0.00    -0.245 OA
BRANCH  18  20
ATOM     20  O   UNL     1      -4.319  -3.541  -3.133  0.00  0.00    -0.464 OA
ATOM     21  C   UNL     1      -3.361  -4.029  -4.075  0.00  0.00    +0.280 C 
ENDBRANCH  18  20
ENDBRANCH   9  18
ENDBRANCH   1   8
BRANCH   2  22
ATOM     22  C   UNL     1      -8.944  -6.803  -2.128  0.00  0.00    +0.324 C 
BRANCH  22  23
ATOM     23  O   UNL     1     -10.271  -7.078  -1.674  0.00  0.00    -0.483 OA
BRANCH  23  24
ATOM     24  C   UNL     1     -10.953  -8.057  -2.321  0.00  0.00    +0.125 A 
ATOM     25  C   UNL     1     -10.347  -8.743  -3.372  0.00  0.00    +0.046 A 
ATOM     26  C   UNL     1     -11.019  -9.730  -4.032  0.00  0.00    +0.015 A 
ATOM     27  C   UNL     1     -12.326 -10.056  -3.651  0.00  0.00    +0.021 A 
ATOM     28  C   UNL     1     -12.943  -9.367  -2.590  0.00  0.00    +0.143 A 
ATOM     29  C   UNL     1     -12.243  -8.370  -1.927  0.00  0.00    +0.092 A 
ATOM     30  O   UNL     1     -14.204  -9.685  -2.228  0.00  0.00    -0.422 OA
ATOM     31  C   UNL     1     -14.894 -10.645  -2.862  0.00  0.00    +0.341 A 
ATOM     32  O   UNL     1     -16.033 -10.889  -2.505  0.00  0.00    -0.245 OA
ATOM     33  C   UNL     1     -14.338 -11.380  -3.933  0.00  0.00    +0.041 A 
ATOM     34  C   UNL     1     -13.072 -11.111  -4.341  0.00  0.00    -0.027 A 
ATOM     35  C   UNL     1     -12.687 -12.014  -5.490  0.00  0.00    +0.036 C 
ATOM     36  C   UNL     1     -13.717 -13.164  -5.458  0.00  0.00    +0.010 C 
ATOM     37  C   UNL     1     -14.928 -12.491  -4.774  0.00  0.00    +0.043 C 
ENDBRANCH  23  24
ENDBRANCH  22  23
ENDBRANCH   2  22
TORSDOF 8
