REMARK  Name = ZINC35301399
REMARK  9 active torsions:
REMARK  status: ('A' for Active; 'I' for Inactive)
REMARK    1  A    between atoms: C_1  and  C_2
REMARK    2  A    between atoms: C_5  and  C_37
REMARK    3  A    between atoms: C_6  and  C_8
REMARK    4  A    between atoms: C_8  and  C_9
REMARK    5  A    between atoms: C_10  and  C_23
REMARK    6  A    between atoms: N_12  and  C_17
REMARK    7  A    between atoms: C_17  and  C_18
REMARK    8  A    between atoms: C_27  and  O_29
REMARK    9  A    between atoms: O_29  and  C_30
REMARK                            x       y       z     vdW  Elec       q    Type
REMARK                         _______ _______ _______ _____ _____    ______ ____
ROOT
ATOM      1  C   UNL     1      -0.107  -2.434   3.624  0.00  0.00    +0.076 C 
ATOM      2  C   UNL     1      -0.080  -0.948   3.896  0.00  0.00    +0.145 C 
ATOM      3  N   UNL     1      -0.217  -0.794   5.349  0.00  0.00    -0.276 N 
ATOM      4  C   UNL     1      -0.314  -2.023   5.887  0.00  0.00    +0.288 C 
ATOM      5  O   UNL     1      -0.439  -2.257   7.073  0.00  0.00    -0.266 OA
ATOM      6  C   UNL     1      -0.253  -3.047   4.822  0.00  0.00    +0.249 C 
ATOM      7  O   UNL     1      -0.327  -4.384   5.015  0.00  0.00    -0.282 OA
ENDROOT
BRANCH   2   8
ATOM      8  C   UNL     1       1.228  -0.361   3.433  0.00  0.00    -0.019 A 
ATOM      9  C   UNL     1       2.389  -0.617   4.140  0.00  0.00    +0.006 A 
ATOM     10  C   UNL     1       3.591  -0.081   3.719  0.00  0.00    +0.004 A 
ATOM     11  C   UNL     1       3.636   0.714   2.589  0.00  0.00    +0.046 A 
ATOM     12  C   UNL     1       2.473   0.973   1.878  0.00  0.00    +0.129 A 
ATOM     13  C   UNL     1       1.269   0.428   2.300  0.00  0.00    +0.052 A 
BRANCH  12  14
ATOM     14  O   UNL     1       2.515   1.754   0.767  0.00  0.00    -0.456 OA
BRANCH  14  15
ATOM     15  C   UNL     1       2.052   3.028   0.866  0.00  0.00    +0.128 A 
ATOM     16  C   UNL     1       1.667   3.534   2.099  0.00  0.00    +0.046 A 
ATOM     17  C   UNL     1       1.197   4.830   2.196  0.00  0.00    +0.004 A 
ATOM     18  C   UNL     1       1.111   5.622   1.066  0.00  0.00    +0.000 A 
ATOM     19  C   UNL     1       1.494   5.120  -0.164  0.00  0.00    +0.004 A 
ATOM     20  C   UNL     1       1.970   3.827  -0.266  0.00  0.00    +0.046 A 
ENDBRANCH  14  15
ENDBRANCH  12  14
ENDBRANCH   2   8
BRANCH   1  21
ATOM     21  C   UNL     1      -0.003  -3.086   2.316  0.00  0.00    +0.195 C 
ATOM     22  O   UNL     1       0.054  -4.299   2.243  0.00  0.00    -0.287 OA
BRANCH  21  28
ATOM     23  C   UNL     1       2.560  -1.131  -1.494  0.00  0.00    +0.044 C 
ATOM     24  C   UNL     1       1.263  -1.326  -0.751  0.00  0.00    -0.050 A 
ATOM     25  C   UNL     1       0.102  -0.739  -1.224  0.00  0.00    +0.003 A 
ATOM     26  C   UNL     1      -1.093  -0.913  -0.548  0.00  0.00    +0.004 A 
ATOM     27  C   UNL     1      -1.134  -1.674   0.602  0.00  0.00    -0.040 A 
ATOM     28  C   UNL     1       0.034  -2.269   1.084  0.00  0.00    +0.025 A 
ATOM     29  C   UNL     1       1.235  -2.094   0.394  0.00  0.00    +0.015 A 
ATOM     30  C   UNL     1      -2.437  -1.863   1.337  0.00  0.00    +0.044 C 
ENDBRANCH  21  28
ENDBRANCH   1  21
BRANCH   3  31
ATOM     31  C   UNL     1      -0.242   0.473   6.083  0.00  0.00    +0.183 C 
BRANCH  31  32
ATOM     32  C   UNL     1      -1.664   0.960   6.196  0.00  0.00    +0.122 A 
ATOM     33  C   UNL     1      -2.516   0.672   7.197  0.00  0.00    +0.046 A 
ATOM     34  C   UNL     1      -3.731   1.332   6.901  0.00  0.00    +0.041 A 
ATOM     35  C   UNL     1      -3.549   1.983   5.738  0.00  0.00    +0.195 A 
ATOM     36  O   UNL     1      -2.293   1.758   5.319  0.00  0.00    -0.466 OA
ENDBRANCH  31  32
ENDBRANCH   3  31
TORSDOF 7
