REMARK  Name = ZINC13575884
REMARK  9 active torsions:
REMARK  status: ('A' for Active; 'I' for Inactive)
REMARK    1  A    between atoms: C_1  and  C_2
REMARK    2  A    between atoms: C_5  and  S_8
REMARK    3  A    between atoms: S_8  and  N_11
REMARK    4  A    between atoms: N_11  and  C_12
REMARK    5  A    between atoms: C_12  and  C_14
REMARK    6  A    between atoms: C_12  and  C_20
REMARK    7  A    between atoms: C_20  and  O_22
REMARK    8  A    between atoms: O_22  and  C_23
REMARK    9  A    between atoms: C_33  and  C_34
REMARK                            x       y       z     vdW  Elec       q    Type
REMARK                         _______ _______ _______ _____ _____    ______ ____
ROOT
ATOM      1  C   UNL     1       1.300   3.393  -0.059  0.00  0.00    +0.215 C 
ENDROOT
BRANCH   1   2
ATOM      2  C   UNL     1       1.080   1.903  -0.114  0.00  0.00    -0.018 A 
ATOM      3  C   UNL     1      -0.200   1.390  -0.027  0.00  0.00    +0.006 A 
ATOM      4  C   UNL     1      -0.402   0.024  -0.079  0.00  0.00    +0.000 A 
ATOM      5  C   UNL     1       0.677  -0.830  -0.218  0.00  0.00    +0.000 A 
ATOM      6  C   UNL     1       1.957  -0.317  -0.305  0.00  0.00    +0.000 A 
ATOM      7  C   UNL     1       2.159   1.050  -0.254  0.00  0.00    +0.006 A 
ENDBRANCH   1   2
BRANCH   1   8
ATOM      8  N   UNL     1       2.492   3.681   0.743  0.00  0.00    -0.172 NA
ATOM      9  H   UNL     1       3.370   3.660   0.332  0.00  0.00    +0.149 HD
BRANCH   8  10
ATOM     10  S   UNL     1       2.340   4.042   2.352  0.00  0.00    +0.059 S 
ATOM     11  O   UNL     1       3.656   4.242   2.850  0.00  0.00    -0.153 OA
ATOM     12  O   UNL     1       1.329   5.035   2.452  0.00  0.00    -0.153 OA
BRANCH  10  17
ATOM     13  C   UNL     1       0.192  -0.887   5.091  0.00  0.00    +0.044 C 
ATOM     14  C   UNL     1       0.729   0.344   4.407  0.00  0.00    -0.050 A 
ATOM     15  C   UNL     1       2.093   0.527   4.284  0.00  0.00    +0.005 A 
ATOM     16  C   UNL     1       2.586   1.657   3.656  0.00  0.00    +0.029 A 
ATOM     17  C   UNL     1       1.713   2.602   3.152  0.00  0.00    +0.105 A 
ATOM     18  C   UNL     1       0.348   2.422   3.279  0.00  0.00    +0.029 A 
ATOM     19  C   UNL     1      -0.144   1.290   3.903  0.00  0.00    +0.005 A 
ENDBRANCH  10  17
ENDBRANCH   8  10
ENDBRANCH   1   8
BRANCH   1  20
ATOM     20  C   UNL     1       1.494   3.925  -1.456  0.00  0.00    +0.336 C 
ATOM     21  O   UNL     1       2.522   4.487  -1.751  0.00  0.00    -0.248 OA
BRANCH  20  22
ATOM     22  O   UNL     1       0.524   3.774  -2.372  0.00  0.00    -0.424 OA
BRANCH  22  23
ATOM     23  C   UNL     1       0.726   4.353  -3.584  0.00  0.00    +0.138 A 
ATOM     24  C   UNL     1       1.279   3.606  -4.622  0.00  0.00    +0.047 A 
ATOM     25  C   UNL     1       1.488   4.172  -5.846  0.00  0.00    +0.015 A 
ATOM     26  C   UNL     1       1.144   5.512  -6.059  0.00  0.00    +0.022 A 
ATOM     27  C   UNL     1       1.362   6.144  -7.368  0.00  0.00    -0.027 A 
ATOM     28  C   UNL     1       1.005   7.437  -7.522  0.00  0.00    +0.041 A 
ATOM     29  C   UNL     1       0.449   8.140  -6.423  0.00  0.00    +0.341 A 
ATOM     30  O   UNL     1       0.137   9.308  -6.569  0.00  0.00    -0.245 OA
ATOM     31  O   UNL     1       0.257   7.561  -5.231  0.00  0.00    -0.422 OA
ATOM     32  C   UNL     1       0.586   6.270  -5.016  0.00  0.00    +0.146 A 
ATOM     33  C   UNL     1       0.375   5.678  -3.779  0.00  0.00    +0.035 A 
ATOM     34  C   UNL     1      -0.228   6.476  -2.652  0.00  0.00    +0.051 C 
ATOM     35  C   UNL     1       1.165   8.175  -8.824  0.00  0.00    +0.042 C 
ATOM     36  C   UNL     1       2.153   7.449  -9.736  0.00  0.00    +0.005 C 
ATOM     37  C   UNL     1       1.734   5.977  -9.828  0.00  0.00    +0.005 C 
ATOM     38  C   UNL     1       1.977   5.324  -8.468  0.00  0.00    +0.036 C 
ENDBRANCH  22  23
ENDBRANCH  20  22
ENDBRANCH   1  20
TORSDOF 7
