REMARK  Name = ZINC09216079
REMARK  4 active torsions:
REMARK  status: ('A' for Active; 'I' for Inactive)
REMARK    1  A    between atoms: C_15  and  C_17
REMARK    2  A    between atoms: C_17  and  C_19
REMARK    3  A    between atoms: N_26  and  C_29
REMARK    4  A    between atoms: C_33  and  C_35
REMARK                            x       y       z     vdW  Elec       q    Type
REMARK                         _______ _______ _______ _____ _____    ______ ____
ROOT
ATOM      1  C   UNL     1       4.066  -3.714  -3.104  0.00  0.00    +0.001 A 
ATOM      2  C   UNL     1       4.371  -2.997  -1.961  0.00  0.00    +0.000 A 
ATOM      3  C   UNL     1       3.572  -1.936  -1.568  0.00  0.00    +0.006 A 
ATOM      4  C   UNL     1       2.470  -1.592  -2.317  0.00  0.00    -0.021 A 
ATOM      5  C   UNL     1       2.155  -2.309  -3.478  0.00  0.00    -0.019 A 
ATOM      6  C   UNL     1       2.965  -3.378  -3.864  0.00  0.00    +0.008 A 
ATOM      7  C   UNL     1       0.980  -1.933  -4.290  0.00  0.00    +0.022 C 
ATOM      8  C   UNL     1       0.022  -1.155  -3.748  0.00  0.00    +0.054 C 
ATOM      9  C   UNL     1       1.579  -0.447  -1.914  0.00  0.00    +0.100 C 
ATOM     10  C   UNL     1       1.468  -0.333  -0.389  0.00  0.00    +0.113 C 
ATOM     11  C   UNL     1      -0.032   0.025  -0.155  0.00  0.00    +0.116 C 
ATOM     12  C   UNL     1      -0.755  -0.557  -1.378  0.00  0.00    +0.144 C 
ATOM     13  C   UNL     1      -0.007   1.536  -0.225  0.00  0.00    +0.232 C 
ATOM     14  O   UNL     1      -0.959   2.253  -0.450  0.00  0.00    -0.274 OA
ATOM     15  N   UNL     1       1.251   1.947   0.001  0.00  0.00    -0.210 N 
ATOM     16  C   UNL     1       2.152   0.953   0.047  0.00  0.00    +0.232 C 
ATOM     17  O   UNL     1       3.313   1.063   0.379  0.00  0.00    -0.274 OA
ATOM     18  N   UNL     1       0.247  -0.372  -2.464  0.00  0.00    -0.384 NA
ATOM     19  H   UNL     1       0.139   0.608  -2.753  0.00  0.00    +0.127 HD
ENDROOT
BRANCH  15  20
ATOM     20  C   UNL     1       1.594   3.296   0.172  0.00  0.00    +0.045 A 
ATOM     21  C   UNL     1       2.381   3.939  -0.774  0.00  0.00    +0.025 A 
ATOM     22  C   UNL     1       2.712   5.269  -0.606  0.00  0.00    +0.022 A 
ATOM     23  C   UNL     1       2.271   5.957   0.510  0.00  0.00    +0.053 A 
ATOM     24  C   UNL     1       1.491   5.317   1.457  0.00  0.00    +0.075 A 
ATOM     25  C   UNL     1       1.152   3.989   1.291  0.00  0.00    +0.037 A 
ATOM     26 CL   UNL     1       2.695   7.627   0.723  0.00  0.00    -0.083 Cl
BRANCH  24  27
ATOM     27  C   UNL     1       1.011   6.070   2.671  0.00  0.00    +0.419 C 
ATOM     28  F   UNL     1       0.246   5.219   3.476  0.00  0.00    -0.166 F 
ATOM     29  F   UNL     1       2.112   6.534   3.398  0.00  0.00    -0.166 F 
ATOM     30  F   UNL     1       0.228   7.157   2.267  0.00  0.00    -0.166 F 
ENDBRANCH  24  27
ENDBRANCH  15  20
BRANCH  12  31
ATOM     31  C   UNL     1      -1.840   0.387  -1.827  0.00  0.00    +0.217 C 
ATOM     32  O   UNL     1      -1.682   1.064  -2.822  0.00  0.00    -0.287 OA
BRANCH  31  33
ATOM     33  C   UNL     1      -3.042   0.484  -1.090  0.00  0.00    +0.172 A 
ATOM     34  C   UNL     1      -4.114   1.303  -1.385  0.00  0.00    +0.053 A 
ATOM     35  C   UNL     1      -5.076   1.072  -0.393  0.00  0.00    +0.042 A 
ATOM     36  C   UNL     1      -4.568   0.144   0.450  0.00  0.00    +0.196 A 
ATOM     37  O   UNL     1      -3.349  -0.211   0.026  0.00  0.00    -0.460 OA
ENDBRANCH  31  33
ENDBRANCH  12  31
TORSDOF 4
