REMARK  Name = ZINC43287017
REMARK  8 active torsions:
REMARK  status: ('A' for Active; 'I' for Inactive)
REMARK    1  A    between atoms: C_1  and  C_2
REMARK    2  A    between atoms: C_2  and  C_4
REMARK    3  A    between atoms: C_2  and  N_21
REMARK    4  A    between atoms: C_4  and  C_6
REMARK    5  A    between atoms: C_4  and  N_12
REMARK    6  A    between atoms: N_12  and  C_13
REMARK    7  A    between atoms: N_12  and  C_14
REMARK    8  A    between atoms: C_14  and  C_15
REMARK                            x       y       z     vdW  Elec       q    Type
REMARK                         _______ _______ _______ _____ _____    ______ ____
ROOT
ATOM      1  C   UNL     1       0.742  -0.511   1.242  0.00  0.00    +0.079 C 
ENDROOT
BRANCH   1   2
ATOM      2  C   UNL     1      -0.030  -0.130   2.478  0.00  0.00    +0.006 A 
ATOM      3  C   UNL     1      -0.860  -0.889   3.234  0.00  0.00    +0.028 A 
ATOM      4  C   UNL     1      -1.468  -0.321   4.339  0.00  0.00    +0.025 A 
ATOM      5  C   UNL     1      -1.215   0.978   4.633  0.00  0.00    +0.060 A 
ATOM      6  S   UNL     1      -0.081   1.437   3.333  0.00  0.00    -0.099 S 
ATOM      7 BR   UNL     1      -2.635  -1.341   5.423  0.00  0.00    -0.050 Br
ENDBRANCH   1   2
BRANCH   1   9
ATOM      8  C   UNL     1      -0.019   1.526   0.010  0.00  0.00    -0.012 C 
ATOM      9  C   UNL     1       0.002  -0.004   0.002  0.00  0.00    -0.056 C 
BRANCH   9  10
ATOM     10  N   UNL     1      -1.376  -0.512   0.012  0.00  0.00    +0.381 N 
ATOM     11  H   UNL     1      -1.848  -0.187   0.843  0.00  0.00    -0.090 HD
ATOM     12  H   UNL     1      -1.864  -0.178  -0.805  0.00  0.00    -0.090 HD
ATOM     13  H   UNL     1      -1.362  -1.521   0.007  0.00  0.00    -0.090 HD
ENDBRANCH   9  10
ENDBRANCH   1   9
BRANCH   1  14
ATOM     14  N   UNL     1       2.080   0.093   1.294  0.00  0.00    -0.295 NA
ATOM     15  C   UNL     1       2.787  -0.298   2.521  0.00  0.00    +0.105 C 
BRANCH  14  16
ATOM     16  C   UNL     1       2.863  -0.258   0.102  0.00  0.00    +0.120 C 
BRANCH  16  17
ATOM     17  C   UNL     1       4.124   0.566   0.068  0.00  0.00    -0.025 A 
ATOM     18  C   UNL     1       4.142   1.796  -0.565  0.00  0.00    +0.028 A 
ATOM     19  C   UNL     1       5.293   2.512  -0.577  0.00  0.00    +0.055 A 
ATOM     20  S   UNL     1       6.403   1.443   0.325  0.00  0.00    -0.090 S 
ATOM     21  C   UNL     1       5.256   0.116   0.662  0.00  0.00    +0.051 A 
ATOM     22 BR   UNL     1       5.635   4.204  -1.349  0.00  0.00    -0.043 Br
ENDBRANCH  16  17
ENDBRANCH  14  16
ENDBRANCH   1  14
TORSDOF 6
