REMARK  Name = ZINC35095774
REMARK  12 active torsions:
REMARK  status: ('A' for Active; 'I' for Inactive)
REMARK    1  A    between atoms: C_1  and  C_2
REMARK    2  A    between atoms: C_2  and  C_39
REMARK    3  A    between atoms: C_7  and  C_11
REMARK    4  A    between atoms: C_11  and  N_12
REMARK    5  A    between atoms: N_12  and  C_13
REMARK    6  A    between atoms: N_12  and  C_22
REMARK    7  A    between atoms: C_13  and  C_14
REMARK    8  A    between atoms: C_14  and  C_15
REMARK    9  A    between atoms: C_15  and  C_16
REMARK   10  A    between atoms: C_22  and  C_23
REMARK   11  A    between atoms: C_23  and  N_24
REMARK   12  A    between atoms: C_30  and  C_32
REMARK                            x       y       z     vdW  Elec       q    Type
REMARK                         _______ _______ _______ _____ _____    ______ ____
ROOT
ATOM      1  N   UNL     1       1.898  -2.253   1.382  0.00  0.00    +0.383 N 
ATOM      2  H   UNL     1       1.345  -2.711   0.674  0.00  0.00    -0.081 HD
ENDROOT
BRANCH   1   3
ATOM      3  C   UNL     1       1.402  -2.632   2.712  0.00  0.00    -0.047 C 
BRANCH   3   9
ATOM      4  C   UNL     1       5.960  -1.710   4.671  0.00  0.00    +0.012 C 
ATOM      5  C   UNL     1       4.527  -1.248   4.404  0.00  0.00    -0.025 C 
ATOM      6  C   UNL     1       3.757  -0.833   5.675  0.00  0.00    -0.000 C 
ATOM      7  C   UNL     1       2.508  -0.017   5.314  0.00  0.00    +0.031 C 
ATOM      8  C   UNL     1       1.708  -0.749   4.264  0.00  0.00    -0.029 C 
ATOM      9  C   UNL     1       2.166  -1.875   3.768  0.00  0.00    -0.086 C 
ATOM     10  C   UNL     1       3.508  -2.399   4.311  0.00  0.00    +0.019 C 
ATOM     11  C   UNL     1       3.481  -2.335   5.858  0.00  0.00    +0.012 C 
ATOM     12  C   UNL     1       4.427  -0.239   3.259  0.00  0.00    +0.012 C 
ENDBRANCH   3   9
ENDBRANCH   1   3
BRANCH   1  13
ATOM     13  C   UNL     1       1.795  -0.797   1.218  0.00  0.00    -0.078 C 
BRANCH  13  14
ATOM     14  C   UNL     1       0.321  -0.388   1.203  0.00  0.00    -0.014 C 
BRANCH  14  15
ATOM     15  C   UNL     1       0.210   1.108   0.904  0.00  0.00    +0.033 C 
BRANCH  15  16
ATOM     16  C   UNL     1      -1.232   1.535   1.008  0.00  0.00    -0.047 A 
ATOM     17  C   UNL     1      -2.076   1.388  -0.076  0.00  0.00    +0.003 A 
ATOM     18  C   UNL     1      -3.399   1.780   0.019  0.00  0.00    +0.000 A 
ATOM     19  C   UNL     1      -3.876   2.319   1.199  0.00  0.00    +0.000 A 
ATOM     20  C   UNL     1      -3.032   2.465   2.284  0.00  0.00    +0.000 A 
ATOM     21  C   UNL     1      -1.711   2.070   2.190  0.00  0.00    +0.003 A 
ENDBRANCH  15  16
ENDBRANCH  14  15
ENDBRANCH  13  14
ENDBRANCH   1  13
BRANCH   1  22
ATOM     22  C   UNL     1       3.302  -2.663   1.248  0.00  0.00    -0.063 C 
BRANCH  22  23
ATOM     23  C   UNL     1       3.391  -4.191   1.265  0.00  0.00    +0.066 C 
BRANCH  23  24
ATOM     24  N   UNL     1       4.795  -4.601   1.131  0.00  0.00    -0.301 NA
ATOM     25  C   UNL     1       5.329  -4.227  -0.186  0.00  0.00    +0.103 C 
ATOM     26  C   UNL     1       6.836  -4.506  -0.220  0.00  0.00    +0.123 C 
ATOM     27  N   UNL     1       7.061  -5.907   0.168  0.00  0.00    -0.295 N 
ATOM     28  C   UNL     1       6.441  -6.393   1.409  0.00  0.00    +0.123 C 
ATOM     29  C   UNL     1       4.950  -6.040   1.379  0.00  0.00    +0.103 C 
ATOM     30  C   UNL     1       7.815  -6.723  -0.595  0.00  0.00    +0.247 C 
ATOM     31  O   UNL     1       7.907  -7.902  -0.315  0.00  0.00    -0.270 OA
BRANCH  30  32
ATOM     32  C   UNL     1       8.531  -6.184  -1.770  0.00  0.00    +0.037 A 
ATOM     33  C   UNL     1       9.130  -4.924  -1.709  0.00  0.00    +0.014 A 
ATOM     34  C   UNL     1       9.796  -4.426  -2.808  0.00  0.00    +0.021 A 
ATOM     35  C   UNL     1       9.873  -5.173  -3.972  0.00  0.00    +0.041 A 
ATOM     36  C   UNL     1       9.281  -6.424  -4.039  0.00  0.00    +0.021 A 
ATOM     37  C   UNL     1       8.616  -6.934  -2.944  0.00  0.00    +0.014 A 
ATOM     38 CL   UNL     1      10.713  -4.540  -5.353  0.00  0.00    -0.084 Cl
ENDBRANCH  30  32
ENDBRANCH  23  24
ENDBRANCH  22  23
ENDBRANCH   1  22
TORSDOF 10
