REMARK  Name = ZINC12488248
REMARK  14 active torsions:
REMARK  status: ('A' for Active; 'I' for Inactive)
REMARK    1  A    between atoms: C_1  and  C_2
REMARK    2  A    between atoms: C_2  and  C_3
REMARK    3  A    between atoms: C_2  and  C_4
REMARK    4  A    between atoms: C_7  and  C_10
REMARK    5  A    between atoms: C_10  and  C_12
REMARK    6  A    between atoms: C_10  and  N_19
REMARK    7  A    between atoms: N_14  and  C_15
REMARK    8  A    between atoms: C_15  and  C_16
REMARK    9  A    between atoms: C_15  and  C_17
REMARK   10  A    between atoms: C_15  and  C_18
REMARK   11  A    between atoms: N_19  and  C_20
REMARK   12  A    between atoms: C_30  and  C_32
REMARK   13  A    between atoms: C_32  and  N_33
REMARK   14  A    between atoms: C_34  and  C_36
REMARK                            x       y       z     vdW  Elec       q    Type
REMARK                         _______ _______ _______ _____ _____    ______ ____
ROOT
ATOM      1  N   UNL     1       4.094  -0.676   0.264  0.00  0.00    -0.254 N 
ATOM      2  C   UNL     1       4.821  -0.103  -0.716  0.00  0.00    +0.238 C 
ATOM      3  O   UNL     1       5.092  -0.732  -1.717  0.00  0.00    -0.274 OA
ENDROOT
BRANCH   1   4
ATOM      4  C   UNL     1       3.705   0.077   1.379  0.00  0.00    +0.041 A 
ATOM      5  C   UNL     1       4.276  -0.174   2.620  0.00  0.00    +0.027 A 
ATOM      6  C   UNL     1       3.891   0.567   3.720  0.00  0.00    +0.051 A 
ATOM      7  C   UNL     1       2.935   1.563   3.590  0.00  0.00    +0.162 A 
ATOM      8  C   UNL     1       2.364   1.819   2.349  0.00  0.00    +0.164 A 
ATOM      9  C   UNL     1       2.749   1.074   1.245  0.00  0.00    +0.073 A 
ATOM     10  O   UNL     1       1.431   2.798   2.200  0.00  0.00    -0.485 OA
ATOM     11  C   UNL     1       0.798   3.272   3.394  0.00  0.00    +0.270 C 
ATOM     12  C   UNL     1       1.884   3.517   4.449  0.00  0.00    +0.270 C 
ATOM     13  O   UNL     1       2.563   2.278   4.688  0.00  0.00    -0.485 OA
ENDBRANCH   1   4
BRANCH   1  14
ATOM     14  C   UNL     1       3.710  -2.086   0.162  0.00  0.00    +0.197 C 
BRANCH  14  18
ATOM     15  C   UNL     1       1.862  -3.325   3.809  0.00  0.00    -0.045 A 
ATOM     16  C   UNL     1       2.971  -3.999   3.332  0.00  0.00    +0.004 A 
ATOM     17  C   UNL     1       3.568  -3.599   2.151  0.00  0.00    +0.006 A 
ATOM     18  C   UNL     1       3.058  -2.523   1.448  0.00  0.00    -0.018 A 
ATOM     19  C   UNL     1       1.953  -1.846   1.928  0.00  0.00    +0.006 A 
ATOM     20  C   UNL     1       1.352  -2.250   3.106  0.00  0.00    +0.004 A 
BRANCH  15  22
ATOM     21  C   UNL     1       1.248  -2.611   6.102  0.00  0.00    +0.012 C 
ATOM     22  C   UNL     1       1.210  -3.762   5.095  0.00  0.00    +0.013 C 
ATOM     23  C   UNL     1      -0.243  -4.154   4.823  0.00  0.00    +0.012 C 
ENDBRANCH  15  22
ENDBRANCH  14  18
BRANCH  14  24
ATOM     24  C   UNL     1       2.740  -2.262  -0.978  0.00  0.00    +0.239 C 
ATOM     25  O   UNL     1       2.403  -1.304  -1.640  0.00  0.00    -0.273 OA
ATOM     26  N   UNL     1       2.248  -3.484  -1.261  0.00  0.00    -0.309 N 
ATOM     27  H   UNL     1       2.518  -4.251  -0.732  0.00  0.00    +0.149 HD
BRANCH  26  28
ATOM     28  C   UNL     1       1.305  -3.655  -2.370  0.00  0.00    +0.026 C 
ATOM     29  C   UNL     1       1.968  -3.211  -3.675  0.00  0.00    +0.031 C 
ATOM     30  C   UNL     1       0.905  -5.128  -2.476  0.00  0.00    +0.031 C 
ATOM     31  C   UNL     1       0.059  -2.805  -2.115  0.00  0.00    +0.031 C 
ENDBRANCH  26  28
ENDBRANCH  14  24
ENDBRANCH   1  14
BRANCH   2  32
ATOM     32  C   UNL     1       5.297   1.319  -0.568  0.00  0.00    +0.201 C 
BRANCH  32  33
ATOM     33  N   UNL     1       5.986   1.734  -1.792  0.00  0.00    -0.300 N 
ATOM     34  C   UNL     1       6.500   2.976  -1.889  0.00  0.00    +0.280 C 
ATOM     35  O   UNL     1       6.392   3.753  -0.958  0.00  0.00    -0.267 OA
ATOM     36  H   UNL     1       6.072   1.114  -2.534  0.00  0.00    +0.150 HD
BRANCH  34  37
ATOM     37  C   UNL     1       7.190   3.391  -3.115  0.00  0.00    +0.189 A 
ATOM     38  C   UNL     1       7.754   4.613  -3.343  0.00  0.00    +0.054 A 
ATOM     39  C   UNL     1       8.299   4.570  -4.636  0.00  0.00    +0.042 A 
ATOM     40  C   UNL     1       8.047   3.339  -5.133  0.00  0.00    +0.196 A 
ATOM     41  O   UNL     1       7.384   2.630  -4.212  0.00  0.00    -0.458 OA
ENDBRANCH  34  37
ENDBRANCH  32  33
ENDBRANCH   2  32
TORSDOF 9
