REMARK  Name = ZINC35646106
REMARK  13 active torsions:
REMARK  status: ('A' for Active; 'I' for Inactive)
REMARK    1  A    between atoms: C_1  and  C_2
REMARK    2  A    between atoms: C_2  and  O_3
REMARK    3  A    between atoms: O_3  and  C_4
REMARK    4  A    between atoms: C_4  and  C_6
REMARK    5  A    between atoms: C_7  and  C_25
REMARK    6  A    between atoms: N_8  and  C_24
REMARK    7  A    between atoms: C_12  and  C_14
REMARK    8  A    between atoms: C_17  and  C_20
REMARK    9  A    between atoms: C_20  and  C_21
REMARK   10  A    between atoms: C_20  and  C_22
REMARK   11  A    between atoms: C_20  and  C_23
REMARK   12  A    between atoms: C_25  and  N_26
REMARK   13  A    between atoms: C_33  and  C_35
REMARK                            x       y       z     vdW  Elec       q    Type
REMARK                         _______ _______ _______ _____ _____    ______ ____
ROOT
ATOM      1  C   UNL     1      -2.525  -2.487   0.582  0.00  0.00    +0.080 C 
ATOM      2  C   UNL     1      -2.925  -3.684   0.100  0.00  0.00    +0.041 C 
ATOM      3  N   UNL     1      -4.217  -3.889  -0.291  0.00  0.00    -0.260 N 
ATOM      4  C   UNL     1      -5.169  -2.950  -0.234  0.00  0.00    +0.307 C 
ATOM      5  O   UNL     1      -6.292  -3.227  -0.606  0.00  0.00    -0.252 OA
ATOM      6  N   UNL     1      -4.923  -1.706   0.223  0.00  0.00    -0.288 N 
ATOM      7  C   UNL     1      -3.559  -1.384   0.677  0.00  0.00    +0.144 C 
ATOM      8  C   UNL     1      -4.582  -5.213  -0.804  0.00  0.00    +0.139 C 
ATOM      9  H   UNL     1      -5.627  -1.040   0.256  0.00  0.00    +0.151 HD
ENDROOT
BRANCH   7  10
ATOM     10  C   UNL     1      -3.636  -0.942   2.116  0.00  0.00    -0.022 A 
ATOM     11  C   UNL     1      -4.359  -1.685   3.030  0.00  0.00    +0.006 A 
ATOM     12  C   UNL     1      -4.429  -1.280   4.349  0.00  0.00    +0.004 A 
ATOM     13  C   UNL     1      -3.775  -0.131   4.755  0.00  0.00    -0.042 A 
ATOM     14  C   UNL     1      -3.051   0.612   3.842  0.00  0.00    +0.004 A 
ATOM     15  C   UNL     1      -2.978   0.204   2.523  0.00  0.00    +0.006 A 
BRANCH  13  16
ATOM     16  C   UNL     1      -3.853   0.311   6.194  0.00  0.00    -0.013 C 
ATOM     17  C   UNL     1      -3.274  -0.781   7.095  0.00  0.00    +0.015 C 
ATOM     18  C   UNL     1      -3.049   1.600   6.375  0.00  0.00    +0.015 C 
ATOM     19  C   UNL     1      -5.314   0.564   6.572  0.00  0.00    +0.015 C 
ENDBRANCH  13  16
ENDBRANCH   7  10
BRANCH   1  20
ATOM     20  C   UNL     1      -1.187  -2.273   0.988  0.00  0.00    +0.339 C 
ATOM     21  O   UNL     1      -0.405  -3.204   1.024  0.00  0.00    -0.245 OA
BRANCH  20  22
ATOM     22  O   UNL     1      -0.778  -1.035   1.337  0.00  0.00    -0.462 OA
BRANCH  22  24
ATOM     23  C   UNL     1       0.862   0.571   2.092  0.00  0.00    +0.048 C 
ATOM     24  C   UNL     1       0.586  -0.891   1.737  0.00  0.00    +0.229 C 
ENDBRANCH  22  24
ENDBRANCH  20  22
ENDBRANCH   1  20
BRANCH   2  25
ATOM     25  C   UNL     1      -1.930  -4.810  -0.006  0.00  0.00    +0.136 C 
BRANCH  25  26
ATOM     26  N   UNL     1      -1.778  -5.455   1.305  0.00  0.00    -0.295 NA
ATOM     27  C   UNL     1      -0.525  -6.206   1.377  0.00  0.00    +0.086 C 
ATOM     28  C   UNL     1       0.030  -6.108   2.781  0.00  0.00    +0.034 C 
ATOM     29  C   UNL     1      -0.468  -7.299   3.617  0.00  0.00    +0.109 C 
ATOM     30  N   UNL     1      -1.881  -7.608   3.323  0.00  0.00    -0.300 N 
ATOM     31  C   UNL     1      -2.884  -6.577   3.151  0.00  0.00    +0.123 C 
ATOM     32  C   UNL     1      -2.952  -6.157   1.663  0.00  0.00    +0.103 C 
ATOM     33  C   UNL     1      -2.252  -8.899   3.209  0.00  0.00    +0.219 C 
ATOM     34  O   UNL     1      -3.408  -9.178   2.967  0.00  0.00    -0.275 OA
BRANCH  33  35
ATOM     35  C   UNL     1      -1.232  -9.994   3.382  0.00  0.00    +0.075 C 
ATOM     36  C   UNL     1      -0.409 -10.275   2.114  0.00  0.00    +0.013 C 
ATOM     37  C   UNL     1      -0.526 -11.768   2.463  0.00  0.00    +0.001 C 
ATOM     38  C   UNL     1      -1.814 -11.409   3.222  0.00  0.00    +0.013 C 
ENDBRANCH  33  35
ENDBRANCH  25  26
ENDBRANCH   2  25
TORSDOF 8
