REMARK  Name = ZINC63254435
REMARK  9 active torsions:
REMARK  status: ('A' for Active; 'I' for Inactive)
REMARK    1  A    between atoms: C_1  and  S_2
REMARK    2  A    between atoms: S_2  and  C_3
REMARK    3  A    between atoms: C_6  and  C_9
REMARK    4  A    between atoms: C_10  and  C_11
REMARK    5  A    between atoms: C_10  and  N_25
REMARK    6  A    between atoms: N_13  and  C_14
REMARK    7  A    between atoms: C_14  and  C_15
REMARK    8  A    between atoms: C_15  and  C_16
REMARK    9  A    between atoms: C_26  and  C_28
REMARK                            x       y       z     vdW  Elec       q    Type
REMARK                         _______ _______ _______ _____ _____    ______ ____
ROOT
ATOM      1  C   UNL     1       2.549  -1.490  -5.377  0.00  0.00    +0.036 C 
ATOM      2  C   UNL     1       3.184  -2.686  -5.363  0.00  0.00    +0.097 C 
ENDROOT
BRANCH   1   6
ATOM      3  C   UNL     1      -0.979  -0.940  -3.097  0.00  0.00    +0.008 A 
ATOM      4  C   UNL     1      -0.707  -2.181  -3.667  0.00  0.00    +0.015 A 
ATOM      5  C   UNL     1       0.433  -2.363  -4.406  0.00  0.00    +0.009 A 
ATOM      6  C   UNL     1       1.326  -1.299  -4.587  0.00  0.00    -0.023 A 
ATOM      7  C   UNL     1       1.048  -0.052  -4.012  0.00  0.00    +0.009 A 
ATOM      8  C   UNL     1      -0.097   0.122  -3.279  0.00  0.00    +0.015 A 
BRANCH   3  10
ATOM      9  C   UNL     1      -3.255  -2.335  -2.193  0.00  0.00    +0.090 C 
ATOM     10  S   UNL     1      -2.447  -0.711  -2.149  0.00  0.00    -0.129 S 
ENDBRANCH   3  10
ENDBRANCH   1   6
BRANCH   2  11
ATOM     11  C   UNL     1       2.738  -3.744  -4.448  0.00  0.00    +0.258 C 
ATOM     12  O   UNL     1       2.125  -4.703  -4.879  0.00  0.00    -0.269 OA
ATOM     13  N   UNL     1       3.008  -3.653  -3.131  0.00  0.00    -0.310 N 
ATOM     14  H   UNL     1       3.433  -2.856  -2.776  0.00  0.00    +0.149 HD
BRANCH  13  15
ATOM     15  C   UNL     1       2.660  -4.758  -2.234  0.00  0.00    +0.109 C 
BRANCH  15  16
ATOM     16  C   UNL     1       3.070  -4.402  -0.803  0.00  0.00    +0.052 C 
BRANCH  16  17
ATOM     17  C   UNL     1       2.711  -5.538   0.120  0.00  0.00    -0.040 C 
ATOM     18  C   UNL     1       3.522  -6.541   0.527  0.00  0.00    -0.001 A 
ATOM     19  C   UNL     1       4.925  -6.863   0.243  0.00  0.00    +0.010 A 
ATOM     20  C   UNL     1       5.474  -7.961   0.811  0.00  0.00    +0.001 A 
ATOM     21  C   UNL     1       4.738  -8.797   1.661  0.00  0.00    +0.002 A 
ATOM     22  C   UNL     1       3.444  -8.567   1.969  0.00  0.00    +0.026 A 
ATOM     23  C   UNL     1       2.766  -7.440   1.429  0.00  0.00    +0.043 A 
ATOM     24  N   UNL     1       1.536  -7.009   1.572  0.00  0.00    -0.380 N 
ATOM     25  C   UNL     1       1.374  -5.784   0.782  0.00  0.00    +0.144 C 
ATOM     26  H   UNL     1       0.849  -7.429   2.114  0.00  0.00    +0.160 HD
ENDBRANCH  16  17
ENDBRANCH  15  16
ENDBRANCH  13  15
ENDBRANCH   2  11
BRANCH   2  27
ATOM     27  N   UNL     1       4.266  -2.914  -6.222  0.00  0.00    -0.277 N 
ATOM     28  C   UNL     1       4.925  -4.089  -6.179  0.00  0.00    +0.248 C 
ATOM     29  O   UNL     1       4.523  -4.985  -5.462  0.00  0.00    -0.270 OA
ATOM     30  H   UNL     1       4.541  -2.227  -6.848  0.00  0.00    +0.155 HD
BRANCH  28  31
ATOM     31  C   UNL     1       6.136  -4.288  -7.003  0.00  0.00    +0.037 A 
ATOM     32  C   UNL     1       6.602  -3.259  -7.823  0.00  0.00    +0.013 A 
ATOM     33  C   UNL     1       7.733  -3.452  -8.589  0.00  0.00    +0.001 A 
ATOM     34  C   UNL     1       8.404  -4.661  -8.547  0.00  0.00    +0.000 A 
ATOM     35  C   UNL     1       7.946  -5.685  -7.737  0.00  0.00    +0.001 A 
ATOM     36  C   UNL     1       6.821  -5.504  -6.960  0.00  0.00    +0.013 A 
ENDBRANCH  28  31
ENDBRANCH   2  27
TORSDOF 8
