REMARK  Name = ZINC40416085
REMARK  7 active torsions:
REMARK  status: ('A' for Active; 'I' for Inactive)
REMARK    1  A    between atoms: C_6  and  N_7
REMARK    2  A    between atoms: N_7  and  C_8
REMARK    3  A    between atoms: N_7  and  S_23
REMARK    4  A    between atoms: N_11  and  C_14
REMARK    5  A    between atoms: C_14  and  C_15
REMARK    6  A    between atoms: C_20  and  O_21
REMARK    7  A    between atoms: S_23  and  C_26
REMARK                            x       y       z     vdW  Elec       q    Type
REMARK                         _______ _______ _______ _____ _____    ______ ____
ROOT
ATOM      1  N   UNL     1      -1.191  -0.709   0.014  0.00  0.00    -0.200 N 
ENDROOT
BRANCH   1   7
ATOM      2  C   UNL     1       0.570  -0.019   1.514  0.00  0.00    +0.027 A 
ATOM      3  C   UNL     1       1.791   0.591   1.726  0.00  0.00    +0.040 A 
ATOM      4  C   UNL     1       2.491   1.130   0.659  0.00  0.00    +0.124 A 
ATOM      5  C   UNL     1       1.969   1.059  -0.621  0.00  0.00    +0.040 A 
ATOM      6  C   UNL     1       0.748   0.451  -0.837  0.00  0.00    +0.027 A 
ATOM      7  C   UNL     1       0.045  -0.092   0.231  0.00  0.00    +0.052 A 
ATOM      8  F   UNL     1       3.685   1.726   0.869  0.00  0.00    -0.205 F 
ENDBRANCH   1   7
BRANCH   1   9
ATOM      9  C   UNL     1      -1.252  -2.011  -0.654  0.00  0.00    +0.095 C 
ATOM     10  C   UNL     1      -0.344  -3.005   0.077  0.00  0.00    +0.006 C 
ATOM     11  C   UNL     1      -0.351  -4.340  -0.672  0.00  0.00    -0.077 C 
ATOM     12  N   UNL     1       0.142  -4.140  -2.040  0.00  0.00    +0.383 N 
ATOM     13  C   UNL     1      -0.763  -3.244  -2.770  0.00  0.00    -0.077 C 
ATOM     14  C   UNL     1      -0.773  -1.867  -2.102  0.00  0.00    +0.006 C 
ATOM     15  H   UNL     1       1.064  -3.731  -2.008  0.00  0.00    -0.081 HD
BRANCH  12  16
ATOM     16  C   UNL     1       0.208  -5.435  -2.729  0.00  0.00    -0.039 C 
BRANCH  16  17
ATOM     17  C   UNL     1       0.828  -5.249  -4.090  0.00  0.00    -0.021 A 
ATOM     18  C   UNL     1       0.024  -5.171  -5.211  0.00  0.00    +0.025 A 
ATOM     19  C   UNL     1       0.593  -5.000  -6.461  0.00  0.00    +0.041 A 
ATOM     20  C   UNL     1       1.968  -4.908  -6.590  0.00  0.00    +0.023 A 
ATOM     21  C   UNL     1       2.775  -4.986  -5.472  0.00  0.00    +0.047 A 
ATOM     22  C   UNL     1       2.205  -5.151  -4.217  0.00  0.00    +0.118 A 
ATOM     23 CL   UNL     1      -0.419  -4.902  -7.868  0.00  0.00    -0.084 Cl
BRANCH  22  24
ATOM     24  O   UNL     1       2.997  -5.222  -3.115  0.00  0.00    -0.507 OA
ATOM     25  H   UNL     1       3.280  -6.119  -2.891  0.00  0.00    +0.292 HD
ENDBRANCH  22  24
ENDBRANCH  16  17
ENDBRANCH  12  16
ENDBRANCH   1   9
BRANCH   1  26
ATOM     26  S   UNL     1      -2.586   0.032   0.512  0.00  0.00    +0.075 S 
ATOM     27  O   UNL     1      -3.507  -1.004   0.822  0.00  0.00    -0.150 OA
ATOM     28  O   UNL     1      -2.204   1.020   1.459  0.00  0.00    -0.150 OA
BRANCH  26  29
ATOM     29  C   UNL     1      -3.244   0.892  -0.877  0.00  0.00    +0.109 A 
ATOM     30  C   UNL     1      -2.944   2.228  -1.067  0.00  0.00    +0.031 A 
ATOM     31  C   UNL     1      -3.459   2.904  -2.157  0.00  0.00    +0.040 A 
ATOM     32  C   UNL     1      -4.276   2.243  -3.059  0.00  0.00    +0.124 A 
ATOM     33  C   UNL     1      -4.575   0.905  -2.867  0.00  0.00    +0.040 A 
ATOM     34  C   UNL     1      -4.055   0.230  -1.780  0.00  0.00    +0.031 A 
ATOM     35  F   UNL     1      -4.781   2.903  -4.124  0.00  0.00    -0.205 F 
ENDBRANCH  26  29
ENDBRANCH   1  26
TORSDOF 7
