REMARK  Name = ZINC52566301
REMARK  4 active torsions:
REMARK  status: ('A' for Active; 'I' for Inactive)
REMARK    1  A    between atoms: C_7  and  C_10
REMARK    2  A    between atoms: N_12  and  C_22
REMARK    3  A    between atoms: C_25  and  S_28
REMARK    4  A    between atoms: S_28  and  N_31
REMARK                            x       y       z     vdW  Elec       q    Type
REMARK                         _______ _______ _______ _____ _____    ______ ____
ROOT
ATOM      1  C   UNL     1       0.385  -3.861   0.133  0.00  0.00    +0.173 C 
ATOM      2  N   UNL     1       0.913  -3.990  -1.223  0.00  0.00    -0.251 N 
ATOM      3  C   UNL     1       2.188  -4.246  -1.504  0.00  0.00    +0.253 C 
ATOM      4  O   UNL     1       2.532  -4.170  -2.668  0.00  0.00    -0.270 OA
ATOM      5  C   UNL     1       3.210  -4.612  -0.519  0.00  0.00    +0.051 A 
ATOM      6  C   UNL     1       4.566  -4.556  -0.861  0.00  0.00    +0.014 A 
ATOM      7  C   UNL     1       5.525  -4.885   0.071  0.00  0.00    +0.001 A 
ATOM      8  C   UNL     1       5.161  -5.271   1.352  0.00  0.00    +0.001 A 
ATOM      9  C   UNL     1       3.828  -5.339   1.706  0.00  0.00    +0.015 A 
ATOM     10  C   UNL     1       2.851  -5.018   0.776  0.00  0.00    +0.022 A 
ATOM     11  S   UNL     1       1.140  -5.126   1.196  0.00  0.00    -0.097 S 
ENDROOT
BRANCH   1  18
ATOM     12  C   UNL     1      -2.249  -0.407   1.612  0.00  0.00    +0.001 A 
ATOM     13  C   UNL     1      -1.521   0.713   2.036  0.00  0.00    +0.002 A 
ATOM     14  C   UNL     1      -0.172   0.760   2.008  0.00  0.00    +0.026 A 
ATOM     15  C   UNL     1       0.576  -0.354   1.534  0.00  0.00    +0.043 A 
ATOM     16  N   UNL     1       1.866  -0.549   1.410  0.00  0.00    -0.380 N 
ATOM     17  C   UNL     1       2.085  -1.893   0.863  0.00  0.00    +0.147 C 
ATOM     18  C   UNL     1       0.709  -2.492   0.671  0.00  0.00    -0.011 C 
ATOM     19  C   UNL     1      -0.170  -1.549   1.081  0.00  0.00    +0.001 A 
ATOM     20  C   UNL     1      -1.636  -1.518   1.145  0.00  0.00    +0.010 A 
ATOM     21  H   UNL     1       2.560   0.088   1.641  0.00  0.00    +0.160 HD
ENDBRANCH   1  18
BRANCH   2  22
ATOM     22  C   UNL     1       0.025  -3.834  -2.292  0.00  0.00    +0.038 A 
ATOM     23  C   UNL     1      -0.641  -4.938  -2.809  0.00  0.00    +0.025 A 
ATOM     24  C   UNL     1      -1.518  -4.782  -3.864  0.00  0.00    +0.030 A 
ATOM     25  C   UNL     1      -1.735  -3.527  -4.405  0.00  0.00    +0.109 A 
ATOM     26  C   UNL     1      -1.074  -2.426  -3.892  0.00  0.00    +0.030 A 
ATOM     27  C   UNL     1      -0.200  -2.575  -2.833  0.00  0.00    +0.025 A 
BRANCH  25  28
ATOM     28  S   UNL     1      -2.855  -3.332  -5.751  0.00  0.00    +0.073 S 
ATOM     29  O   UNL     1      -2.470  -2.145  -6.431  0.00  0.00    -0.150 OA
ATOM     30  O   UNL     1      -2.932  -4.593  -6.402  0.00  0.00    -0.150 OA
BRANCH  28  31
ATOM     31  N   UNL     1      -4.352  -3.042  -5.104  0.00  0.00    -0.199 N 
ATOM     32  C   UNL     1      -4.582  -1.881  -4.376  0.00  0.00    +0.138 A 
ATOM     33  C   UNL     1      -5.840  -1.646  -3.830  0.00  0.00    +0.045 A 
ATOM     34  C   UNL     1      -6.055  -0.486  -3.109  0.00  0.00    +0.005 A 
ATOM     35  C   UNL     1      -5.000   0.405  -2.957  0.00  0.00    +0.020 A 
ATOM     36  C   UNL     1      -3.778   0.109  -3.525  0.00  0.00    +0.113 A 
ATOM     37  N   UNL     1      -3.600  -1.009  -4.204  0.00  0.00    -0.239 NA
ATOM     38  H   UNL     1      -5.068  -3.684  -5.232  0.00  0.00    +0.175 HD
ENDBRANCH  28  31
ENDBRANCH  25  28
ENDBRANCH   2  22
TORSDOF 4
