REMARK  Name = ZINC54614053
REMARK  13 active torsions:
REMARK  status: ('A' for Active; 'I' for Inactive)
REMARK    1  A    between atoms: C_1  and  C_2
REMARK    2  A    between atoms: C_2  and  C_3
REMARK    3  A    between atoms: C_3  and  O_4
REMARK    4  A    between atoms: O_4  and  C_5
REMARK    5  A    between atoms: C_8  and  C_14
REMARK    6  A    between atoms: C_10  and  O_11
REMARK    7  A    between atoms: O_11  and  C_12
REMARK    8  A    between atoms: C_12  and  C_13
REMARK    9  A    between atoms: C_16  and  C_25
REMARK   10  A    between atoms: C_17  and  C_24
REMARK   11  A    between atoms: N_27  and  C_28
REMARK   12  A    between atoms: C_32  and  C_35
REMARK   13  A    between atoms: C_33  and  C_34
REMARK                            x       y       z     vdW  Elec       q    Type
REMARK                         _______ _______ _______ _____ _____    ______ ____
ROOT
ATOM      1  C   UNL     1      -6.952  -4.643  -0.421  0.00  0.00    +0.177 C 
ATOM      2  C   UNL     1      -7.375  -3.892   0.814  0.00  0.00    +0.060 C 
ATOM      3  C   UNL     1      -8.273  -2.896   0.793  0.00  0.00    +0.018 C 
ATOM      4  N   UNL     1      -8.889  -2.490  -0.366  0.00  0.00    -0.287 N 
ATOM      5  C   UNL     1      -8.757  -3.308  -1.480  0.00  0.00    +0.218 A 
ATOM      6  N   UNL     1      -7.859  -4.323  -1.520  0.00  0.00    -0.221 N 
ATOM      7  N   UNL     1      -8.002  -4.931  -2.766  0.00  0.00    -0.156 NA
ATOM      8  C   UNL     1      -8.942  -4.275  -3.400  0.00  0.00    +0.247 A 
ATOM      9  N   UNL     1      -9.397  -3.291  -2.617  0.00  0.00    -0.201 NA
ATOM     10  C   UNL     1      -8.618  -2.200   2.084  0.00  0.00    +0.061 C 
ATOM     11  H   UNL     1      -9.396  -1.664  -0.404  0.00  0.00    +0.155 HD
ENDROOT
BRANCH   1  15
ATOM     12  C   UNL     1      -2.970  -3.503  -1.484  0.00  0.00    +0.162 A 
ATOM     13  C   UNL     1      -4.000  -2.579  -1.554  0.00  0.00    +0.050 A 
ATOM     14  C   UNL     1      -5.286  -2.951  -1.210  0.00  0.00    +0.010 A 
ATOM     15  C   UNL     1      -5.548  -4.243  -0.795  0.00  0.00    -0.015 A 
ATOM     16  C   UNL     1      -4.524  -5.170  -0.723  0.00  0.00    +0.055 A 
ATOM     17  C   UNL     1      -3.234  -4.806  -1.072  0.00  0.00    +0.162 A 
BRANCH  12  18
ATOM     18  O   UNL     1      -1.704  -3.139  -1.823  0.00  0.00    -0.488 OA
BRANCH  18  19
ATOM     19  C   UNL     1      -1.506  -1.786  -2.236  0.00  0.00    +0.229 C 
BRANCH  19  21
ATOM     20  C   UNL     1       0.181  -0.117  -3.018  0.00  0.00    +0.007 C 
ATOM     21  C   UNL     1      -0.030  -1.566  -2.575  0.00  0.00    +0.038 C 
ENDBRANCH  19  21
ENDBRANCH  18  19
ENDBRANCH  12  18
BRANCH  17  22
ATOM     22  O   UNL     1      -2.227  -5.717  -1.007  0.00  0.00    -0.489 OA
BRANCH  22  23
ATOM     23  C   UNL     1      -2.591  -7.064  -0.695  0.00  0.00    +0.226 C 
ATOM     24  C   UNL     1      -1.344  -7.950  -0.731  0.00  0.00    +0.048 C 
ENDBRANCH  22  23
ENDBRANCH  17  22
ENDBRANCH   1  15
BRANCH   2  25
ATOM     25  C   UNL     1      -6.799  -4.254   2.054  0.00  0.00    +0.248 C 
ATOM     26  O   UNL     1      -7.168  -5.264   2.625  0.00  0.00    -0.270 OA
ATOM     27  N   UNL     1      -5.841  -3.481   2.603  0.00  0.00    -0.281 N 
ATOM     28  H   UNL     1      -5.597  -2.640   2.185  0.00  0.00    +0.155 HD
BRANCH  27  29
ATOM     29  C   UNL     1      -5.199  -3.890   3.776  0.00  0.00    +0.037 A 
ATOM     30  C   UNL     1      -5.234  -5.225   4.159  0.00  0.00    +0.023 A 
ATOM     31  C   UNL     1      -4.599  -5.626   5.318  0.00  0.00    +0.002 A 
ATOM     32  C   UNL     1      -3.930  -4.700   6.098  0.00  0.00    +0.004 A 
ATOM     33  C   UNL     1      -3.894  -3.371   5.720  0.00  0.00    -0.046 A 
ATOM     34  C   UNL     1      -4.522  -2.964   4.558  0.00  0.00    -0.026 A 
ATOM     35  C   UNL     1      -4.476  -1.516   4.144  0.00  0.00    +0.046 C 
ATOM     36  C   UNL     1      -3.165  -2.365   6.573  0.00  0.00    +0.044 C 
ENDBRANCH  27  29
ENDBRANCH   2  25
TORSDOF 8
