REMARK  Name = ZINC35796622
REMARK  12 active torsions:
REMARK  status: ('A' for Active; 'I' for Inactive)
REMARK    1  A    between atoms: C_1  and  C_2
REMARK    2  A    between atoms: C_2  and  C_3
REMARK    3  A    between atoms: C_3  and  C_4
REMARK    4  A    between atoms: C_4  and  N_5
REMARK    5  A    between atoms: C_6  and  C_8
REMARK    6  A    between atoms: C_11  and  C_13
REMARK    7  A    between atoms: C_13  and  N_14
REMARK    8  A    between atoms: C_17  and  C_25
REMARK    9  A    between atoms: C_25  and  C_27
REMARK   10  A    between atoms: C_27  and  O_28
REMARK   11  A    between atoms: O_28  and  C_29
REMARK   12  A    between atoms: C_34  and  C_35
REMARK                            x       y       z     vdW  Elec       q    Type
REMARK                         _______ _______ _______ _____ _____    ______ ____
ROOT
ATOM      1  N   UNL     1       5.453  -3.683  -6.756  0.00  0.00    -0.256 N 
ATOM      2  C   UNL     1       5.961  -2.459  -6.297  0.00  0.00    +0.079 A 
ATOM      3  C   UNL     1       5.115  -1.491  -5.795  0.00  0.00    +0.038 A 
ATOM      4  C   UNL     1       5.643  -0.275  -5.343  0.00  0.00    +0.023 A 
ATOM      5  C   UNL     1       7.024  -0.050  -5.402  0.00  0.00    +0.015 A 
ATOM      6  C   UNL     1       7.861  -1.022  -5.904  0.00  0.00    +0.048 A 
ATOM      7  C   UNL     1       7.338  -2.227  -6.352  0.00  0.00    +0.143 A 
ATOM      8  O   UNL     1       8.157  -3.192  -6.845  0.00  0.00    -0.481 OA
ATOM      9  C   UNL     1       7.766  -4.548  -6.614  0.00  0.00    +0.325 C 
ATOM     10  C   UNL     1       6.303  -4.718  -6.935  0.00  0.00    +0.258 C 
ATOM     11  O   UNL     1       5.891  -5.779  -7.355  0.00  0.00    -0.271 OA
ENDROOT
BRANCH   4  12
ATOM     12  C   UNL     1       4.750   0.761  -4.808  0.00  0.00    +0.200 C 
ATOM     13  O   UNL     1       3.554   0.565  -4.757  0.00  0.00    -0.288 OA
BRANCH  12  14
ATOM     14  C   UNL     1       5.320   2.069  -4.321  0.00  0.00    +0.308 C 
BRANCH  14  15
ATOM     15  O   UNL     1       4.261   2.905  -3.851  0.00  0.00    -0.484 OA
BRANCH  15  16
ATOM     16  C   UNL     1       4.606   4.130  -3.374  0.00  0.00    +0.124 A 
ATOM     17  C   UNL     1       5.938   4.521  -3.364  0.00  0.00    +0.049 A 
ATOM     18  C   UNL     1       6.287   5.766  -2.879  0.00  0.00    +0.042 A 
ATOM     19  C   UNL     1       5.310   6.624  -2.404  0.00  0.00    +0.124 A 
ATOM     20  C   UNL     1       3.982   6.235  -2.413  0.00  0.00    +0.045 A 
ATOM     21  C   UNL     1       3.628   4.992  -2.903  0.00  0.00    -0.006 A 
ATOM     22  C   UNL     1       2.181   4.572  -2.919  0.00  0.00    +0.047 C 
ATOM     23  F   UNL     1       5.654   7.841  -1.930  0.00  0.00    -0.205 F 
ENDBRANCH  15  16
ENDBRANCH  14  15
ENDBRANCH  12  14
ENDBRANCH   4  12
BRANCH   1  24
ATOM     24  C   UNL     1       4.023  -3.838  -7.033  0.00  0.00    +0.209 C 
BRANCH  24  28
ATOM     25  C   UNL     1       2.254  -4.297  -3.905  0.00  0.00    +0.164 A 
ATOM     26  C   UNL     1       2.462  -5.594  -4.261  0.00  0.00    +0.230 A 
ATOM     27  O   UNL     1       3.123  -5.578  -5.429  0.00  0.00    -0.445 OA
ATOM     28  C   UNL     1       3.317  -4.300  -5.784  0.00  0.00    +0.214 A 
ATOM     29  N   UNL     1       2.797  -3.522  -4.882  0.00  0.00    -0.207 NA
BRANCH  25  31
ATOM     30  N   UNL     1       1.425  -2.500  -2.470  0.00  0.00    -0.310 N 
ATOM     31  C   UNL     1       1.564  -3.822  -2.692  0.00  0.00    +0.266 C 
ATOM     32  O   UNL     1       1.120  -4.623  -1.892  0.00  0.00    -0.268 OA
ATOM     33  H   UNL     1       1.779  -1.861  -3.109  0.00  0.00    +0.149 HD
BRANCH  30  34
ATOM     34  C   UNL     1       0.739  -2.027  -1.265  0.00  0.00    +0.104 C 
BRANCH  34  35
ATOM     35  C   UNL     1       0.718  -0.497  -1.257  0.00  0.00    +0.018 C 
BRANCH  35  37
ATOM     36  C   UNL     1      -0.019   1.526   0.010  0.00  0.00    +0.004 C 
ATOM     37  C   UNL     1       0.002  -0.004   0.002  0.00  0.00    -0.002 C 
ENDBRANCH  35  37
ENDBRANCH  34  35
ENDBRANCH  30  34
ENDBRANCH  25  31
ENDBRANCH  24  28
ENDBRANCH   1  24
TORSDOF 10
