REMARK  Name = ZINC35564273
REMARK  8 active torsions:
REMARK  status: ('A' for Active; 'I' for Inactive)
REMARK    1  A    between atoms: C_1  and  C_2
REMARK    2  A    between atoms: C_2  and  C_3
REMARK    3  A    between atoms: C_3  and  C_4
REMARK    4  A    between atoms: C_4  and  C_5
REMARK    5  A    between atoms: C_5  and  C_6
REMARK    6  A    between atoms: C_20  and  C_22
REMARK    7  A    between atoms: C_22  and  N_23
REMARK    8  A    between atoms: N_26  and  C_29
REMARK                            x       y       z     vdW  Elec       q    Type
REMARK                         _______ _______ _______ _____ _____    ______ ____
ROOT
ATOM      1  C   UNL     1      -0.467  -3.908   3.759  0.00  0.00    +0.216 C 
ATOM      2  O   UNL     1      -0.321  -2.708   3.660  0.00  0.00    -0.276 OA
ATOM      3  N   UNL     1       0.136  -4.579   4.761  0.00  0.00    -0.298 N 
ATOM      4  C   UNL     1      -0.027  -6.034   4.890  0.00  0.00    +0.126 C 
ATOM      5  C   UNL     1       1.363  -6.682   4.915  0.00  0.00    +0.127 C 
ATOM      6  N   UNL     1       2.194  -5.972   5.897  0.00  0.00    -0.298 N 
ATOM      7  C   UNL     1       2.357  -4.517   5.768  0.00  0.00    +0.127 C 
ATOM      8  C   UNL     1       0.972  -3.870   5.740  0.00  0.00    +0.126 C 
ATOM      9  C   UNL     1       2.806  -6.654   6.915  0.00  0.00    +0.199 A 
ATOM     10  N   UNL     1       2.739  -8.013   6.944  0.00  0.00    -0.295 N 
ATOM     11  H   UNL     1       2.261  -8.492   6.249  0.00  0.00    +0.172 HD
ATOM     12  C   UNL     1       3.340  -8.692   7.944  0.00  0.00    +0.253 A 
ATOM     13  O   UNL     1       3.290  -9.911   7.986  0.00  0.00    -0.268 OA
ATOM     14  C   UNL     1       4.025  -7.969   8.936  0.00  0.00    +0.094 A 
ATOM     15  C   UNL     1       4.059  -6.607   8.855  0.00  0.00    +0.064 A 
ATOM     16  N   UNL     1       3.454  -5.983   7.846  0.00  0.00    -0.219 NA
ENDROOT
BRANCH   1  17
ATOM     17  C   UNL     1      -1.321  -4.648   2.763  0.00  0.00    +0.096 C 
BRANCH  17  18
ATOM     18  C   UNL     1      -1.883  -3.660   1.739  0.00  0.00    +0.009 C 
BRANCH  18  19
ATOM     19  C   UNL     1      -2.750  -4.412   0.727  0.00  0.00    +0.000 C 
BRANCH  19  21
ATOM     20  C   UNL     1      -4.179  -4.175  -1.309  0.00  0.00    +0.004 C 
ATOM     21  C   UNL     1      -3.311  -3.423  -0.297  0.00  0.00    -0.003 C 
ENDBRANCH  19  21
ENDBRANCH  18  19
ENDBRANCH  17  18
ENDBRANCH   1  17
BRANCH  15  22
ATOM     22  C   UNL     1       4.786  -5.808   9.905  0.00  0.00    +0.140 C 
BRANCH  22  23
ATOM     23  N   UNL     1       5.930  -5.120   9.292  0.00  0.00    -0.300 NA
ATOM     24  C   UNL     1       6.940  -6.084   8.832  0.00  0.00    +0.066 C 
ATOM     25  C   UNL     1       8.084  -5.332   8.148  0.00  0.00    -0.063 C 
ATOM     26  N   UNL     1       8.684  -4.385   9.097  0.00  0.00    +0.383 N 
ATOM     27  C   UNL     1       7.669  -3.413   9.528  0.00  0.00    -0.063 C 
ATOM     28  C   UNL     1       6.522  -4.149  10.224  0.00  0.00    +0.066 C 
ATOM     29  H   UNL     1       9.031  -4.887   9.900  0.00  0.00    -0.081 HD
BRANCH  26  30
ATOM     30  C   UNL     1       9.793  -3.676   8.445  0.00  0.00    -0.068 C 
ATOM     31  C   UNL     1      10.851  -4.687   7.997  0.00  0.00    -0.015 C 
ATOM     32  C   UNL     1      12.007  -3.949   7.319  0.00  0.00    -0.002 C 
ATOM     33  C   UNL     1      12.631  -2.962   8.307  0.00  0.00    -0.000 C 
ATOM     34  C   UNL     1      11.574  -1.951   8.755  0.00  0.00    -0.002 C 
ATOM     35  C   UNL     1      10.418  -2.689   9.433  0.00  0.00    -0.015 C 
ENDBRANCH  26  30
ENDBRANCH  22  23
ENDBRANCH  15  22
TORSDOF 7
