REMARK  Name = ZINC45615775
REMARK  7 active torsions:
REMARK  status: ('A' for Active; 'I' for Inactive)
REMARK    1  A    between atoms: C_1  and  C_2
REMARK    2  A    between atoms: C_3  and  C_21
REMARK    3  A    between atoms: C_4  and  C_10
REMARK    4  A    between atoms: C_13  and  O_16
REMARK    5  A    between atoms: O_16  and  C_17
REMARK    6  A    between atoms: N_23  and  C_24
REMARK    7  A    between atoms: C_28  and  N_30
REMARK                            x       y       z     vdW  Elec       q    Type
REMARK                         _______ _______ _______ _____ _____    ______ ____
ROOT
ATOM      1  C   UNL     1      -0.611   0.719  -0.825  0.00  0.00    +0.061 C 
ATOM      2  C   UNL     1      -0.441  -0.607  -0.130  0.00  0.00    +0.017 C 
ATOM      3  C   UNL     1      -1.523  -1.234   0.379  0.00  0.00    +0.056 C 
ATOM      4  C   UNL     1      -1.308  -2.565   1.069  0.00  0.00    +0.139 C 
ATOM      5  N   UNL     1       0.074  -3.070   1.128  0.00  0.00    -0.315 N 
ATOM      6  C   UNL     1       1.053  -2.328   0.572  0.00  0.00    +0.135 C 
ATOM      7  S   UNL     1       2.664  -2.903   0.633  0.00  0.00    -0.019 S 
ATOM      8  N   UNL     1       0.804  -1.159  -0.031  0.00  0.00    -0.300 N 
ATOM      9  H   UNL     1       0.276  -3.917   1.557  0.00  0.00    +0.149 HD
ATOM     10  H   UNL     1       1.552  -0.674  -0.415  0.00  0.00    +0.154 HD
ENDROOT
BRANCH   4  11
ATOM     11  C   UNL     1      -1.818  -2.444   2.482  0.00  0.00    -0.022 A 
ATOM     12  C   UNL     1      -1.036  -1.839   3.448  0.00  0.00    +0.009 A 
ATOM     13  C   UNL     1      -1.502  -1.728   4.744  0.00  0.00    +0.046 A 
ATOM     14  C   UNL     1      -2.755  -2.223   5.075  0.00  0.00    +0.130 A 
ATOM     15  C   UNL     1      -3.538  -2.829   4.103  0.00  0.00    +0.046 A 
ATOM     16  C   UNL     1      -3.070  -2.933   2.807  0.00  0.00    +0.009 A 
BRANCH  14  17
ATOM     17  O   UNL     1      -3.215  -2.114   6.349  0.00  0.00    -0.406 OA
BRANCH  17  18
ATOM     18  C   UNL     1      -4.514  -2.646   6.617  0.00  0.00    +0.575 C 
ATOM     19  F   UNL     1      -4.527  -4.015   6.328  0.00  0.00    -0.133 F 
ATOM     20  F   UNL     1      -4.828  -2.451   7.967  0.00  0.00    -0.133 F 
ATOM     21  F   UNL     1      -5.459  -1.992   5.819  0.00  0.00    -0.133 F 
ENDBRANCH  17  18
ENDBRANCH  14  17
ENDBRANCH   4  11
BRANCH   3  22
ATOM     22  C   UNL     1      -2.816  -0.665   0.272  0.00  0.00    +0.248 C 
ATOM     23  O   UNL     1      -3.634  -1.152  -0.488  0.00  0.00    -0.270 OA
ATOM     24  N   UNL     1      -3.140   0.415   1.010  0.00  0.00    -0.282 N 
ATOM     25  H   UNL     1      -2.466   0.851   1.554  0.00  0.00    +0.155 HD
BRANCH  24  26
ATOM     26  C   UNL     1      -4.449   0.907   0.991  0.00  0.00    +0.036 A 
ATOM     27  C   UNL     1      -5.153   0.967  -0.205  0.00  0.00    +0.023 A 
ATOM     28  C   UNL     1      -6.446   1.453  -0.220  0.00  0.00    +0.004 A 
ATOM     29  C   UNL     1      -7.039   1.881   0.954  0.00  0.00    +0.033 A 
ATOM     30  C   UNL     1      -6.341   1.823   2.146  0.00  0.00    +0.128 A 
ATOM     31  C   UNL     1      -5.050   1.331   2.169  0.00  0.00    +0.056 A 
BRANCH  30  32
ATOM     32  N   UNL     1      -6.979   2.282   3.400  0.00  0.00    +0.056 N 
ATOM     33  O   UNL     1      -8.111   2.707   3.381  0.00  0.00    -0.126 OA
ATOM     34  O   UNL     1      -6.369   2.232   4.442  0.00  0.00    -0.126 OA
ENDBRANCH  30  32
ENDBRANCH  24  26
ENDBRANCH   3  22
TORSDOF 6
