REMARK  Name = ZINC35683992
REMARK  8 active torsions:
REMARK  status: ('A' for Active; 'I' for Inactive)
REMARK    1  A    between atoms: C_4  and  S_7
REMARK    2  A    between atoms: S_7  and  N_10
REMARK    3  A    between atoms: N_10  and  C_11
REMARK    4  A    between atoms: C_16  and  C_17
REMARK    5  A    between atoms: C_20  and  C_23
REMARK    6  A    between atoms: C_28  and  C_30
REMARK    7  A    between atoms: C_30  and  C_31
REMARK    8  A    between atoms: C_31  and  C_32
REMARK                            x       y       z     vdW  Elec       q    Type
REMARK                         _______ _______ _______ _____ _____    ______ ____
ROOT
ATOM      1  C   UNL     1       5.090  -1.474   4.262  0.00  0.00    +0.071 C 
ATOM      2  N   UNL     1       3.970  -0.854   4.115  0.00  0.00    -0.181 NA
ATOM      3  N   UNL     1       3.351  -0.506   5.314  0.00  0.00    -0.182 N 
ATOM      4  C   UNL     1       4.189  -0.965   6.433  0.00  0.00    +0.172 C 
ATOM      5  C   UNL     1       5.387  -1.639   5.735  0.00  0.00    +0.090 C 
ATOM      6  C   UNL     1       2.177   0.146   5.430  0.00  0.00    +0.236 C 
ATOM      7  O   UNL     1       1.729   0.399   6.528  0.00  0.00    -0.274 OA
ENDROOT
BRANCH   1  13
ATOM      8  C   UNL     1       5.566  -1.743   1.829  0.00  0.00    +0.083 A 
ATOM      9  C   UNL     1       6.384  -2.195   0.802  0.00  0.00    +0.027 A 
ATOM     10  C   UNL     1       7.562  -2.854   1.095  0.00  0.00    +0.002 A 
ATOM     11  C   UNL     1       7.937  -3.069   2.411  0.00  0.00    +0.001 A 
ATOM     12  C   UNL     1       7.137  -2.628   3.443  0.00  0.00    +0.012 A 
ATOM     13  C   UNL     1       5.946  -1.954   3.163  0.00  0.00    +0.022 A 
BRANCH   8  14
ATOM     14  N   UNL     1       4.378  -1.079   1.536  0.00  0.00    -0.097 NA
BRANCH  14  15
ATOM     15  S   UNL     1       3.934  -0.832  -0.041  0.00  0.00    +0.092 S 
ATOM     16  O   UNL     1       3.674  -2.114  -0.595  0.00  0.00    -0.148 OA
ATOM     17  O   UNL     1       4.890   0.060  -0.597  0.00  0.00    -0.148 OA
BRANCH  15  21
ATOM     18  C   UNL     1      -0.017   1.378   0.010  0.00  0.00    +0.000 A 
ATOM     19  C   UNL     1       1.171   2.086   0.002  0.00  0.00    +0.002 A 
ATOM     20  C   UNL     1       2.377   1.411  -0.013  0.00  0.00    +0.029 A 
ATOM     21  C   UNL     1       2.396   0.029  -0.020  0.00  0.00    +0.110 A 
ATOM     22  C   UNL     1       1.208  -0.679  -0.012  0.00  0.00    +0.029 A 
ATOM     23  C   UNL     1       0.002  -0.004   0.002  0.00  0.00    +0.002 A 
ENDBRANCH  15  21
ENDBRANCH  14  15
ENDBRANCH   8  14
ENDBRANCH   1  13
BRANCH   4  24
ATOM     24  C   UNL     1       4.641   0.203   7.271  0.00  0.00    +0.128 A 
ATOM     25  C   UNL     1       4.751   0.213   8.612  0.00  0.00    +0.046 A 
ATOM     26  C   UNL     1       5.205   1.502   8.975  0.00  0.00    +0.041 A 
ATOM     27  C   UNL     1       5.346   2.201   7.835  0.00  0.00    +0.195 A 
ATOM     28  O   UNL     1       5.008   1.408   6.806  0.00  0.00    -0.466 OA
ENDBRANCH   4  24
BRANCH   6  29
ATOM     29  C   UNL     1       1.420   0.559   4.194  0.00  0.00    +0.109 C 
BRANCH  29  30
ATOM     30  C   UNL     1       0.131   1.276   4.602  0.00  0.00    +0.134 C 
BRANCH  30  31
ATOM     31  C   UNL     1      -0.626   1.690   3.366  0.00  0.00    +0.356 C 
ATOM     32  O   UNL     1      -0.177   1.435   2.262  0.00  0.00    -0.246 OA
ATOM     33  O   UNL     1      -1.688   2.279   3.471  0.00  0.00    -0.246 OA
ENDBRANCH  30  31
ENDBRANCH  29  30
ENDBRANCH   6  29
TORSDOF 8
