REMARK  Name = ZINC08955678
REMARK  6 active torsions:
REMARK  status: ('A' for Active; 'I' for Inactive)
REMARK    1  A    between atoms: C_1  and  N_2
REMARK    2  A    between atoms: C_3  and  S_16
REMARK    3  A    between atoms: N_4  and  C_5
REMARK    4  A    between atoms: C_9  and  C_11
REMARK    5  A    between atoms: S_16  and  C_17
REMARK    6  A    between atoms: N_22  and  C_25
REMARK                            x       y       z     vdW  Elec       q    Type
REMARK                         _______ _______ _______ _____ _____    ______ ____
ROOT
ATOM      1  C   UNL     1       0.409  -3.098  -2.300  0.00  0.00    +0.127 C 
ATOM      2  N   UNL     1      -0.484  -2.205  -1.558  0.00  0.00    -0.327 N 
ATOM      3  C   UNL     1      -0.649  -0.904  -1.966  0.00  0.00    +0.155 C 
ATOM      4  N   UNL     1      -1.282  -0.049  -1.195  0.00  0.00    -0.226 NA
ATOM      5  H   UNL     1      -0.960  -2.533  -0.778  0.00  0.00    +0.148 HD
ENDROOT
BRANCH   4   6
ATOM      6  C   UNL     1      -1.317   1.279  -1.529  0.00  0.00    +0.067 A 
ATOM      7  C   UNL     1      -0.188   2.079  -1.343  0.00  0.00    +0.029 A 
ATOM      8  C   UNL     1      -0.229   3.416  -1.681  0.00  0.00    +0.022 A 
ATOM      9  C   UNL     1      -1.388   3.965  -2.204  0.00  0.00    +0.053 A 
ATOM     10  C   UNL     1      -2.511   3.177  -2.391  0.00  0.00    +0.075 A 
ATOM     11  C   UNL     1      -2.480   1.837  -2.063  0.00  0.00    +0.041 A 
ATOM     12 CL   UNL     1      -1.432   5.648  -2.628  0.00  0.00    -0.083 Cl
BRANCH  10  13
ATOM     13  C   UNL     1      -3.768   3.783  -2.961  0.00  0.00    +0.419 C 
ATOM     14  F   UNL     1      -4.758   2.799  -3.055  0.00  0.00    -0.166 F 
ATOM     15  F   UNL     1      -4.211   4.811  -2.122  0.00  0.00    -0.166 F 
ATOM     16  F   UNL     1      -3.502   4.301  -4.233  0.00  0.00    -0.166 F 
ENDBRANCH  10  13
ENDBRANCH   4   6
BRANCH   3  17
ATOM     17  S   UNL     1      -0.010  -0.381  -3.522  0.00  0.00    -0.077 S 
BRANCH  17  18
ATOM     18  C   UNL     1      -0.279  -1.809  -4.609  0.00  0.00    +0.149 C 
ATOM     19  C   UNL     1      -0.420  -1.356  -6.076  0.00  0.00    +0.120 C 
ATOM     20  C   UNL     1      -1.817  -1.801  -6.451  0.00  0.00    +0.228 C 
ATOM     21  O   UNL     1      -2.338  -1.640  -7.534  0.00  0.00    -0.275 OA
ATOM     22  N   UNL     1      -2.385  -2.403  -5.399  0.00  0.00    -0.209 N 
ATOM     23  C   UNL     1      -1.608  -2.466  -4.306  0.00  0.00    +0.240 C 
ATOM     24  O   UNL     1      -1.919  -2.966  -3.247  0.00  0.00    -0.274 OA
BRANCH  22  25
ATOM     25  C   UNL     1      -3.685  -2.927  -5.435  0.00  0.00    +0.045 A 
ATOM     26  C   UNL     1      -3.966  -4.036  -6.222  0.00  0.00    +0.025 A 
ATOM     27  C   UNL     1      -5.247  -4.551  -6.256  0.00  0.00    +0.023 A 
ATOM     28  C   UNL     1      -6.251  -3.964  -5.507  0.00  0.00    +0.059 A 
ATOM     29  C   UNL     1      -5.974  -2.858  -4.721  0.00  0.00    +0.061 A 
ATOM     30  C   UNL     1      -4.692  -2.342  -4.680  0.00  0.00    +0.045 A 
ATOM     31 CL   UNL     1      -7.235  -2.123  -3.781  0.00  0.00    -0.082 Cl
ATOM     32 CL   UNL     1      -7.860  -4.614  -5.552  0.00  0.00    -0.082 Cl
ENDBRANCH  22  25
ENDBRANCH  17  18
ENDBRANCH   3  17
TORSDOF 5
