REMARK  Name = ZINC16467858
REMARK  9 active torsions:
REMARK  status: ('A' for Active; 'I' for Inactive)
REMARK    1  A    between atoms: C_1  and  C_2
REMARK    2  A    between atoms: C_6  and  O_28
REMARK    3  A    between atoms: C_12  and  C_13
REMARK    4  A    between atoms: C_13  and  C_14
REMARK    5  A    between atoms: C_14  and  C_15
REMARK    6  A    between atoms: N_17  and  C_18
REMARK    7  A    between atoms: C_18  and  C_20
REMARK    8  A    between atoms: C_18  and  C_21
REMARK    9  A    between atoms: O_28  and  C_29
REMARK                            x       y       z     vdW  Elec       q    Type
REMARK                         _______ _______ _______ _____ _____    ______ ____
ROOT
ATOM      1  C   UNL     1       2.465   1.504  -0.013  0.00  0.00    +0.052 C 
ENDROOT
BRANCH   1  13
ATOM      2  C   UNL     1       0.002  -0.004   0.002  0.00  0.00    +0.045 C 
ATOM      3  C   UNL     1      -0.018   1.503   0.010  0.00  0.00    -0.030 A 
ATOM      4  C   UNL     1      -1.285   2.238   0.020  0.00  0.00    +0.021 A 
ATOM      5  C   UNL     1      -2.510   1.562   0.033  0.00  0.00    +0.015 A 
ATOM      6  C   UNL     1      -3.676   2.271   0.049  0.00  0.00    +0.046 A 
ATOM      7  C   UNL     1      -3.654   3.664   0.056  0.00  0.00    +0.124 A 
ATOM      8  C   UNL     1      -2.451   4.350   0.048  0.00  0.00    +0.092 A 
ATOM      9  C   UNL     1      -1.257   3.645   0.033  0.00  0.00    +0.143 A 
ATOM     10  O   UNL     1      -0.072   4.293   0.025  0.00  0.00    -0.422 OA
ATOM     11  C   UNL     1       1.092   3.626   0.011  0.00  0.00    +0.341 A 
ATOM     12  O   UNL     1       2.136   4.253   0.004  0.00  0.00    -0.245 OA
ATOM     13  C   UNL     1       1.138   2.216   0.003  0.00  0.00    +0.041 A 
BRANCH   7  14
ATOM     14  O   UNL     1      -4.823   4.356   0.071  0.00  0.00    -0.495 OA
ATOM     15  C   UNL     1      -6.029   3.590   0.079  0.00  0.00    +0.277 C 
ENDBRANCH   7  14
ENDBRANCH   1  13
BRANCH   1  16
ATOM     16  C   UNL     1       2.901   1.270  -1.461  0.00  0.00    +0.100 C 
BRANCH  16  17
ATOM     17  C   UNL     1       4.229   0.557  -1.478  0.00  0.00    +0.214 C 
ATOM     18  O   UNL     1       4.773   0.265  -0.434  0.00  0.00    -0.276 OA
ATOM     19  N   UNL     1       4.811   0.245  -2.652  0.00  0.00    -0.309 N 
ATOM     20  H   UNL     1       4.376   0.479  -3.487  0.00  0.00    +0.149 HD
BRANCH  19  21
ATOM     21  C   UNL     1       6.102  -0.448  -2.668  0.00  0.00    +0.100 C 
ATOM     22  C   UNL     1       5.872  -1.956  -2.549  0.00  0.00    +0.033 C 
BRANCH  21  23
ATOM     23  C   UNL     1       6.816  -0.150  -3.961  0.00  0.00    -0.027 A 
ATOM     24  C   UNL     1       6.108  -0.107  -5.148  0.00  0.00    +0.006 A 
ATOM     25  C   UNL     1       6.762   0.171  -6.333  0.00  0.00    +0.015 A 
ATOM     26  C   UNL     1       8.127   0.397  -6.334  0.00  0.00    +0.018 A 
ATOM     27  C   UNL     1       8.836   0.348  -5.147  0.00  0.00    +0.015 A 
ATOM     28  C   UNL     1       8.180   0.075  -3.961  0.00  0.00    +0.006 A 
ATOM     29 BR   UNL     1       9.023   0.770  -7.957  0.00  0.00    -0.050 Br
ENDBRANCH  21  23
ENDBRANCH  19  21
ENDBRANCH  16  17
ENDBRANCH   1  16
TORSDOF 6
