REMARK  Name = ZINC35993397
REMARK  10 active torsions:
REMARK  status: ('A' for Active; 'I' for Inactive)
REMARK    1  A    between atoms: C_1  and  C_2
REMARK    2  A    between atoms: C_2  and  O_3
REMARK    3  A    between atoms: O_3  and  C_4
REMARK    4  A    between atoms: C_4  and  C_6
REMARK    5  A    between atoms: C_7  and  C_22
REMARK    6  A    between atoms: N_8  and  C_21
REMARK    7  A    between atoms: C_12  and  C_14
REMARK    8  A    between atoms: C_19  and  C_20
REMARK    9  A    between atoms: C_22  and  N_23
REMARK   10  A    between atoms: C_30  and  C_32
REMARK                            x       y       z     vdW  Elec       q    Type
REMARK                         _______ _______ _______ _____ _____    ______ ____
ROOT
ATOM      1  C   UNL     1       1.524  -2.312  -2.513  0.00  0.00    +0.076 C 
ATOM      2  C   UNL     1       1.525  -3.654  -2.658  0.00  0.00    +0.010 C 
ATOM      3  N   UNL     1       2.215  -4.253  -3.673  0.00  0.00    -0.264 N 
ATOM      4  C   UNL     1       2.929  -3.579  -4.584  0.00  0.00    +0.307 C 
ATOM      5  O   UNL     1       3.511  -4.200  -5.452  0.00  0.00    -0.252 OA
ATOM      6  N   UNL     1       3.023  -2.235  -4.570  0.00  0.00    -0.288 N 
ATOM      7  C   UNL     1       2.309  -1.493  -3.517  0.00  0.00    +0.144 C 
ATOM      8  C   UNL     1       2.173  -5.714  -3.771  0.00  0.00    +0.139 C 
ATOM      9  H   UNL     1       3.546  -1.767  -5.239  0.00  0.00    +0.151 HD
ENDROOT
BRANCH   7  10
ATOM     10  C   UNL     1       3.325  -0.678  -2.759  0.00  0.00    -0.020 A 
ATOM     11  C   UNL     1       3.696  -1.051  -1.481  0.00  0.00    +0.006 A 
ATOM     12  C   UNL     1       4.628  -0.303  -0.786  0.00  0.00    +0.000 A 
ATOM     13  C   UNL     1       5.189   0.818  -1.369  0.00  0.00    +0.000 A 
ATOM     14  C   UNL     1       4.818   1.190  -2.647  0.00  0.00    +0.004 A 
ATOM     15  C   UNL     1       3.889   0.440  -3.344  0.00  0.00    -0.045 A 
ATOM     16  C   UNL     1       3.490   0.843  -4.740  0.00  0.00    +0.044 C 
ENDBRANCH   7  10
BRANCH   1  17
ATOM     17  C   UNL     1       0.809  -1.691  -1.462  0.00  0.00    +0.339 C 
ATOM     18  O   UNL     1       0.251  -2.370  -0.620  0.00  0.00    -0.245 OA
BRANCH  17  19
ATOM     19  O   UNL     1       0.745  -0.344  -1.393  0.00  0.00    -0.462 OA
BRANCH  19  21
ATOM     20  C   UNL     1       0.235   1.740  -0.282  0.00  0.00    +0.048 C 
ATOM     21  C   UNL     1       0.102   0.217  -0.247  0.00  0.00    +0.229 C 
ENDBRANCH  19  21
ENDBRANCH  17  19
ENDBRANCH   1  17
BRANCH   2  22
ATOM     22  C   UNL     1       0.753  -4.506  -1.684  0.00  0.00    -0.026 C 
BRANCH  22  23
ATOM     23  N   UNL     1      -0.659  -4.555  -2.088  0.00  0.00    +0.384 N 
ATOM     24  C   UNL     1      -1.429  -5.157  -1.002  0.00  0.00    -0.077 C 
ATOM     25  C   UNL     1      -2.836  -4.604  -1.020  0.00  0.00    +0.000 C 
ATOM     26  C   UNL     1      -3.744  -5.537  -1.843  0.00  0.00    +0.106 C 
ATOM     27  N   UNL     1      -3.042  -6.038  -3.042  0.00  0.00    -0.297 N 
ATOM     28  C   UNL     1      -2.197  -5.190  -3.857  0.00  0.00    +0.089 C 
ATOM     29  C   UNL     1      -0.745  -5.230  -3.325  0.00  0.00    -0.059 C 
ATOM     30  C   UNL     1      -3.194  -7.331  -3.391  0.00  0.00    +0.282 C 
ATOM     31  O   UNL     1      -3.976  -8.037  -2.783  0.00  0.00    -0.267 OA
ATOM     32  H   UNL     1      -0.984  -3.608  -2.218  0.00  0.00    -0.081 HD
BRANCH  30  33
ATOM     33  C   UNL     1      -2.417  -7.886  -4.504  0.00  0.00    +0.189 A 
ATOM     34  C   UNL     1      -2.558  -9.136  -5.036  0.00  0.00    +0.054 A 
ATOM     35  C   UNL     1      -1.619  -9.241  -6.074  0.00  0.00    +0.042 A 
ATOM     36  C   UNL     1      -0.955  -8.066  -6.129  0.00  0.00    +0.196 A 
ATOM     37  O   UNL     1      -1.442  -7.250  -5.185  0.00  0.00    -0.458 OA
ENDBRANCH  30  33
ENDBRANCH  22  23
ENDBRANCH   2  22
TORSDOF 7
