REMARK  Name = ZINC08797084
REMARK  11 active torsions:
REMARK  status: ('A' for Active; 'I' for Inactive)
REMARK    1  A    between atoms: C_1  and  C_2
REMARK    2  A    between atoms: C_2  and  N_3
REMARK    3  A    between atoms: N_3  and  C_4
REMARK    4  A    between atoms: N_3  and  S_6
REMARK    5  A    between atoms: C_4  and  C_5
REMARK    6  A    between atoms: S_6  and  C_9
REMARK    7  A    between atoms: C_12  and  C_15
REMARK    8  A    between atoms: C_15  and  N_17
REMARK    9  A    between atoms: N_19  and  C_31
REMARK   10  A    between atoms: C_23  and  N_27
REMARK   11  A    between atoms: C_28  and  C_30
REMARK                            x       y       z     vdW  Elec       q    Type
REMARK                         _______ _______ _______ _____ _____    ______ ____
ROOT
ATOM      1  C   UNL     1       8.051  -2.184  -0.025  0.00  0.00    +0.269 C 
ATOM      2  O   UNL     1       7.202  -3.009  -0.314  0.00  0.00    -0.268 OA
ENDROOT
BRANCH   1   3
ATOM      3  N   UNL     1       7.706  -0.907   0.166  0.00  0.00    -0.152 NA
ATOM      4  C   UNL     1       7.134  -0.220  -0.817  0.00  0.00    +0.166 A 
ATOM      5  N   UNL     1       6.934  -0.601  -2.107  0.00  0.00    -0.324 N 
ATOM      6  C   UNL     1       6.313   0.260  -2.996  0.00  0.00    +0.057 A 
ATOM      7  C   UNL     1       6.022   0.046  -4.353  0.00  0.00    +0.029 A 
ATOM      8  C   UNL     1       5.391   1.013  -5.098  0.00  0.00    +0.025 A 
ATOM      9  C   UNL     1       5.032   2.234  -4.537  0.00  0.00    +0.035 A 
ATOM     10  C   UNL     1       5.309   2.469  -3.196  0.00  0.00    +0.040 A 
ATOM     11  C   UNL     1       5.936   1.497  -2.454  0.00  0.00    +0.041 A 
ATOM     12  S   UNL     1       6.463   1.378  -0.763  0.00  0.00    -0.052 S 
ATOM     13  C   UNL     1       7.374  -1.924  -2.556  0.00  0.00    +0.151 C 
BRANCH   9  14
ATOM     14  N   UNL     1       4.395   3.211  -5.312  0.00  0.00    -0.286 N 
ATOM     15  C   UNL     1       4.657   3.302  -6.631  0.00  0.00    +0.214 C 
ATOM     16  O   UNL     1       5.509   2.598  -7.130  0.00  0.00    -0.276 OA
ATOM     17  C   UNL     1       3.895   4.283  -7.485  0.00  0.00    +0.109 C 
ATOM     18  H   UNL     1       3.765   3.822  -4.900  0.00  0.00    +0.155 HD
ENDBRANCH   9  14
ENDBRANCH   1   3
BRANCH   1  22
ATOM     19  C   UNL     1      12.113  -3.369   0.376  0.00  0.00    +0.106 A 
ATOM     20  C   UNL     1      11.151  -4.308   0.048  0.00  0.00    +0.029 A 
ATOM     21  C   UNL     1       9.831  -3.929  -0.083  0.00  0.00    +0.015 A 
ATOM     22  C   UNL     1       9.467  -2.598   0.115  0.00  0.00    +0.039 A 
ATOM     23  C   UNL     1      10.442  -1.655   0.441  0.00  0.00    +0.015 A 
ATOM     24  C   UNL     1      11.759  -2.047   0.574  0.00  0.00    +0.029 A 
BRANCH  19  25
ATOM     25  S   UNL     1      13.797  -3.860   0.543  0.00  0.00    +0.061 S 
ATOM     26  O   UNL     1      14.418  -2.902   1.389  0.00  0.00    -0.153 OA
ATOM     27  O   UNL     1      13.787  -5.249   0.843  0.00  0.00    -0.153 OA
BRANCH  25  28
ATOM     28  N   UNL     1      14.502  -3.703  -0.947  0.00  0.00    -0.177 NA
BRANCH  28  30
ATOM     29  C   UNL     1      16.635  -2.508  -1.030  0.00  0.00    +0.022 C 
ATOM     30  C   UNL     1      15.136  -2.438  -1.328  0.00  0.00    +0.106 C 
ENDBRANCH  28  30
BRANCH  28  31
ATOM     31  C   UNL     1      14.493  -4.829  -1.885  0.00  0.00    +0.106 C 
ATOM     32  C   UNL     1      13.304  -4.690  -2.837  0.00  0.00    +0.022 C 
ENDBRANCH  28  31
ENDBRANCH  25  28
ENDBRANCH  19  25
ENDBRANCH   1  22
TORSDOF 7
