REMARK  Name = ZINC36344156
REMARK  11 active torsions:
REMARK  status: ('A' for Active; 'I' for Inactive)
REMARK    1  A    between atoms: C_1  and  C_2
REMARK    2  A    between atoms: C_2  and  O_3
REMARK    3  A    between atoms: O_3  and  C_4
REMARK    4  A    between atoms: C_7  and  C_10
REMARK    5  A    between atoms: C_13  and  C_27
REMARK    6  A    between atoms: C_16  and  C_18
REMARK    7  A    between atoms: C_18  and  N_19
REMARK    8  A    between atoms: N_19  and  C_20
REMARK    9  A    between atoms: N_19  and  C_21
REMARK   10  A    between atoms: C_29  and  C_34
REMARK   11  A    between atoms: C_32  and  C_33
REMARK                            x       y       z     vdW  Elec       q    Type
REMARK                         _______ _______ _______ _____ _____    ______ ____
ROOT
ATOM      1  C   UNL     1       1.490  -5.265  -2.216  0.00  0.00    +0.137 C 
ATOM      2  C   UNL     1       2.818  -5.901  -1.759  0.00  0.00    +0.087 C 
ATOM      3  C   UNL     1       3.260  -6.718  -2.952  0.00  0.00    +0.069 C 
ATOM      4  N   UNL     1       2.396  -6.597  -3.900  0.00  0.00    -0.181 NA
ATOM      5  N   UNL     1       1.314  -5.772  -3.586  0.00  0.00    -0.187 N 
ATOM      6  C   UNL     1       0.279  -5.486  -4.401  0.00  0.00    +0.219 C 
ATOM      7  O   UNL     1      -0.609  -4.753  -4.019  0.00  0.00    -0.276 OA
ENDROOT
BRANCH   3   8
ATOM      8  C   UNL     1       4.490  -7.528  -3.020  0.00  0.00    +0.001 A 
ATOM      9  C   UNL     1       5.413  -7.492  -1.972  0.00  0.00    +0.013 A 
ATOM     10  C   UNL     1       6.562  -8.252  -2.042  0.00  0.00    -0.050 A 
ATOM     11  C   UNL     1       6.801  -9.049  -3.148  0.00  0.00    +0.003 A 
ATOM     12  C   UNL     1       5.892  -9.090  -4.189  0.00  0.00    +0.004 A 
ATOM     13  C   UNL     1       4.736  -8.339  -4.130  0.00  0.00    -0.042 A 
ATOM     14  C   UNL     1       3.744  -8.389  -5.263  0.00  0.00    +0.044 C 
ATOM     15  C   UNL     1       7.558  -8.214  -0.912  0.00  0.00    +0.044 C 
ENDBRANCH   3   8
BRANCH   1  19
ATOM     16  C   UNL     1       1.787  -1.002  -2.218  0.00  0.00    +0.121 A 
ATOM     17  C   UNL     1       1.129  -1.652  -1.184  0.00  0.00    +0.046 A 
ATOM     18  C   UNL     1       1.034  -3.030  -1.186  0.00  0.00    +0.009 A 
ATOM     19  C   UNL     1       1.595  -3.761  -2.217  0.00  0.00    -0.024 A 
ATOM     20  C   UNL     1       2.251  -3.116  -3.248  0.00  0.00    +0.009 A 
ATOM     21  C   UNL     1       2.343  -1.737  -3.254  0.00  0.00    +0.046 A 
BRANCH  16  22
ATOM     22  O   UNL     1       1.881   0.354  -2.218  0.00  0.00    -0.492 OA
BRANCH  22  24
ATOM     23  C   UNL     1       1.491   2.552  -1.293  0.00  0.00    +0.048 C 
ATOM     24  C   UNL     1       1.285   1.046  -1.119  0.00  0.00    +0.225 C 
ENDBRANCH  22  24
ENDBRANCH  16  22
ENDBRANCH   1  19
BRANCH   6  25
ATOM     25  C   UNL     1       0.225  -6.078  -5.786  0.00  0.00    +0.021 C 
BRANCH  25  26
ATOM     26  N   UNL     1      -0.992  -5.617  -6.468  0.00  0.00    +0.385 N 
ATOM     27  C   UNL     1      -0.919  -4.163  -6.669  0.00  0.00    -0.095 C 
ATOM     28  H   UNL     1      -1.798  -5.838  -5.904  0.00  0.00    -0.081 HD
BRANCH  26  29
ATOM     29  C   UNL     1      -1.106  -6.286  -7.771  0.00  0.00    -0.068 C 
ATOM     30  C   UNL     1      -2.373  -5.805  -8.481  0.00  0.00    -0.015 C 
ATOM     31  C   UNL     1      -2.492  -6.502  -9.838  0.00  0.00    -0.002 C 
ATOM     32  C   UNL     1      -2.567  -8.016  -9.629  0.00  0.00    -0.000 C 
ATOM     33  C   UNL     1      -1.300  -8.496  -8.919  0.00  0.00    -0.002 C 
ATOM     34  C   UNL     1      -1.181  -7.800  -7.562  0.00  0.00    -0.015 C 
ENDBRANCH  26  29
ENDBRANCH  25  26
ENDBRANCH   6  25
TORSDOF 7
