REMARK  Name = ZINC08780749
REMARK  10 active torsions:
REMARK  status: ('A' for Active; 'I' for Inactive)
REMARK    1  A    between atoms: C_1  and  C_2
REMARK    2  A    between atoms: C_2  and  C_3
REMARK    3  A    between atoms: C_2  and  C_4
REMARK    4  A    between atoms: C_7  and  C_10
REMARK    5  A    between atoms: C_11  and  C_12
REMARK    6  A    between atoms: C_11  and  C_13
REMARK    7  A    between atoms: N_14  and  N_15
REMARK    8  A    between atoms: C_16  and  C_18
REMARK    9  A    between atoms: C_23  and  C_24
REMARK   10  A    between atoms: C_23  and  N_63
REMARK                            x       y       z     vdW  Elec       q    Type
REMARK                         _______ _______ _______ _____ _____    ______ ____
ROOT
ATOM      1  N   UNL     1      -1.690   7.388   3.465  0.00  0.00    -0.207 N 
ATOM      2  C   UNL     1      -1.648   8.698   3.780  0.00  0.00    +0.235 C 
ATOM      3  O   UNL     1      -2.052   9.075   4.860  0.00  0.00    -0.274 OA
ATOM      4  H   UNL     1      -1.366   7.087   2.602  0.00  0.00    +0.177 HD
ENDROOT
BRANCH   2   5
ATOM      5  C   UNL     1      -1.100   9.694   2.791  0.00  0.00    +0.073 C 
ATOM      6  C   UNL     1       0.358   9.351   2.474  0.00  0.00    -0.006 C 
ATOM      7  C   UNL     1       0.927  10.400   1.516  0.00  0.00    -0.078 C 
ATOM      8  C   UNL     1      -0.553  12.100   2.407  0.00  0.00    -0.078 C 
ATOM      9  C   UNL     1      -1.166  11.101   3.392  0.00  0.00    -0.006 C 
ATOM     10  N   UNL     1       0.857  11.728   2.163  0.00  0.00    +0.382 N 
ATOM     11  H   UNL     1       1.351  11.687   3.062  0.00  0.00    -0.081 HD
BRANCH  10  12
ATOM     12  C   UNL     1       1.504  12.742   1.305  0.00  0.00    -0.043 C 
BRANCH  12  13
ATOM     13  C   UNL     1       2.984  12.459   1.252  0.00  0.00    -0.064 A 
ATOM     14  C   UNL     1       3.829  13.020   2.192  0.00  0.00    +0.003 A 
ATOM     15  C   UNL     1       5.185  12.757   2.147  0.00  0.00    +0.020 A 
ATOM     16  C   UNL     1       5.698  11.941   1.154  0.00  0.00    +0.041 A 
ATOM     17  C   UNL     1       4.853  11.384   0.211  0.00  0.00    +0.020 A 
ATOM     18  C   UNL     1       3.496  11.644   0.260  0.00  0.00    +0.003 A 
ATOM     19 CL   UNL     1       7.402  11.614   1.094  0.00  0.00    -0.084 Cl
ENDBRANCH  12  13
ENDBRANCH  10  12
ENDBRANCH   2   5
BRANCH   1  21
ATOM     20  C   UNL     1      -2.239   5.197   4.080  0.00  0.00    +0.133 C 
ATOM     21  N   UNL     1      -2.199   6.462   4.385  0.00  0.00    -0.188 NA
BRANCH  20  23
ATOM     22  C   UNL     1      -2.685   2.939   4.747  0.00  0.00    +0.012 C 
ATOM     23  C   UNL     1      -2.754   4.260   5.011  0.00  0.00    -0.030 C 
ATOM     24  C   UNL     1      -3.380   4.739   6.296  0.00  0.00    +0.045 C 
BRANCH  22  28
ATOM     25  C   UNL     1      -0.481   1.560   1.396  0.00  0.00    -0.045 A 
ATOM     26  C   UNL     1      -1.640   0.905   1.774  0.00  0.00    +0.004 A 
ATOM     27  C   UNL     1      -2.359   1.343   2.866  0.00  0.00    +0.008 A 
ATOM     28  C   UNL     1      -1.920   2.460   3.584  0.00  0.00    -0.025 A 
ATOM     29  C   UNL     1      -0.751   3.120   3.192  0.00  0.00    +0.008 A 
ATOM     30  C   UNL     1      -0.040   2.665   2.102  0.00  0.00    +0.004 A 
BRANCH  25  32
ATOM     31  C   UNL     1      -0.583   1.118  -1.042  0.00  0.00    +0.012 C 
ATOM     32  C   UNL     1       0.302   1.069   0.205  0.00  0.00    +0.013 C 
ATOM     33  C   UNL     1       0.758  -0.370   0.451  0.00  0.00    +0.012 C 
ENDBRANCH  25  32
ENDBRANCH  22  28
ENDBRANCH  20  23
ENDBRANCH   1  21
TORSDOF 7
