REMARK  Name = ZINC50042413
REMARK  5 active torsions:
REMARK  status: ('A' for Active; 'I' for Inactive)
REMARK    1  A    between atoms: C_1  and  C_2
REMARK    2  A    between atoms: C_5  and  C_8
REMARK    3  A    between atoms: C_5  and  N_21
REMARK    4  A    between atoms: C_10  and  C_13
REMARK    5  A    between atoms: C_13  and  C_14
REMARK                            x       y       z     vdW  Elec       q    Type
REMARK                         _______ _______ _______ _____ _____    ______ ____
ROOT
ATOM      1  C   UNL     1       1.499  -4.041  -0.034  0.00  0.00    +0.161 A 
ATOM      2  N   UNL     1       2.598  -4.804  -0.043  0.00  0.00    -0.197 NA
ATOM      3  C   UNL     1       2.267  -6.065  -0.049  0.00  0.00    +0.232 A 
ATOM      4  O   UNL     1       0.931  -6.148  -0.043  0.00  0.00    -0.338 OA
ATOM      5  N   UNL     1       0.450  -4.812  -0.028  0.00  0.00    -0.063 NA
ENDROOT
BRANCH   1  10
ATOM      6  C   UNL     1      -0.019   1.526   0.010  0.00  0.00    +0.007 C 
ATOM      7  C   UNL     1       0.002  -0.004   0.002  0.00  0.00    -0.014 C 
ATOM      8  C   UNL     1       0.718  -0.497  -1.257  0.00  0.00    +0.002 C 
ATOM      9  C   UNL     1       0.739  -2.027  -1.265  0.00  0.00    -0.005 C 
ATOM     10  C   UNL     1       1.479  -2.534  -0.026  0.00  0.00    -0.006 C 
ATOM     11  C   UNL     1       0.763  -2.041   1.233  0.00  0.00    -0.005 C 
ATOM     12  C   UNL     1       0.742  -0.511   1.242  0.00  0.00    +0.002 C 
BRANCH  10  13
ATOM     13  N   UNL     1       2.857  -2.026  -0.036  0.00  0.00    +0.387 N 
ATOM     14  H   UNL     1       2.843  -1.017  -0.031  0.00  0.00    -0.089 HD
ATOM     15  H   UNL     1       3.345  -2.360   0.781  0.00  0.00    -0.089 HD
ATOM     16  H   UNL     1       3.329  -2.351  -0.866  0.00  0.00    -0.089 HD
ENDBRANCH  10  13
ENDBRANCH   1  10
BRANCH   3  17
ATOM     17  C   UNL     1       3.224  -7.229  -0.059  0.00  0.00    +0.134 C 
BRANCH  17  18
ATOM     18  C   UNL     1       3.550  -7.625   1.358  0.00  0.00    -0.037 A 
ATOM     19  C   UNL     1       4.621  -7.042   2.010  0.00  0.00    +0.004 A 
ATOM     20  C   UNL     1       4.920  -7.404   3.309  0.00  0.00    +0.001 A 
ATOM     21  C   UNL     1       4.149  -8.351   3.958  0.00  0.00    +0.015 A 
ATOM     22  C   UNL     1       3.077  -8.934   3.307  0.00  0.00    +0.018 A 
ATOM     23  C   UNL     1       2.775  -8.567   2.008  0.00  0.00    +0.019 A 
ATOM     24 BR   UNL     1       2.022 -10.228   4.194  0.00  0.00    -0.050 Br
ENDBRANCH  17  18
ENDBRANCH   3  17
TORSDOF 4
