REMARK  Name = ZINC38617441
REMARK  12 active torsions:
REMARK  status: ('A' for Active; 'I' for Inactive)
REMARK    1  A    between atoms: C_1  and  C_2
REMARK    2  A    between atoms: C_2  and  C_3
REMARK    3  A    between atoms: C_3  and  C_5
REMARK    4  A    between atoms: C_3  and  N_6
REMARK    5  A    between atoms: C_8  and  C_16
REMARK    6  A    between atoms: C_9  and  C_15
REMARK    7  A    between atoms: C_10  and  C_13
REMARK    8  A    between atoms: C_16  and  C_18
REMARK    9  A    between atoms: C_18  and  C_19
REMARK   10  A    between atoms: C_19  and  N_20
REMARK   11  A    between atoms: C_24  and  C_25
REMARK   12  A    between atoms: C_28  and  C_31
REMARK                            x       y       z     vdW  Elec       q    Type
REMARK                         _______ _______ _______ _____ _____    ______ ____
ROOT
ATOM      1  C   UNL     1       2.716   2.105   6.310  0.00  0.00    +0.170 C 
ATOM      2  O   UNL     1       3.743   2.732   6.472  0.00  0.00    -0.292 OA
ENDROOT
BRANCH   1   5
ATOM      3  N   UNL     1       1.180  -0.210   3.825  0.00  0.00    -0.271 N 
ATOM      4  C   UNL     1       1.386   0.520   4.946  0.00  0.00    +0.265 A 
ATOM      5  C   UNL     1       2.521   1.327   5.087  0.00  0.00    +0.086 A 
ATOM      6  C   UNL     1       3.473   1.390   4.053  0.00  0.00    -0.012 A 
ATOM      7  C   UNL     1       3.264   0.640   2.901  0.00  0.00    +0.120 A 
ATOM      8  C   UNL     1       2.062  -0.190   2.808  0.00  0.00    +0.272 A 
ATOM      9  O   UNL     1       1.859  -0.859   1.811  0.00  0.00    -0.266 OA
ATOM     10  C   UNL     1       4.699   2.255   4.192  0.00  0.00    +0.046 C 
ATOM     11  O   UNL     1       0.483   0.469   5.943  0.00  0.00    -0.267 OA
BRANCH   3  12
ATOM     12  C   UNL     1      -0.022  -1.041   3.719  0.00  0.00    +0.090 C 
ATOM     13  C   UNL     1      -0.847  -0.593   2.511  0.00  0.00    +0.031 C 
BRANCH  12  15
ATOM     14  C   UNL     1       1.102  -2.991   4.804  0.00  0.00    +0.006 C 
ATOM     15  C   UNL     1       0.385  -2.506   3.543  0.00  0.00    +0.021 C 
ENDBRANCH  12  15
ENDBRANCH   3  12
BRANCH   7  16
ATOM     16  C   UNL     1       4.209   0.677   1.827  0.00  0.00    +0.105 C 
ATOM     17  N   UNL     1       4.959   0.706   0.974  0.00  0.00    -0.191 NA
ENDBRANCH   7  16
ENDBRANCH   1   5
BRANCH   1  18
ATOM     18  C   UNL     1       1.644   2.127   7.369  0.00  0.00    +0.099 C 
BRANCH  18  19
ATOM     19  C   UNL     1       2.031   3.121   8.466  0.00  0.00    +0.123 C 
BRANCH  19  20
ATOM     20  N   UNL     1       0.989   3.143   9.495  0.00  0.00    -0.255 N 
ATOM     21  C   UNL     1      -0.018   3.991   9.376  0.00  0.00    +0.258 C 
ATOM     22  O   UNL     1      -0.103   4.756   8.433  0.00  0.00    -0.269 OA
ATOM     23  C   UNL     1      -1.037   3.963  10.448  0.00  0.00    +0.077 C 
ATOM     24  C   UNL     1      -2.162   4.707  10.591  0.00  0.00    +0.028 C 
ATOM     25  S   UNL     1      -0.376   2.681  11.504  0.00  0.00    -0.061 S 
ATOM     26  C   UNL     1       1.076   2.294  10.539  0.00  0.00    +0.121 C 
ATOM     27  S   UNL     1       2.287   1.128  10.862  0.00  0.00    -0.027 S 
BRANCH  24  28
ATOM     28  C   UNL     1      -2.917   4.662  11.852  0.00  0.00    -0.024 A 
ATOM     29  C   UNL     1      -2.383   4.010  12.969  0.00  0.00    +0.008 A 
ATOM     30  C   UNL     1      -3.097   3.973  14.147  0.00  0.00    +0.004 A 
ATOM     31  C   UNL     1      -4.339   4.579  14.228  0.00  0.00    -0.050 A 
ATOM     32  C   UNL     1      -4.874   5.227  13.127  0.00  0.00    +0.004 A 
ATOM     33  C   UNL     1      -4.170   5.278  11.943  0.00  0.00    +0.008 A 
ATOM     34  C   UNL     1      -5.113   4.533  15.520  0.00  0.00    +0.044 C 
ENDBRANCH  24  28
ENDBRANCH  19  20
ENDBRANCH  18  19
ENDBRANCH   1  18
TORSDOF 8
