REMARK  Name = ZINC27981218
REMARK  9 active torsions:
REMARK  status: ('A' for Active; 'I' for Inactive)
REMARK    1  A    between atoms: C_1  and  C_2
REMARK    2  A    between atoms: C_4  and  C_31
REMARK    3  A    between atoms: N_5  and  C_7
REMARK    4  A    between atoms: C_7  and  C_8
REMARK    5  A    between atoms: C_11  and  C_13
REMARK    6  A    between atoms: N_15  and  C_16
REMARK    7  A    between atoms: C_19  and  S_22
REMARK    8  A    between atoms: S_22  and  N_25
REMARK    9  A    between atoms: N_25  and  C_26
REMARK                            x       y       z     vdW  Elec       q    Type
REMARK                         _______ _______ _______ _____ _____    ______ ____
ROOT
ATOM      1  C   UNL     1       2.477   1.487  -0.012  0.00  0.00    +0.284 C 
ATOM      2  O   UNL     1       2.759   0.303  -0.012  0.00  0.00    -0.266 OA
ATOM      3  N   UNL     1       3.456   2.414  -0.018  0.00  0.00    -0.279 N 
ATOM      4  H   UNL     1       3.203   3.481  -0.095  0.00  0.00    +0.155 HD
ENDROOT
BRANCH   3   5
ATOM      5  C   UNL     1       4.794   2.017   0.073  0.00  0.00    +0.034 A 
ATOM      6  C   UNL     1       5.708   2.805   0.760  0.00  0.00    +0.025 A 
ATOM      7  C   UNL     1       7.028   2.408   0.852  0.00  0.00    +0.031 A 
ATOM      8  C   UNL     1       7.441   1.233   0.252  0.00  0.00    +0.111 A 
ATOM      9  C   UNL     1       6.535   0.449  -0.438  0.00  0.00    +0.031 A 
ATOM     10  C   UNL     1       5.213   0.838  -0.529  0.00  0.00    +0.025 A 
BRANCH   8  11
ATOM     11  S   UNL     1       9.127   0.734   0.365  0.00  0.00    +0.093 S 
ATOM     12  O   UNL     1       9.659   1.361   1.525  0.00  0.00    -0.148 OA
ATOM     13  O   UNL     1       9.147  -0.675   0.184  0.00  0.00    -0.148 OA
BRANCH  11  14
ATOM     14  N   UNL     1       9.921   1.389  -0.932  0.00  0.00    -0.070 NA
BRANCH  14  15
ATOM     15  C   UNL     1      10.043   2.765  -1.047  0.00  0.00    +0.201 A 
ATOM     16  N   UNL     1       9.597   3.708  -0.239  0.00  0.00    -0.231 NA
ATOM     17  C   UNL     1       9.806   4.985  -0.498  0.00  0.00    +0.120 A 
ATOM     18  C   UNL     1      10.485   5.313  -1.623  0.00  0.00    +0.068 A 
ATOM     19  S   UNL     1      10.818   3.691  -2.295  0.00  0.00    -0.058 S 
ENDBRANCH  14  15
ENDBRANCH  11  14
ENDBRANCH   8  11
ENDBRANCH   3   5
BRANCH   1  23
ATOM     20  C   UNL     1      -0.716   3.178   0.003  0.00  0.00    +0.127 A 
ATOM     21  C   UNL     1      -1.150   1.899   0.002  0.00  0.00    +0.047 A 
ATOM     22  C   UNL     1      -0.013   1.076   0.002  0.00  0.00    +0.055 A 
ATOM     23  C   UNL     1       1.072   1.906  -0.004  0.00  0.00    +0.190 A 
ATOM     24  O   UNL     1       0.624   3.179  -0.004  0.00  0.00    -0.453 OA
BRANCH  20  25
ATOM     25  C   UNL     1      -1.593   4.403   0.005  0.00  0.00    +0.218 C 
BRANCH  25  30
ATOM     26  C   UNL     1      -1.174   6.644   4.478  0.00  0.00    +0.069 C 
ATOM     27  C   UNL     1      -1.668   5.793   3.336  0.00  0.00    +0.078 A 
ATOM     28  C   UNL     1      -2.807   4.980   3.353  0.00  0.00    +0.084 A 
ATOM     29  C   UNL     1      -2.912   4.387   2.140  0.00  0.00    +0.055 A 
ATOM     30  N   UNL     1      -1.871   4.802   1.387  0.00  0.00    -0.260 N 
ATOM     31  N   UNL     1      -1.107   5.687   2.159  0.00  0.00    -0.174 NA
ATOM     32  C   UNL     1      -3.995   3.431   1.710  0.00  0.00    +0.067 C 
ATOM     33 CL   UNL     1      -3.897   4.774   4.689  0.00  0.00    -0.080 Cl
ENDBRANCH  25  30
ENDBRANCH  20  25
ENDBRANCH   1  23
TORSDOF 7
