REMARK  Name = ZINC37311603
REMARK  2 active torsions:
REMARK  status: ('A' for Active; 'I' for Inactive)
REMARK    1  A    between atoms: C_3  and  O_22
REMARK    2  A    between atoms: C_4  and  C_8
REMARK                            x       y       z     vdW  Elec       q    Type
REMARK                         _______ _______ _______ _____ _____    ______ ____
ROOT
ATOM      1  C   UNL     1       3.694  -0.693  -0.037  0.00  0.00    +0.143 A 
ATOM      2  N   UNL     1       3.836  -2.055  -0.052  0.00  0.00    -0.338 N 
ATOM      3  H   UNL     1       3.118  -2.708  -0.053  0.00  0.00    +0.167 HD
ATOM      4  C   UNL     1       5.192  -2.325  -0.064  0.00  0.00    +0.070 A 
ATOM      5  C   UNL     1       5.939  -3.494  -0.079  0.00  0.00    +0.077 A 
ATOM      6  C   UNL     1       7.321  -3.433  -0.090  0.00  0.00    +0.164 A 
ATOM      7  C   UNL     1       7.970  -2.198  -0.086  0.00  0.00    +0.164 A 
ATOM      8  C   UNL     1       7.238  -1.027  -0.069  0.00  0.00    +0.079 A 
ATOM      9  C   UNL     1       5.840  -1.078  -0.058  0.00  0.00    +0.093 A 
ATOM     10  N   UNL     1       4.875  -0.125  -0.047  0.00  0.00    -0.227 NA
ATOM     11  O   UNL     1       9.331  -2.128  -0.105  0.00  0.00    -0.485 OA
ATOM     12  C   UNL     1      10.041  -3.317   0.254  0.00  0.00    +0.270 C 
ATOM     13  C   UNL     1       9.409  -4.499  -0.493  0.00  0.00    +0.270 C 
ATOM     14  O   UNL     1       8.035  -4.593  -0.102  0.00  0.00    -0.485 OA
ENDROOT
BRANCH   1  18
ATOM     15  C   UNL     1      -0.017   1.381   0.010  0.00  0.00    +0.023 A 
ATOM     16  C   UNL     1       1.166   2.095   0.002  0.00  0.00    +0.047 A 
ATOM     17  C   UNL     1       2.381   1.428  -0.013  0.00  0.00    +0.128 A 
ATOM     18  C   UNL     1       2.404   0.028  -0.021  0.00  0.00    +0.060 A 
ATOM     19  C   UNL     1       1.204  -0.683  -0.013  0.00  0.00    +0.035 A 
ATOM     20  C   UNL     1       0.002  -0.004   0.002  0.00  0.00    +0.042 A 
ATOM     21 CL   UNL     1      -1.491  -0.889   0.012  0.00  0.00    -0.084 Cl
BRANCH  17  22
ATOM     22  O   UNL     1       3.543   2.130  -0.021  0.00  0.00    -0.506 OA
ATOM     23  H   UNL     1       3.889   2.328   0.860  0.00  0.00    +0.292 HD
ENDBRANCH  17  22
ENDBRANCH   1  18
TORSDOF 2
