REMARK  Name = ZINC40004019
REMARK  13 active torsions:
REMARK  status: ('A' for Active; 'I' for Inactive)
REMARK    1  A    between atoms: C_1  and  C_2
REMARK    2  A    between atoms: C_2  and  O_3
REMARK    3  A    between atoms: O_3  and  C_4
REMARK    4  A    between atoms: C_6  and  C_14
REMARK    5  A    between atoms: C_9  and  O_10
REMARK    6  A    between atoms: O_10  and  C_11
REMARK    7  A    between atoms: C_11  and  C_12
REMARK    8  A    between atoms: C_16  and  C_28
REMARK    9  A    between atoms: N_20  and  C_21
REMARK   10  A    between atoms: C_21  and  C_22
REMARK   11  A    between atoms: C_28  and  C_30
REMARK   12  A    between atoms: C_31  and  C_40
REMARK   13  A    between atoms: C_38  and  C_39
REMARK                            x       y       z     vdW  Elec       q    Type
REMARK                         _______ _______ _______ _____ _____    ______ ____
ROOT
ATOM      1  C   UNL     1       0.416  -5.771  -0.847  0.00  0.00    +0.145 C 
ATOM      2  C   UNL     1       1.036  -5.835  -2.224  0.00  0.00    +0.078 C 
ATOM      3  C   UNL     1       1.154  -7.144  -2.538  0.00  0.00    +0.249 C 
ATOM      4  C   UNL     1       0.637  -7.961  -1.423  0.00  0.00    +0.288 C 
ATOM      5  O   UNL     1       0.607  -9.176  -1.405  0.00  0.00    -0.266 OA
ATOM      6  N   UNL     1       0.203  -7.162  -0.429  0.00  0.00    -0.276 N 
ATOM      7  O   UNL     1       1.666  -7.630  -3.694  0.00  0.00    -0.282 OA
ENDROOT
BRANCH   1  10
ATOM      8  C   UNL     1      -2.242  -3.134  -0.346  0.00  0.00    +0.162 A 
ATOM      9  C   UNL     1      -1.032  -3.807  -0.295  0.00  0.00    +0.055 A 
ATOM     10  C   UNL     1      -0.901  -5.040  -0.904  0.00  0.00    -0.019 A 
ATOM     11  C   UNL     1      -1.975  -5.605  -1.567  0.00  0.00    +0.009 A 
ATOM     12  C   UNL     1      -3.185  -4.939  -1.623  0.00  0.00    +0.050 A 
ATOM     13  C   UNL     1      -3.325  -3.704  -1.008  0.00  0.00    +0.162 A 
BRANCH   8  14
ATOM     14  O   UNL     1      -2.373  -1.920   0.253  0.00  0.00    -0.489 OA
BRANCH  14  16
ATOM     15  C   UNL     1      -1.509   0.059   1.339  0.00  0.00    +0.048 C 
ATOM     16  C   UNL     1      -1.192  -1.344   0.817  0.00  0.00    +0.226 C 
ENDBRANCH  14  16
ENDBRANCH   8  14
BRANCH  13  17
ATOM     17  O   UNL     1      -4.516  -3.050  -1.057  0.00  0.00    -0.484 OA
BRANCH  17  18
ATOM     18  C   UNL     1      -5.583  -3.696  -1.754  0.00  0.00    +0.256 C 
BRANCH  18  19
ATOM     19  C   UNL     1      -6.814  -2.829  -1.703  0.00  0.00    +0.006 C 
ATOM     20  C   UNL     1      -7.527  -2.640  -2.786  0.00  0.00    +0.007 C 
ENDBRANCH  18  19
ENDBRANCH  17  18
ENDBRANCH  13  17
ENDBRANCH   1  10
BRANCH   2  21
ATOM     21  C   UNL     1       1.433  -4.694  -3.058  0.00  0.00    +0.213 C 
ATOM     22  O   UNL     1       0.586  -4.051  -3.656  0.00  0.00    -0.285 OA
BRANCH  21  23
ATOM     23  C   UNL     1       2.800  -4.340  -3.170  0.00  0.00    +0.116 A 
ATOM     24  C   UNL     1       3.865  -4.903  -2.477  0.00  0.00    +0.068 A 
ATOM     25  N   UNL     1       4.974  -4.298  -2.864  0.00  0.00    -0.232 NA
ATOM     26  C   UNL     1       4.689  -3.368  -3.776  0.00  0.00    +0.141 A 
ATOM     27  N   UNL     1       3.341  -3.370  -3.995  0.00  0.00    -0.296 N 
ATOM     28  C   UNL     1       2.782  -2.514  -4.890  0.00  0.00    +0.093 A 
ATOM     29  C   UNL     1       3.551  -1.644  -5.585  0.00  0.00    +0.018 A 
ATOM     30  C   UNL     1       4.938  -1.618  -5.386  0.00  0.00    +0.008 A 
ATOM     31  C   UNL     1       5.505  -2.469  -4.483  0.00  0.00    -0.008 A 
ATOM     32  C   UNL     1       6.995  -2.455  -4.258  0.00  0.00    +0.047 C 
ATOM     33  C   UNL     1       3.771  -6.011  -1.460  0.00  0.00    +0.068 C 
ENDBRANCH  21  23
ENDBRANCH   2  21
BRANCH   6  34
ATOM     34  C   UNL     1      -0.376  -7.602   0.842  0.00  0.00    +0.183 C 
BRANCH  34  35
ATOM     35  C   UNL     1      -1.871  -7.730   0.695  0.00  0.00    +0.122 A 
ATOM     36  C   UNL     1      -2.532  -8.839   0.318  0.00  0.00    +0.046 A 
ATOM     37  C   UNL     1      -3.908  -8.515   0.314  0.00  0.00    +0.041 A 
ATOM     38  C   UNL     1      -4.005  -7.226   0.689  0.00  0.00    +0.195 A 
ATOM     39  O   UNL     1      -2.768  -6.758   0.924  0.00  0.00    -0.466 OA
ENDBRANCH  34  35
ENDBRANCH   6  34
TORSDOF 10
