REMARK  Name = ZINC63437222
REMARK  12 active torsions:
REMARK  status: ('A' for Active; 'I' for Inactive)
REMARK    1  A    between atoms: C_1  and  O_2
REMARK    2  A    between atoms: O_2  and  C_3
REMARK    3  A    between atoms: C_3  and  C_5
REMARK    4  A    between atoms: C_8  and  C_10
REMARK    5  A    between atoms: C_10  and  S_11
REMARK    6  A    between atoms: S_11  and  C_12
REMARK    7  A    between atoms: C_24  and  S_26
REMARK    8  A    between atoms: S_26  and  C_27
REMARK    9  A    between atoms: C_27  and  C_28
REMARK   10  A    between atoms: C_31  and  C_33
REMARK   11  A    between atoms: C_33  and  O_35
REMARK   12  A    between atoms: O_35  and  C_36
REMARK                            x       y       z     vdW  Elec       q    Type
REMARK                         _______ _______ _______ _____ _____    ______ ____
ROOT
ATOM      1  C   UNL     1       0.680  -7.368   2.048  0.00  0.00    +0.111 A 
ATOM      2  C   UNL     1       1.468  -8.083   3.072  0.00  0.00    +0.050 A 
ATOM      3  C   UNL     1       2.692  -7.933   3.576  0.00  0.00    -0.034 C 
ATOM      4  C   UNL     1       3.819  -7.024   3.154  0.00  0.00    +0.033 C 
ATOM      5  C   UNL     1       5.066  -7.908   2.983  0.00  0.00    +0.004 C 
ATOM      6  C   UNL     1       5.268  -8.766   4.231  0.00  0.00    +0.003 C 
ATOM      7  C   UNL     1       4.109  -9.750   4.415  0.00  0.00    +0.029 C 
ATOM      8  C   UNL     1       2.830  -8.955   4.692  0.00  0.00    +0.108 C 
ATOM      9  N   UNL     1       1.638  -9.796   4.595  0.00  0.00    -0.363 N 
ATOM     10  C   UNL     1       0.844  -9.287   3.683  0.00  0.00    +0.140 A 
ATOM     11  N   UNL     1      -0.374  -9.648   3.236  0.00  0.00    -0.204 NA
ATOM     12  C   UNL     1      -0.999  -8.952   2.307  0.00  0.00    +0.192 A 
ATOM     13  N   UNL     1      -0.513  -7.853   1.737  0.00  0.00    -0.215 NA
ATOM     14  H   UNL     1       1.464 -10.596   5.116  0.00  0.00    +0.162 HD
ENDROOT
BRANCH   1  15
ATOM     15  S   UNL     1       1.302  -5.915   1.270  0.00  0.00    -0.097 S 
BRANCH  15  16
ATOM     16  C   UNL     1      -0.019  -5.429   0.126  0.00  0.00    +0.150 C 
BRANCH  16  20
ATOM     17  C   UNL     1       0.659  -2.064  -1.123  0.00  0.00    +0.212 A 
ATOM     18  C   UNL     1       1.237  -2.795  -2.122  0.00  0.00    +0.057 A 
ATOM     19  C   UNL     1       1.061  -4.146  -1.787  0.00  0.00    +0.046 A 
ATOM     20  C   UNL     1       0.391  -4.181  -0.614  0.00  0.00    +0.116 A 
ATOM     21  O   UNL     1       0.155  -2.925  -0.214  0.00  0.00    -0.452 OA
BRANCH  17  22
ATOM     22  C   UNL     1       0.601  -0.603  -1.048  0.00  0.00    +0.375 C 
ATOM     23  O   UNL     1       1.094   0.071  -1.932  0.00  0.00    -0.241 OA
BRANCH  22  25
ATOM     24  C   UNL     1      -0.017   1.425   0.010  0.00  0.00    +0.280 C 
ATOM     25  O   UNL     1       0.002  -0.004   0.002  0.00  0.00    -0.462 OA
ENDBRANCH  22  25
ENDBRANCH  17  22
ENDBRANCH  16  20
ENDBRANCH  15  16
ENDBRANCH   1  15
BRANCH  12  26
ATOM     26  S   UNL     1      -2.588  -9.512   1.791  0.00  0.00    -0.078 S 
BRANCH  26  27
ATOM     27  C   UNL     1      -3.090  -8.306   0.532  0.00  0.00    +0.151 C 
BRANCH  27  28
ATOM     28  C   UNL     1      -4.452  -8.672   0.001  0.00  0.00    +0.116 A 
ATOM     29  C   UNL     1      -5.633  -8.242   0.498  0.00  0.00    +0.046 A 
ATOM     30  C   UNL     1      -6.645  -8.818  -0.285  0.00  0.00    +0.057 A 
ATOM     31  C   UNL     1      -6.023  -9.579  -1.233  0.00  0.00    +0.212 A 
ATOM     32  O   UNL     1      -4.691  -9.473  -1.046  0.00  0.00    -0.452 OA
BRANCH  31  33
ATOM     33  C   UNL     1      -6.685 -10.369  -2.274  0.00  0.00    +0.375 C 
ATOM     34  O   UNL     1      -7.899 -10.383  -2.346  0.00  0.00    -0.241 OA
BRANCH  33  35
ATOM     35  O   UNL     1      -5.949 -11.080  -3.152  0.00  0.00    -0.462 OA
ATOM     36  C   UNL     1      -6.661 -11.827  -4.141  0.00  0.00    +0.280 C 
ENDBRANCH  33  35
ENDBRANCH  31  33
ENDBRANCH  27  28
ENDBRANCH  26  27
ENDBRANCH  12  26
TORSDOF 10
