REMARK  Name = ZINC35231809
REMARK  8 active torsions:
REMARK  status: ('A' for Active; 'I' for Inactive)
REMARK    1  A    between atoms: C_1  and  C_2
REMARK    2  A    between atoms: C_2  and  C_3
REMARK    3  A    between atoms: C_2  and  N_4
REMARK    4  A    between atoms: N_4  and  C_5
REMARK    5  A    between atoms: C_5  and  C_6
REMARK    6  A    between atoms: C_20  and  C_22
REMARK    7  A    between atoms: N_31  and  C_32
REMARK    8  A    between atoms: C_35  and  C_38
REMARK                            x       y       z     vdW  Elec       q    Type
REMARK                         _______ _______ _______ _____ _____    ______ ____
ROOT
ATOM      1  C   UNL     1      -0.736  -3.880  -0.048  0.00  0.00    +0.238 C 
ATOM      2  O   UNL     1      -0.763  -2.942  -0.816  0.00  0.00    -0.273 OA
ATOM      3  N   UNL     1      -0.942  -5.132  -0.505  0.00  0.00    -0.255 N 
ATOM      4  C   UNL     1      -1.099  -5.358  -1.879  0.00  0.00    +0.061 A 
ATOM      5  C   UNL     1      -1.638  -4.378  -2.697  0.00  0.00    +0.025 A 
ATOM      6  C   UNL     1      -1.777  -4.610  -4.052  0.00  0.00    +0.002 A 
ATOM      7  C   UNL     1      -1.381  -5.816  -4.601  0.00  0.00    +0.002 A 
ATOM      8  C   UNL     1      -0.846  -6.804  -3.792  0.00  0.00    +0.028 A 
ATOM      9  C   UNL     1      -0.709  -6.580  -2.436  0.00  0.00    +0.068 A 
ATOM     10  N   UNL     1      -0.196  -7.559  -1.573  0.00  0.00    -0.316 N 
ATOM     11  C   UNL     1       0.456  -8.714  -1.850  0.00  0.00    +0.092 A 
ATOM     12  C   UNL     1       0.757  -9.319  -0.679  0.00  0.00    +0.020 A 
ATOM     13  C   UNL     1       0.266  -8.501   0.362  0.00  0.00    +0.025 A 
ATOM     14  C   UNL     1      -0.312  -7.437  -0.205  0.00  0.00    +0.049 A 
ATOM     15  C   UNL     1      -0.995  -6.260   0.440  0.00  0.00    +0.159 C 
ENDROOT
BRANCH  15  16
ATOM     16  C   UNL     1      -2.430  -6.608   0.739  0.00  0.00    -0.021 A 
ATOM     17  C   UNL     1      -3.369  -6.597  -0.276  0.00  0.00    +0.008 A 
ATOM     18  C   UNL     1      -4.686  -6.917  -0.004  0.00  0.00    +0.038 A 
ATOM     19  C   UNL     1      -5.064  -7.249   1.286  0.00  0.00    +0.123 A 
ATOM     20  C   UNL     1      -4.123  -7.260   2.302  0.00  0.00    +0.038 A 
ATOM     21  C   UNL     1      -2.806  -6.944   2.026  0.00  0.00    +0.008 A 
ATOM     22  F   UNL     1      -6.351  -7.561   1.554  0.00  0.00    -0.205 F 
ENDBRANCH  15  16
BRANCH   1  23
ATOM     23  C   UNL     1      -0.472  -3.647   1.417  0.00  0.00    +0.205 C 
BRANCH  23  24
ATOM     24  N   UNL     1      -0.413  -2.207   1.680  0.00  0.00    -0.274 N 
ATOM     25  C   UNL     1       0.763  -1.554   1.595  0.00  0.00    +0.307 C 
ATOM     26  O   UNL     1       1.789  -2.174   1.393  0.00  0.00    -0.252 OA
ATOM     27  N   UNL     1       0.801  -0.214   1.733  0.00  0.00    -0.269 N 
ATOM     28  H   UNL     1       0.002   0.270   1.996  0.00  0.00    +0.156 HD
BRANCH  27  29
ATOM     29  C   UNL     1       1.990   0.478   1.498  0.00  0.00    +0.035 A 
ATOM     30  C   UNL     1       2.869   0.033   0.517  0.00  0.00    +0.024 A 
ATOM     31  C   UNL     1       4.043   0.714   0.282  0.00  0.00    +0.020 A 
ATOM     32  C   UNL     1       4.350   1.853   1.031  0.00  0.00    +0.052 A 
ATOM     33  C   UNL     1       3.463   2.298   2.016  0.00  0.00    +0.020 A 
ATOM     34  C   UNL     1       2.289   1.615   2.242  0.00  0.00    +0.024 A 
BRANCH  32  35
ATOM     35  C   UNL     1       5.570   2.564   0.790  0.00  0.00    +0.099 C 
ATOM     36  N   UNL     1       6.538   3.127   0.600  0.00  0.00    -0.191 NA
ENDBRANCH  32  35
ENDBRANCH  27  29
BRANCH  24  38
ATOM     37  C   UNL     1      -2.698  -1.713   0.963  0.00  0.00    +0.028 C 
ATOM     38  C   UNL     1      -1.632  -1.477   2.035  0.00  0.00    +0.072 C 
ATOM     39  C   UNL     1      -2.149  -1.974   3.386  0.00  0.00    +0.028 C 
ENDBRANCH  24  38
ENDBRANCH  23  24
ENDBRANCH   1  23
TORSDOF 6
