REMARK  Name = ZINC65445428
REMARK  6 active torsions:
REMARK  status: ('A' for Active; 'I' for Inactive)
REMARK    1  A    between atoms: C_1  and  C_2
REMARK    2  A    between atoms: C_5  and  C_9
REMARK    3  A    between atoms: C_6  and  C_8
REMARK    4  A    between atoms: C_9  and  C_10
REMARK    5  A    between atoms: C_10  and  N_11
REMARK    6  A    between atoms: C_23  and  C_26
REMARK                            x       y       z     vdW  Elec       q    Type
REMARK                         _______ _______ _______ _____ _____    ______ ____
ROOT
ATOM      1  N   UNL     1      -3.676  -6.301   0.312  0.00  0.00    -0.299 N 
ATOM      2  C   UNL     1      -2.505  -6.959   0.206  0.00  0.00    +0.302 C 
ATOM      3  O   UNL     1      -1.474  -6.340   0.025  0.00  0.00    -0.253 OA
ATOM      4  N   UNL     1      -2.476  -8.303   0.299  0.00  0.00    -0.284 N 
ATOM      5  C   UNL     1      -3.754  -9.006   0.405  0.00  0.00    +0.111 C 
ATOM      6  C   UNL     1      -4.134  -9.498  -0.978  0.00  0.00    +0.038 C 
ATOM      7  C   UNL     1      -3.499 -10.865  -1.249  0.00  0.00    +0.108 C 
ATOM      8  N   UNL     1      -2.114 -10.951  -0.763  0.00  0.00    -0.308 N 
ATOM      9  C   UNL     1      -1.140  -9.888  -0.940  0.00  0.00    +0.126 C 
ATOM     10  C   UNL     1      -1.205  -8.940   0.283  0.00  0.00    +0.128 C 
ATOM     11  C   UNL     1      -1.718 -12.104  -0.103  0.00  0.00    +0.161 A 
ATOM     12  N   UNL     1      -0.541 -12.387   0.413  0.00  0.00    -0.230 NA
ATOM     13  C   UNL     1      -0.322 -13.542   1.017  0.00  0.00    +0.047 A 
ATOM     14  C   UNL     1      -1.358 -14.412   1.078  0.00  0.00    +0.071 A 
ATOM     15  S   UNL     1      -2.628 -13.478   0.239  0.00  0.00    -0.060 S 
ATOM     16  C   UNL     1       1.022 -13.877   1.610  0.00  0.00    +0.066 C 
ATOM     17  H   UNL     1      -4.507  -6.797   0.380  0.00  0.00    +0.150 HD
ENDROOT
BRANCH   1  18
ATOM     18  C   UNL     1      -3.695  -4.836   0.325  0.00  0.00    +0.110 C 
BRANCH  18  19
ATOM     19  C   UNL     1      -5.139  -4.346   0.454  0.00  0.00    +0.054 C 
BRANCH  19  24
ATOM     20  C   UNL     1      -5.210   1.432   0.505  0.00  0.00    +0.044 C 
ATOM     21  C   UNL     1      -5.192  -0.075   0.491  0.00  0.00    -0.050 A 
ATOM     22  C   UNL     1      -5.185  -0.776   1.683  0.00  0.00    +0.003 A 
ATOM     23  C   UNL     1      -5.168  -2.158   1.670  0.00  0.00    +0.004 A 
ATOM     24  C   UNL     1      -5.158  -2.839   0.467  0.00  0.00    -0.043 A 
ATOM     25  C   UNL     1      -5.166  -2.138  -0.724  0.00  0.00    -0.047 A 
ATOM     26  C   UNL     1      -5.187  -0.755  -0.712  0.00  0.00    +0.007 A 
ATOM     27  C   UNL     1      -5.154  -2.879  -2.035  0.00  0.00    +0.044 C 
ENDBRANCH  19  24
ENDBRANCH  18  19
ENDBRANCH   1  18
TORSDOF 3
