REMARK  Name = ZINC08726343
REMARK  15 active torsions:
REMARK  status: ('A' for Active; 'I' for Inactive)
REMARK    1  A    between atoms: C_1  and  C_2
REMARK    2  A    between atoms: C_5  and  S_8
REMARK    3  A    between atoms: S_8  and  N_11
REMARK    4  A    between atoms: N_11  and  C_12
REMARK    5  A    between atoms: C_12  and  C_14
REMARK    6  A    between atoms: C_12  and  C_18
REMARK    7  A    between atoms: C_14  and  C_16
REMARK    8  A    between atoms: C_14  and  O_17
REMARK    9  A    between atoms: C_18  and  O_20
REMARK   10  A    between atoms: O_20  and  C_21
REMARK   11  A    between atoms: C_21  and  C_22
REMARK   12  A    between atoms: N_24  and  C_25
REMARK   13  A    between atoms: N_24  and  C_26
REMARK   14  A    between atoms: C_26  and  C_27
REMARK   15  A    between atoms: N_29  and  C_30
REMARK                            x       y       z     vdW  Elec       q    Type
REMARK                         _______ _______ _______ _____ _____    ______ ____
ROOT
ATOM      1  C   UNL     1       0.106   0.957   2.349  0.00  0.00    +0.329 C 
ATOM      2  O   UNL     1       1.150   0.392   2.572  0.00  0.00    -0.249 OA
ENDROOT
BRANCH   1   3
ATOM      3  C   UNL     1      -0.681   1.561   3.484  0.00  0.00    +0.213 C 
BRANCH   3   4
ATOM      4  N   UNL     1       0.027   1.330   4.746  0.00  0.00    -0.174 NA
ATOM      5  H   UNL     1       0.892   1.741   4.899  0.00  0.00    +0.149 HD
BRANCH   4   6
ATOM      6  S   UNL     1      -0.650   0.367   5.911  0.00  0.00    +0.059 S 
ATOM      7  O   UNL     1       0.274   0.323   6.989  0.00  0.00    -0.153 OA
ATOM      8  O   UNL     1      -1.991   0.809   6.074  0.00  0.00    -0.153 OA
BRANCH   6  13
ATOM      9  C   UNL     1      -0.940  -5.223   3.659  0.00  0.00    +0.044 C 
ATOM     10  C   UNL     1      -0.868  -3.827   4.221  0.00  0.00    -0.050 A 
ATOM     11  C   UNL     1       0.255  -3.420   4.918  0.00  0.00    +0.005 A 
ATOM     12  C   UNL     1       0.321  -2.139   5.435  0.00  0.00    +0.029 A 
ATOM     13  C   UNL     1      -0.735  -1.266   5.253  0.00  0.00    +0.105 A 
ATOM     14  C   UNL     1      -1.859  -1.674   4.560  0.00  0.00    +0.029 A 
ATOM     15  C   UNL     1      -1.923  -2.953   4.040  0.00  0.00    +0.005 A 
ENDBRANCH   6  13
ENDBRANCH   4   6
ENDBRANCH   3   4
BRANCH   3  16
ATOM     16  C   UNL     1      -0.835   3.066   3.254  0.00  0.00    +0.141 C 
ATOM     17  C   UNL     1      -1.717   3.662   4.353  0.00  0.00    +0.040 C 
BRANCH  16  18
ATOM     18  O   UNL     1      -1.441   3.293   1.980  0.00  0.00    -0.390 OA
ATOM     19  H   UNL     1      -2.319   2.899   1.886  0.00  0.00    +0.210 HD
ENDBRANCH  16  18
ENDBRANCH   3  16
ENDBRANCH   1   3
BRANCH   1  20
ATOM     20  O   UNL     1      -0.354   1.047   1.091  0.00  0.00    -0.454 OA
BRANCH  20  21
ATOM     21  C   UNL     1       0.456   0.443   0.049  0.00  0.00    +0.327 C 
BRANCH  21  22
ATOM     22  C   UNL     1      -0.214   0.642  -1.286  0.00  0.00    +0.253 C 
ATOM     23  O   UNL     1      -1.270   1.236  -1.353  0.00  0.00    -0.272 OA
ATOM     24  N   UNL     1       0.360   0.162  -2.407  0.00  0.00    -0.293 N 
ATOM     25  C   UNL     1       1.636  -0.555  -2.327  0.00  0.00    +0.132 C 
BRANCH  24  26
ATOM     26  C   UNL     1      -0.290   0.356  -3.705  0.00  0.00    +0.203 C 
BRANCH  26  27
ATOM     27  C   UNL     1       0.185   1.648  -4.318  0.00  0.00    +0.235 C 
ATOM     28  O   UNL     1       0.989   2.338  -3.728  0.00  0.00    -0.274 OA
ATOM     29  N   UNL     1      -0.282   2.036  -5.521  0.00  0.00    -0.284 N 
ATOM     30  H   UNL     1      -0.871   1.451  -6.023  0.00  0.00    +0.155 HD
BRANCH  29  31
ATOM     31  C   UNL     1       0.082   3.282  -6.045  0.00  0.00    +0.034 A 
ATOM     32  C   UNL     1      -0.826   4.010  -6.802  0.00  0.00    +0.026 A 
ATOM     33  C   UNL     1      -0.467   5.242  -7.313  0.00  0.00    +0.040 A 
ATOM     34  C   UNL     1       0.801   5.746  -7.080  0.00  0.00    +0.124 A 
ATOM     35  C   UNL     1       1.710   5.019  -6.330  0.00  0.00    +0.040 A 
ATOM     36  C   UNL     1       1.353   3.789  -5.812  0.00  0.00    +0.026 A 
ATOM     37  F   UNL     1       1.153   6.949  -7.586  0.00  0.00    -0.205 F 
ENDBRANCH  29  31
ENDBRANCH  26  27
ENDBRANCH  24  26
ENDBRANCH  21  22
ENDBRANCH  20  21
ENDBRANCH   1  20
TORSDOF 12
