REMARK  Name = ZINC33937045
REMARK  12 active torsions:
REMARK  status: ('A' for Active; 'I' for Inactive)
REMARK    1  A    between atoms: C_1  and  C_2
REMARK    2  A    between atoms: C_2  and  C_3
REMARK    3  A    between atoms: C_3  and  C_5
REMARK    4  A    between atoms: C_3  and  N_17
REMARK    5  A    between atoms: N_9  and  C_10
REMARK    6  A    between atoms: C_10  and  C_11
REMARK    7  A    between atoms: N_17  and  C_18
REMARK    8  A    between atoms: N_17  and  C_26
REMARK    9  A    between atoms: C_18  and  C_19
REMARK   10  A    between atoms: C_26  and  C_27
REMARK   11  A    between atoms: C_30  and  C_40
REMARK   12  A    between atoms: C_32  and  C_39
REMARK                            x       y       z     vdW  Elec       q    Type
REMARK                         _______ _______ _______ _____ _____    ______ ____
ROOT
ATOM      1  N   UNL     1       3.573   0.268  -1.058  0.00  0.00    +0.392 N 
ATOM      2  H   UNL     1       4.178   0.621  -0.331  0.00  0.00    -0.080 HD
ENDROOT
BRANCH   1   3
ATOM      3  C   UNL     1       3.525  -1.198  -0.986  0.00  0.00    +0.003 C 
BRANCH   3   4
ATOM      4  C   UNL     1       4.929  -1.747  -0.989  0.00  0.00    +0.138 A 
ATOM      5  N   UNL     1       5.942  -1.309  -0.283  0.00  0.00    -0.115 NA
ATOM      6  N   UNL     1       6.967  -2.037  -0.562  0.00  0.00    -0.023 NA
ATOM      7  N   UNL     1       6.634  -2.929  -1.429  0.00  0.00    -0.044 NA
ATOM      8  N   UNL     1       5.384  -2.787  -1.713  0.00  0.00    -0.228 N 
BRANCH   8   9
ATOM      9  C   UNL     1       4.606  -3.601  -2.651  0.00  0.00    +0.178 C 
BRANCH   9  10
ATOM     10  C   UNL     1       4.686  -2.984  -4.049  0.00  0.00    +0.140 C 
ATOM     11  C   UNL     1       3.945  -3.879  -5.074  0.00  0.00    +0.035 C 
ATOM     12  C   UNL     1       3.587  -2.838  -6.170  0.00  0.00    +0.031 C 
ATOM     13  C   UNL     1       3.331  -1.563  -5.339  0.00  0.00    +0.160 C 
ATOM     14  O   UNL     1       3.995  -1.725  -4.079  0.00  0.00    -0.375 OA
ENDBRANCH   9  10
ENDBRANCH   8   9
ENDBRANCH   3   4
BRANCH   3  16
ATOM     15  C   UNL     1       1.458  -2.241  -0.048  0.00  0.00    +0.002 C 
ATOM     16  C   UNL     1       2.814  -1.623   0.300  0.00  0.00    -0.011 C 
ENDBRANCH   3  16
ENDBRANCH   1   3
BRANCH   1  17
ATOM     17  C   UNL     1       4.093   0.678  -2.369  0.00  0.00    -0.042 C 
BRANCH  17  18
ATOM     18  C   UNL     1       4.507   2.126  -2.315  0.00  0.00    -0.064 A 
ATOM     19  C   UNL     1       3.636   3.110  -2.744  0.00  0.00    +0.004 A 
ATOM     20  C   UNL     1       4.014   4.438  -2.695  0.00  0.00    +0.038 A 
ATOM     21  C   UNL     1       5.266   4.783  -2.216  0.00  0.00    +0.123 A 
ATOM     22  C   UNL     1       6.138   3.797  -1.786  0.00  0.00    +0.038 A 
ATOM     23  C   UNL     1       5.755   2.470  -1.831  0.00  0.00    +0.004 A 
ATOM     24  F   UNL     1       5.638   6.081  -2.167  0.00  0.00    -0.205 F 
ENDBRANCH  17  18
ENDBRANCH   1  17
BRANCH   1  25
ATOM     25  C   UNL     1       2.220   0.811  -0.876  0.00  0.00    -0.036 C 
BRANCH  25  26
ATOM     26  C   UNL     1       2.000   1.133   0.580  0.00  0.00    +0.001 A 
ATOM     27  C   UNL     1       3.031   1.582   1.337  0.00  0.00    +0.017 A 
ATOM     28  C   UNL     1       2.784   1.885   2.747  0.00  0.00    +0.002 A 
ATOM     29  C   UNL     1       3.808   2.352   3.578  0.00  0.00    -0.041 A 
ATOM     30  C   UNL     1       3.544   2.626   4.890  0.00  0.00    +0.007 A 
ATOM     31  C   UNL     1       2.268   2.445   5.407  0.00  0.00    -0.048 A 
ATOM     32  C   UNL     1       1.244   1.986   4.607  0.00  0.00    +0.029 A 
ATOM     33  C   UNL     1       1.489   1.700   3.268  0.00  0.00    +0.050 A 
ATOM     34  N   UNL     1       0.483   1.241   2.445  0.00  0.00    -0.322 N 
ATOM     35  H   UNL     1      -0.409   1.114   2.805  0.00  0.00    +0.169 HD
ATOM     36  C   UNL     1       0.718   0.970   1.149  0.00  0.00    +0.251 A 
ATOM     37  O   UNL     1      -0.196   0.570   0.450  0.00  0.00    -0.268 OA
ATOM     38  C   UNL     1       2.001   2.753   6.857  0.00  0.00    +0.044 C 
ATOM     39  C   UNL     1       5.196   2.551   3.027  0.00  0.00    +0.044 C 
ENDBRANCH  25  26
ENDBRANCH   1  25
TORSDOF 9
