REMARK  Name = ZINC00870681
REMARK  8 active torsions:
REMARK  status: ('A' for Active; 'I' for Inactive)
REMARK    1  A    between atoms: C_4  and  C_7
REMARK    2  A    between atoms: C_7  and  C_8
REMARK    3  A    between atoms: C_8  and  N_9
REMARK    4  A    between atoms: C_10  and  C_12
REMARK    5  A    between atoms: C_12  and  C_13
REMARK    6  A    between atoms: N_17  and  C_31
REMARK    7  A    between atoms: N_20  and  C_21
REMARK    8  A    between atoms: C_21  and  C_22
REMARK                            x       y       z     vdW  Elec       q    Type
REMARK                         _______ _______ _______ _____ _____    ______ ____
ROOT
ATOM      1  C   UNL     1       7.467   4.707  -4.197  0.00  0.00    +0.171 C 
ATOM      2  C   UNL     1       8.821   5.379  -4.321  0.00  0.00    +0.246 C 
ATOM      3  O   UNL     1       9.904   4.893  -4.077  0.00  0.00    -0.273 OA
ATOM      4  N   UNL     1       8.569   6.629  -4.758  0.00  0.00    -0.220 N 
ATOM      5  C   UNL     1       7.258   6.838  -4.926  0.00  0.00    +0.147 C 
ATOM      6  S   UNL     1       6.592   8.318  -5.471  0.00  0.00    -0.018 S 
ATOM      7  N   UNL     1       6.521   5.755  -4.619  0.00  0.00    -0.296 N 
ENDROOT
BRANCH   4   8
ATOM      8  C   UNL     1       9.557   7.591  -5.006  0.00  0.00    +0.043 A 
ATOM      9  C   UNL     1      10.362   8.043  -3.969  0.00  0.00    +0.024 A 
ATOM     10  C   UNL     1      11.340   8.987  -4.217  0.00  0.00    +0.002 A 
ATOM     11  C   UNL     1      11.509   9.490  -5.494  0.00  0.00    +0.000 A 
ATOM     12  C   UNL     1      10.705   9.045  -6.528  0.00  0.00    +0.002 A 
ATOM     13  C   UNL     1       9.730   8.097  -6.287  0.00  0.00    +0.024 A 
ENDBRANCH   4   8
BRANCH   1  14
ATOM     14  C   UNL     1       7.202   4.294  -2.748  0.00  0.00    +0.127 C 
BRANCH  14  16
ATOM     15  N   UNL     1       5.288   3.383  -1.474  0.00  0.00    -0.315 N 
ATOM     16  C   UNL     1       5.888   3.561  -2.668  0.00  0.00    +0.215 C 
ATOM     17  O   UNL     1       5.370   3.131  -3.677  0.00  0.00    -0.276 OA
ATOM     18  H   UNL     1       5.731   3.671  -0.661  0.00  0.00    +0.149 HD
BRANCH  15  19
ATOM     19  C   UNL     1       3.965   2.756  -1.405  0.00  0.00    +0.109 C 
BRANCH  19  20
ATOM     20  C   UNL     1       3.515   2.675   0.055  0.00  0.00    +0.054 C 
BRANCH  20  24
ATOM     21  C   UNL     1      -0.341   0.847   0.257  0.00  0.00    +0.000 A 
ATOM     22  C   UNL     1      -0.232   2.219   0.126  0.00  0.00    +0.000 A 
ATOM     23  C   UNL     1       1.016   2.810   0.061  0.00  0.00    +0.004 A 
ATOM     24  C   UNL     1       2.155   2.030   0.126  0.00  0.00    -0.046 A 
ATOM     25  C   UNL     1       2.046   0.658   0.257  0.00  0.00    +0.004 A 
ATOM     26  C   UNL     1       0.799   0.067   0.323  0.00  0.00    +0.000 A 
ENDBRANCH  20  24
ENDBRANCH  19  20
ENDBRANCH  15  19
ENDBRANCH  14  16
ENDBRANCH   1  14
BRANCH   7  27
ATOM     27  C   UNL     1       5.062   5.639  -4.690  0.00  0.00    +0.142 C 
BRANCH  27  28
ATOM     28  C   UNL     1       4.655   5.274  -6.094  0.00  0.00    -0.026 A 
ATOM     29  C   UNL     1       4.466   3.947  -6.434  0.00  0.00    +0.009 A 
ATOM     30  C   UNL     1       4.092   3.607  -7.720  0.00  0.00    +0.050 A 
ATOM     31  C   UNL     1       3.906   4.595  -8.673  0.00  0.00    +0.166 A 
ATOM     32  C   UNL     1       4.097   5.932  -8.331  0.00  0.00    +0.167 A 
ATOM     33  C   UNL     1       4.466   6.266  -7.038  0.00  0.00    +0.054 A 
ATOM     34  O   UNL     1       3.856   6.703  -9.431  0.00  0.00    -0.453 OA
ATOM     35  C   UNL     1       3.914   5.801 -10.552  0.00  0.00    +0.466 C 
ATOM     36  O   UNL     1       3.545   4.529  -9.988  0.00  0.00    -0.453 OA
ENDBRANCH  27  28
ENDBRANCH   7  27
TORSDOF 8
