REMARK  Name = ZINC11782957
REMARK  8 active torsions:
REMARK  status: ('A' for Active; 'I' for Inactive)
REMARK    1  A    between atoms: C_1  and  C_2
REMARK    2  A    between atoms: C_2  and  C_4
REMARK    3  A    between atoms: C_7  and  C_9
REMARK    4  A    between atoms: C_20  and  C_23
REMARK    5  A    between atoms: C_23  and  N_24
REMARK    6  A    between atoms: C_25  and  C_27
REMARK    7  A    between atoms: C_32  and  C_34
REMARK    8  A    between atoms: C_32  and  C_35
REMARK                            x       y       z     vdW  Elec       q    Type
REMARK                         _______ _______ _______ _____ _____    ______ ____
ROOT
ATOM      1  C   UNL     1      -1.178   2.296   0.020  0.00  0.00    -0.011 A 
ATOM      2  C   UNL     1      -2.482   1.766   0.018  0.00  0.00    +0.009 A 
ATOM      3  C   UNL     1      -3.565   2.582   0.033  0.00  0.00    +0.009 A 
ATOM      4  C   UNL     1      -3.395   3.980   0.039  0.00  0.00    -0.011 A 
ATOM      5  C   UNL     1      -2.085   4.526   0.036  0.00  0.00    -0.017 A 
ATOM      6  C   UNL     1      -0.977   3.667   0.027  0.00  0.00    +0.017 A 
ATOM      7  C   UNL     1      -1.923   5.923   0.044  0.00  0.00    +0.012 A 
ATOM      8  C   UNL     1      -3.011   6.735   0.056  0.00  0.00    +0.046 A 
ATOM      9  C   UNL     1      -4.314   6.210   0.059  0.00  0.00    +0.125 A 
ATOM     10  C   UNL     1      -4.495   4.844   0.045  0.00  0.00    +0.006 A 
ATOM     11  C   UNL     1      -5.990   4.587   0.036  0.00  0.00    +0.085 C 
ATOM     12  C   UNL     1      -6.548   5.976  -0.357  0.00  0.00    +0.195 C 
ATOM     13  O   UNL     1      -5.508   6.867   0.081  0.00  0.00    -0.487 OA
ENDROOT
BRANCH   1  17
ATOM     14  C   UNL     1       2.369   0.122  -0.020  0.00  0.00    +0.055 A 
ATOM     15  C   UNL     1       1.205  -0.644  -0.013  0.00  0.00    +0.019 A 
ATOM     16  C   UNL     1       0.002  -0.004   0.002  0.00  0.00    +0.017 A 
ATOM     17  C   UNL     1      -0.017   1.384   0.010  0.00  0.00    +0.020 A 
ATOM     18  S   UNL     1       1.723   1.786  -0.005  0.00  0.00    -0.085 S 
BRANCH  14  20
ATOM     19  C   UNL     1       4.827   0.707  -0.041  0.00  0.00    +0.092 C 
ATOM     20  C   UNL     1       3.712  -0.307  -0.035  0.00  0.00    +0.167 C 
ATOM     21  O   UNL     1       3.971  -1.494  -0.045  0.00  0.00    -0.292 OA
ENDBRANCH  14  20
ENDBRANCH   1  17
BRANCH  12  22
ATOM     22  C   UNL     1      -7.857   6.263   0.382  0.00  0.00    +0.149 C 
BRANCH  22  23
ATOM     23  N   UNL     1      -8.354   7.586  -0.004  0.00  0.00    -0.312 N 
ATOM     24  C   UNL     1      -9.502   8.055   0.526  0.00  0.00    +0.216 C 
ATOM     25  O   UNL     1     -10.122   7.382   1.321  0.00  0.00    -0.276 OA
ATOM     26  H   UNL     1      -7.858   8.125  -0.640  0.00  0.00    +0.149 HD
BRANCH  24  27
ATOM     27  C   UNL     1     -10.014   9.416   0.129  0.00  0.00    +0.080 C 
ATOM     28  C   UNL     1     -10.268   9.447  -1.381  0.00  0.00    +0.041 C 
ATOM     29  C   UNL     1     -10.862  10.806  -1.763  0.00  0.00    +0.161 C 
ATOM     30  O   UNL     1     -12.064  11.024  -1.022  0.00  0.00    -0.374 OA
ATOM     31  C   UNL     1     -11.880  11.052   0.395  0.00  0.00    +0.065 C 
ATOM     32  C   UNL     1     -11.326   9.704   0.864  0.00  0.00    +0.047 C 
ATOM     33  C   UNL     1     -10.892  12.162   0.759  0.00  0.00    +0.041 C 
ATOM     34  C   UNL     1     -13.223  11.318   1.079  0.00  0.00    +0.041 C 
ENDBRANCH  24  27
ENDBRANCH  22  23
ENDBRANCH  12  22
TORSDOF 5
