REMARK  Name = ZINC40569111
REMARK  9 active torsions:
REMARK  status: ('A' for Active; 'I' for Inactive)
REMARK    1  A    between atoms: C_1  and  C_2
REMARK    2  A    between atoms: C_2  and  C_3
REMARK    3  A    between atoms: C_3  and  C_4
REMARK    4  A    between atoms: C_12  and  C_20
REMARK    5  A    between atoms: C_14  and  C_18
REMARK    6  A    between atoms: C_15  and  N_17
REMARK    7  A    between atoms: C_23  and  C_26
REMARK    8  A    between atoms: C_26  and  O_28
REMARK    9  A    between atoms: O_28  and  C_29
REMARK                            x       y       z     vdW  Elec       q    Type
REMARK                         _______ _______ _______ _____ _____    ______ ____
ROOT
ATOM      1  C   UNL     1       0.762  -2.018   1.233  0.00  0.00    +0.023 A 
ATOM      2  C   UNL     1       1.834  -2.666   0.728  0.00  0.00    +0.068 A 
ATOM      3  C   UNL     1       1.858  -4.077   0.718  0.00  0.00    +0.141 A 
ATOM      4  C   UNL     1       0.778  -4.767   1.227  0.00  0.00    +0.072 A 
ATOM      5  C   UNL     1      -0.311  -4.051   1.741  0.00  0.00    +0.257 A 
ATOM      6  O   UNL     1      -1.273  -4.649   2.197  0.00  0.00    -0.267 OA
ATOM      7  N   UNL     1      -0.295  -2.705   1.739  0.00  0.00    -0.326 N 
ATOM      8  H   UNL     1      -1.052  -2.218   2.101  0.00  0.00    +0.169 HD
ATOM      9  C   UNL     1       0.761  -6.271   1.235  0.00  0.00    +0.103 C 
ATOM     10  C   UNL     1       2.150  -6.805   1.018  0.00  0.00    +0.098 C 
ATOM     11  C   UNL     1       3.137  -6.018   0.528  0.00  0.00    +0.199 C 
ATOM     12  O   UNL     1       2.927  -4.728   0.213  0.00  0.00    -0.441 OA
ENDROOT
BRANCH   9  13
ATOM     13  C   UNL     1      -0.139  -6.765   0.132  0.00  0.00    -0.034 A 
ATOM     14  C   UNL     1       0.141  -6.441  -1.184  0.00  0.00    +0.005 A 
ATOM     15  C   UNL     1      -0.679  -6.891  -2.198  0.00  0.00    +0.015 A 
ATOM     16  C   UNL     1      -1.794  -7.674  -1.894  0.00  0.00    +0.059 A 
ATOM     17  C   UNL     1      -2.071  -7.997  -0.564  0.00  0.00    +0.015 A 
ATOM     18  C   UNL     1      -1.240  -7.546   0.440  0.00  0.00    +0.005 A 
BRANCH  16  19
ATOM     19  C   UNL     1      -2.677  -8.159  -2.975  0.00  0.00    +0.339 C 
ATOM     20  O   UNL     1      -2.434  -7.876  -4.131  0.00  0.00    -0.245 OA
BRANCH  19  21
ATOM     21  O   UNL     1      -3.752  -8.914  -2.678  0.00  0.00    -0.464 OA
ATOM     22  C   UNL     1      -4.562  -9.348  -3.773  0.00  0.00    +0.280 C 
ENDBRANCH  19  21
ENDBRANCH  16  19
ENDBRANCH   9  13
BRANCH  11  23
ATOM     23  N   UNL     1       4.388  -6.553   0.348  0.00  0.00    -0.328 N 
ATOM     24  H   UNL     1       4.554  -7.482   0.570  0.00  0.00    +0.145 HD
ATOM     25  H   UNL     1       5.105  -6.002  -0.002  0.00  0.00    +0.145 HD
ENDBRANCH  11  23
BRANCH  10  26
ATOM     26  C   UNL     1       2.434  -8.172   1.336  0.00  0.00    +0.101 C 
ATOM     27  N   UNL     1       2.659  -9.257   1.588  0.00  0.00    -0.191 NA
ENDBRANCH  10  26
BRANCH   1  28
ATOM     28  C   UNL     1       0.742  -0.511   1.242  0.00  0.00    +0.053 C 
BRANCH  28  30
ATOM     29  C   UNL     1      -0.019   1.526   0.010  0.00  0.00    +0.004 C 
ATOM     30  C   UNL     1       0.002  -0.004   0.002  0.00  0.00    +0.003 C 
ENDBRANCH  28  30
ENDBRANCH   1  28
TORSDOF 7
