REMARK  Name = ZINC21903114
REMARK  13 active torsions:
REMARK  status: ('A' for Active; 'I' for Inactive)
REMARK    1  A    between atoms: C_1  and  C_2
REMARK    2  A    between atoms: C_5  and  N_8
REMARK    3  A    between atoms: N_8  and  S_9
REMARK    4  A    between atoms: S_9  and  C_12
REMARK    5  A    between atoms: C_14  and  C_20
REMARK    6  A    between atoms: C_17  and  O_18
REMARK    7  A    between atoms: O_18  and  C_19
REMARK    8  A    between atoms: N_22  and  C_23
REMARK    9  A    between atoms: C_23  and  C_24
REMARK   10  A    between atoms: C_24  and  C_26
REMARK   11  A    between atoms: C_24  and  N_31
REMARK   12  A    between atoms: N_31  and  C_32
REMARK   13  A    between atoms: N_31  and  C_33
REMARK                            x       y       z     vdW  Elec       q    Type
REMARK                         _______ _______ _______ _____ _____    ______ ____
ROOT
ATOM      1  C   UNL     1       5.713   1.315   3.660  0.00  0.00    +0.151 A 
ATOM      2  C   UNL     1       4.851   1.414   2.591  0.00  0.00    +0.045 A 
ATOM      3  C   UNL     1       3.502   1.088   2.751  0.00  0.00    +0.039 A 
ATOM      4  C   UNL     1       3.033   0.666   3.998  0.00  0.00    +0.017 A 
ATOM      5  C   UNL     1       3.902   0.565   5.061  0.00  0.00    +0.048 A 
ATOM      6  C   UNL     1       5.244   0.891   4.897  0.00  0.00    +0.147 A 
ENDROOT
BRANCH   3   7
ATOM      7  C   UNL     1       2.574   1.193   1.608  0.00  0.00    +0.244 C 
ATOM      8  O   UNL     1       2.984   1.564   0.525  0.00  0.00    -0.270 OA
ATOM      9  N   UNL     1       1.273   0.877   1.765  0.00  0.00    -0.312 N 
ATOM     10  H   UNL     1       0.903   0.541   2.744  0.00  0.00    +0.149 HD
BRANCH   9  11
ATOM     11  C   UNL     1       0.352   0.982   0.630  0.00  0.00    +0.097 C 
BRANCH  11  12
ATOM     12  C   UNL     1      -1.073   0.685   1.101  0.00  0.00    +0.016 C 
BRANCH  12  13
ATOM     13  C   UNL     1      -1.171  -0.756   1.530  0.00  0.00    +0.093 A 
ATOM     14  C   UNL     1      -1.126  -1.205   2.797  0.00  0.00    +0.043 A 
ATOM     15  C   UNL     1      -1.256  -2.611   2.738  0.00  0.00    +0.041 A 
ATOM     16  C   UNL     1      -1.363  -2.939   1.438  0.00  0.00    +0.195 A 
ATOM     17  O   UNL     1      -1.311  -1.811   0.711  0.00  0.00    -0.469 OA
ENDBRANCH  12  13
BRANCH  12  18
ATOM     18  N   UNL     1      -2.014   0.934   0.001  0.00  0.00    +0.384 N 
ATOM     19  C   UNL     1      -2.175   2.374  -0.238  0.00  0.00    -0.096 C 
ATOM     20  C   UNL     1      -1.588   0.242  -1.223  0.00  0.00    -0.096 C 
ATOM     21  H   UNL     1      -2.993   0.528   0.295  0.00  0.00    -0.082 HD
ENDBRANCH  12  18
ENDBRANCH  11  12
ENDBRANCH   9  11
ENDBRANCH   3   7
BRANCH   1  22
ATOM     22  S   UNL     1       7.415   1.727   3.459  0.00  0.00    +0.076 S 
ATOM     23  O   UNL     1       8.161   0.653   4.016  0.00  0.00    -0.150 OA
ATOM     24  O   UNL     1       7.575   2.147   2.111  0.00  0.00    -0.150 OA
BRANCH  22  25
ATOM     25  N   UNL     1       7.713   3.052   4.406  0.00  0.00    -0.216 N 
ATOM     26  H   UNL     1       8.442   2.988   5.228  0.00  0.00    +0.174 HD
BRANCH  25  31
ATOM     27  C   UNL     1       4.979   7.920   3.413  0.00  0.00    +0.044 C 
ATOM     28  C   UNL     1       5.706   6.627   3.677  0.00  0.00    -0.050 A 
ATOM     29  C   UNL     1       5.818   6.150   4.970  0.00  0.00    +0.005 A 
ATOM     30  C   UNL     1       6.483   4.964   5.216  0.00  0.00    +0.025 A 
ATOM     31  C   UNL     1       7.040   4.251   4.162  0.00  0.00    +0.048 A 
ATOM     32  C   UNL     1       6.930   4.736   2.864  0.00  0.00    +0.025 A 
ATOM     33  C   UNL     1       6.259   5.919   2.626  0.00  0.00    +0.005 A 
ENDBRANCH  25  31
ENDBRANCH  22  25
ENDBRANCH   1  22
BRANCH   6  34
ATOM     34  O   UNL     1       6.097   0.794   5.948  0.00  0.00    -0.493 OA
ATOM     35  C   UNL     1       5.573   0.247   7.160  0.00  0.00    +0.277 C 
ENDBRANCH   6  34
TORSDOF 9
