REMARK  Name = ZINC35399369
REMARK  7 active torsions:
REMARK  status: ('A' for Active; 'I' for Inactive)
REMARK    1  A    between atoms: C_1  and  C_2
REMARK    2  A    between atoms: C_5  and  N_31
REMARK    3  A    between atoms: C_6  and  S_8
REMARK    4  A    between atoms: S_8  and  N_11
REMARK    5  A    between atoms: C_25  and  O_29
REMARK    6  A    between atoms: O_29  and  C_30
REMARK    7  A    between atoms: C_32  and  C_34
REMARK                            x       y       z     vdW  Elec       q    Type
REMARK                         _______ _______ _______ _____ _____    ______ ____
ROOT
ATOM      1  N   UNL     1      -1.137  -4.014   2.688  0.00  0.00    -0.176 NA
ATOM      2  C   UNL     1      -2.399  -3.483   3.220  0.00  0.00    +0.112 C 
ATOM      3  C   UNL     1      -3.499  -3.686   2.173  0.00  0.00    +0.049 C 
ATOM      4  C   UNL     1      -3.552  -5.161   1.774  0.00  0.00    +0.075 C 
ATOM      5  C   UNL     1      -2.217  -5.585   1.163  0.00  0.00    +0.049 C 
ATOM      6  C   UNL     1      -1.105  -5.397   2.193  0.00  0.00    +0.112 C 
ATOM      7  C   UNL     1      -4.663  -5.379   0.778  0.00  0.00    +0.047 A 
ATOM      8  C   UNL     1      -5.086  -4.588  -0.214  0.00  0.00    +0.025 A 
ATOM      9  C   UNL     1      -6.141  -5.260  -0.869  0.00  0.00    +0.020 A 
ATOM     10  C   UNL     1      -6.324  -6.443  -0.240  0.00  0.00    +0.092 A 
ATOM     11  N   UNL     1      -5.433  -6.521   0.777  0.00  0.00    -0.316 N 
ATOM     12  C   UNL     1      -5.246  -7.528   1.738  0.00  0.00    +0.067 A 
ATOM     13  C   UNL     1      -5.864  -8.758   1.629  0.00  0.00    +0.031 A 
ATOM     14  C   UNL     1      -5.633  -9.732   2.585  0.00  0.00    +0.048 A 
ATOM     15  C   UNL     1      -4.782  -9.472   3.651  0.00  0.00    +0.122 A 
ATOM     16  C   UNL     1      -4.168  -8.235   3.769  0.00  0.00    +0.070 A 
ATOM     17  C   UNL     1      -4.404  -7.252   2.821  0.00  0.00    +0.055 A 
ATOM     18  N   UNL     1      -3.834  -5.981   2.961  0.00  0.00    -0.331 N 
ATOM     19  H   UNL     1      -3.625  -5.640   3.845  0.00  0.00    +0.147 HD
ENDROOT
BRANCH   1  20
ATOM     20  S   UNL     1       0.222  -3.069   2.640  0.00  0.00    +0.063 S 
ATOM     21  O   UNL     1       1.327  -3.953   2.505  0.00  0.00    -0.153 OA
ATOM     22  O   UNL     1       0.113  -2.145   3.714  0.00  0.00    -0.153 OA
BRANCH  20  28
ATOM     23  C   UNL     1      -0.277   1.478   0.114  0.00  0.00    +0.044 C 
ATOM     24  C   UNL     1      -0.085  -0.015   0.047  0.00  0.00    -0.048 A 
ATOM     25  C   UNL     1       0.033  -0.641  -1.181  0.00  0.00    +0.005 A 
ATOM     26  C   UNL     1       0.208  -2.009  -1.246  0.00  0.00    +0.025 A 
ATOM     27  C   UNL     1       0.267  -2.756  -0.077  0.00  0.00    +0.060 A 
ATOM     28  C   UNL     1       0.149  -2.125   1.154  0.00  0.00    +0.127 A 
ATOM     29  C   UNL     1      -0.022  -0.756   1.212  0.00  0.00    +0.033 A 
BRANCH  27  30
ATOM     30  N   UNL     1       0.444  -4.143  -0.140  0.00  0.00    -0.284 N 
ATOM     31  C   UNL     1      -0.068  -4.842  -1.173  0.00  0.00    +0.214 C 
ATOM     32  O   UNL     1      -0.758  -4.284  -1.999  0.00  0.00    -0.276 OA
ATOM     33  C   UNL     1       0.219  -6.316  -1.301  0.00  0.00    +0.109 C 
ATOM     34  H   UNL     1       0.935  -4.601   0.560  0.00  0.00    +0.155 HD
ENDBRANCH  27  30
ENDBRANCH  20  28
ENDBRANCH   1  20
BRANCH  15  35
ATOM     35  O   UNL     1      -4.551 -10.435   4.582  0.00  0.00    -0.495 OA
ATOM     36  C   UNL     1      -5.216 -11.687   4.401  0.00  0.00    +0.277 C 
ENDBRANCH  15  35
TORSDOF 4
