REMARK  Name = ZINC38677095
REMARK  9 active torsions:
REMARK  status: ('A' for Active; 'I' for Inactive)
REMARK    1  A    between atoms: C_1  and  C_2
REMARK    2  A    between atoms: C_2  and  C_3
REMARK    3  A    between atoms: C_3  and  C_5
REMARK    4  A    between atoms: C_3  and  N_6
REMARK    5  A    between atoms: C_10  and  C_11
REMARK    6  A    between atoms: C_13  and  C_21
REMARK    7  A    between atoms: C_21  and  C_22
REMARK    8  A    between atoms: C_22  and  N_23
REMARK    9  A    between atoms: C_24  and  C_26
REMARK                            x       y       z     vdW  Elec       q    Type
REMARK                         _______ _______ _______ _____ _____    ______ ____
ROOT
ATOM      1  C   UNL     1       3.824   2.094  -3.756  0.00  0.00    +0.130 C 
ATOM      2  C   UNL     1       3.869   3.606  -3.741  0.00  0.00    -0.033 C 
ATOM      3  C   UNL     1       2.611   4.015  -3.456  0.00  0.00    -0.000 A 
ATOM      4  C   UNL     1       2.009   5.344  -3.301  0.00  0.00    +0.010 A 
ATOM      5  C   UNL     1       0.692   5.438  -3.007  0.00  0.00    +0.001 A 
ATOM      6  C   UNL     1      -0.110   4.300  -2.848  0.00  0.00    +0.002 A 
ATOM      7  C   UNL     1       0.371   3.045  -2.975  0.00  0.00    +0.026 A 
ATOM      8  C   UNL     1       1.742   2.829  -3.283  0.00  0.00    +0.043 A 
ATOM      9  N   UNL     1       2.436   1.728  -3.455  0.00  0.00    -0.374 N 
ATOM     10  H   UNL     1       2.090   0.824  -3.393  0.00  0.00    +0.161 HD
ENDROOT
BRANCH   1  15
ATOM     11  N   UNL     1       6.454  -1.147  -4.532  0.00  0.00    -0.245 N 
ATOM     12  C   UNL     1       5.522  -0.199  -4.289  0.00  0.00    +0.257 C 
ATOM     13  O   UNL     1       4.621   0.014  -5.077  0.00  0.00    -0.269 OA
ATOM     14  C   UNL     1       5.637   0.571  -3.026  0.00  0.00    +0.099 C 
ATOM     15  C   UNL     1       4.748   1.537  -2.703  0.00  0.00    +0.020 C 
ATOM     16  C   UNL     1       6.769   0.232  -2.137  0.00  0.00    +0.274 C 
ATOM     17  O   UNL     1       6.950   0.882  -0.969  0.00  0.00    -0.268 OA
ATOM     18  N   UNL     1       7.598  -0.722  -2.514  0.00  0.00    -0.154 NA
ATOM     19  C   UNL     1       7.443  -1.385  -3.659  0.00  0.00    +0.167 C 
ATOM     20  S   UNL     1       8.578  -2.609  -4.042  0.00  0.00    -0.016 S 
BRANCH  11  21
ATOM     21  C   UNL     1       6.378  -1.931  -5.767  0.00  0.00    +0.080 C 
ATOM     22  C   UNL     1       5.043  -2.677  -5.816  0.00  0.00    +0.028 C 
BRANCH  21  24
ATOM     23  C   UNL     1       7.884  -0.379  -7.018  0.00  0.00    +0.006 C 
ATOM     24  C   UNL     1       6.484  -0.995  -6.972  0.00  0.00    +0.019 C 
ENDBRANCH  21  24
ENDBRANCH  11  21
ENDBRANCH   1  15
BRANCH   2  25
ATOM     25  C   UNL     1       5.070   4.479  -3.993  0.00  0.00    +0.052 C 
BRANCH  25  26
ATOM     26  C   UNL     1       4.664   5.950  -3.880  0.00  0.00    +0.108 C 
BRANCH  26  27
ATOM     27  N   UNL     1       5.832   6.800  -4.125  0.00  0.00    -0.315 N 
ATOM     28  C   UNL     1       5.712   8.141  -4.076  0.00  0.00    +0.210 C 
ATOM     29  O   UNL     1       4.637   8.645  -3.830  0.00  0.00    -0.276 OA
ATOM     30  C   UNL     1       6.914   9.015  -4.328  0.00  0.00    +0.109 C 
ATOM     31  H   UNL     1       6.692   6.396  -4.321  0.00  0.00    +0.149 HD
ENDBRANCH  26  27
ENDBRANCH  25  26
ENDBRANCH   2  25
TORSDOF 6
