REMARK  Name = ZINC15226432
REMARK  6 active torsions:
REMARK  status: ('A' for Active; 'I' for Inactive)
REMARK    1  A    between atoms: C_1  and  C_2
REMARK    2  A    between atoms: N_6  and  C_31
REMARK    3  A    between atoms: N_15  and  C_18
REMARK    4  A    between atoms: C_18  and  N_67
REMARK    5  A    between atoms: C_21  and  C_24
REMARK    6  A    between atoms: C_24  and  C_25
REMARK                            x       y       z     vdW  Elec       q    Type
REMARK                         _______ _______ _______ _____ _____    ______ ____
ROOT
ATOM      1  C   UNL     1       5.824   3.558  -0.901  0.00  0.00    +0.029 C 
ATOM      2  C   UNL     1       4.788   4.106   0.083  0.00  0.00    +0.132 C 
ATOM      3  C   UNL     1       3.526   3.255   0.084  0.00  0.00    +0.234 C 
ATOM      4  O   UNL     1       3.583   2.045   0.160  0.00  0.00    -0.274 OA
ATOM      5  N   UNL     1       2.357   3.889   0.000  0.00  0.00    -0.243 N 
ATOM      6  C   UNL     1       2.352   5.344  -0.107  0.00  0.00    +0.193 C 
ATOM      7  S   UNL     1       4.103   5.720  -0.499  0.00  0.00    -0.108 S 
ATOM      8  C   UNL     1       1.927   6.033   1.152  0.00  0.00    +0.017 A 
ATOM      9  C   UNL     1       2.362   5.992   2.458  0.00  0.00    +0.009 A 
ATOM     10  C   UNL     1       1.745   6.771   3.420  0.00  0.00    +0.000 A 
ATOM     11  C   UNL     1       0.688   7.590   3.068  0.00  0.00    +0.002 A 
ATOM     12  C   UNL     1       0.247   7.635   1.761  0.00  0.00    +0.024 A 
ATOM     13  C   UNL     1       0.864   6.856   0.786  0.00  0.00    +0.041 A 
ATOM     14  N   UNL     1       0.604   6.731  -0.582  0.00  0.00    -0.285 N 
ATOM     15  C   UNL     1       1.440   5.858  -1.180  0.00  0.00    +0.257 C 
ATOM     16  O   UNL     1       1.452   5.550  -2.353  0.00  0.00    -0.272 OA
ENDROOT
BRANCH   5  17
ATOM     17  C   UNL     1       1.155   3.171   0.008  0.00  0.00    +0.039 A 
ATOM     18  C   UNL     1       0.462   2.988   1.198  0.00  0.00    +0.026 A 
ATOM     19  C   UNL     1      -0.723   2.279   1.203  0.00  0.00    +0.040 A 
ATOM     20  C   UNL     1      -1.218   1.746   0.025  0.00  0.00    +0.124 A 
ATOM     21  C   UNL     1      -0.531   1.931  -1.163  0.00  0.00    +0.040 A 
ATOM     22  C   UNL     1       0.654   2.640  -1.173  0.00  0.00    +0.026 A 
ATOM     23  F   UNL     1      -2.375   1.048   0.034  0.00  0.00    -0.205 F 
ENDBRANCH   5  17
BRANCH  14  24
ATOM     24  C   UNL     1      -0.453   7.463  -1.284  0.00  0.00    +0.038 C 
BRANCH  24  30
ATOM     25  C   UNL     1       0.116   9.746  -0.715  0.00  0.00    -0.076 C 
ATOM     26  C   UNL     1       0.811  11.010  -1.227  0.00  0.00    -0.015 C 
ATOM     27  C   UNL     1       0.048  11.549  -2.441  0.00  0.00    -0.010 C 
ATOM     28  C   UNL     1      -0.015  10.463  -3.518  0.00  0.00    -0.015 C 
ATOM     29  C   UNL     1      -0.685   9.215  -2.939  0.00  0.00    -0.076 C 
ATOM     30  N   UNL     1       0.110   8.732  -1.790  0.00  0.00    +0.390 N 
ATOM     31  H   UNL     1       1.076   8.569  -2.099  0.00  0.00    -0.080 HD
BRANCH  27  32
ATOM     32  C   UNL     1       0.772  12.778  -2.995  0.00  0.00    +0.038 C 
BRANCH  32  33
ATOM     33  C   UNL     1       0.726  13.889  -1.979  0.00  0.00    -0.047 A 
ATOM     34  C   UNL     1      -0.320  14.793  -1.991  0.00  0.00    +0.003 A 
ATOM     35  C   UNL     1      -0.364  15.811  -1.055  0.00  0.00    +0.000 A 
ATOM     36  C   UNL     1       0.642  15.929  -0.115  0.00  0.00    +0.000 A 
ATOM     37  C   UNL     1       1.690  15.027  -0.106  0.00  0.00    +0.000 A 
ATOM     38  C   UNL     1       1.732  14.008  -1.038  0.00  0.00    +0.003 A 
ENDBRANCH  32  33
ENDBRANCH  27  32
ENDBRANCH  24  30
ENDBRANCH  14  24
TORSDOF 5
