REMARK  Name = ZINC22076341
REMARK  10 active torsions:
REMARK  status: ('A' for Active; 'I' for Inactive)
REMARK    1  A    between atoms: C_1  and  C_2
REMARK    2  A    between atoms: C_2  and  O_3
REMARK    3  A    between atoms: O_3  and  C_4
REMARK    4  A    between atoms: C_6  and  C_20
REMARK    5  A    between atoms: C_9  and  O_10
REMARK    6  A    between atoms: O_10  and  C_11
REMARK    7  A    between atoms: C_11  and  C_12
REMARK    8  A    between atoms: C_20  and  N_21
REMARK    9  A    between atoms: N_21  and  C_22
REMARK   10  A    between atoms: C_22  and  C_23
REMARK                            x       y       z     vdW  Elec       q    Type
REMARK                         _______ _______ _______ _____ _____    ______ ____
ROOT
ATOM      1  C   UNL     1       1.812   2.382   1.202  0.00  0.00    +0.163 A 
ATOM      2  C   UNL     1       3.040   3.024   1.188  0.00  0.00    +0.051 A 
ATOM      3  C   UNL     1       3.636   3.351  -0.015  0.00  0.00    -0.060 A 
ATOM      4  C   UNL     1       3.013   3.034  -1.208  0.00  0.00    +0.021 A 
ATOM      5  C   UNL     1       1.789   2.389  -1.202  0.00  0.00    +0.063 A 
ATOM      6  C   UNL     1       1.186   2.059   0.002  0.00  0.00    +0.176 A 
ATOM      7 BR   UNL     1       0.940   1.957  -2.835  0.00  0.00    -0.046 Br
ENDROOT
BRANCH   1   8
ATOM      8  O   UNL     1       1.221   2.065   2.385  0.00  0.00    -0.489 OA
BRANCH   8  10
ATOM      9  C   UNL     1       1.108   1.994   4.798  0.00  0.00    +0.048 C 
ATOM     10  C   UNL     1       1.921   2.428   3.577  0.00  0.00    +0.226 C 
ENDBRANCH   8  10
ENDBRANCH   1   8
BRANCH   6  11
ATOM     11  O   UNL     1      -0.017   1.425   0.010  0.00  0.00    -0.483 OA
BRANCH  11  12
ATOM     12  C   UNL     1       0.002  -0.004   0.002  0.00  0.00    +0.264 C 
BRANCH  12  13
ATOM     13  C   UNL     1      -1.412  -0.526   0.013  0.00  0.00    -0.010 A 
ATOM     14  C   UNL     1      -2.046  -0.777   1.215  0.00  0.00    +0.010 A 
ATOM     15  C   UNL     1      -3.345  -1.250   1.226  0.00  0.00    +0.039 A 
ATOM     16  C   UNL     1      -4.006  -1.484   0.032  0.00  0.00    +0.123 A 
ATOM     17  C   UNL     1      -3.368  -1.237  -1.171  0.00  0.00    +0.039 A 
ATOM     18  C   UNL     1      -2.071  -0.758  -1.180  0.00  0.00    +0.010 A 
ATOM     19  F   UNL     1      -5.273  -1.951   0.042  0.00  0.00    -0.205 F 
ENDBRANCH  12  13
ENDBRANCH  11  12
ENDBRANCH   6  11
BRANCH   3  20
ATOM     20  C   UNL     1       4.969   4.054  -0.028  0.00  0.00    -0.046 C 
BRANCH  20  21
ATOM     21  N   UNL     1       4.756   5.507  -0.019  0.00  0.00    +0.386 N 
ATOM     22  H   UNL     1       4.180   5.798  -0.910  0.00  0.00    -0.085 HD
ATOM     23  H   UNL     1       4.200   5.792   0.886  0.00  0.00    -0.085 HD
BRANCH  21  24
ATOM     24  C   UNL     1       6.037   6.227  -0.031  0.00  0.00    -0.006 C 
BRANCH  24  25
ATOM     25  C   UNL     1       5.779   7.712  -0.022  0.00  0.00    +0.088 A 
ATOM     26  C   UNL     1       5.657   8.482   1.073  0.00  0.00    +0.042 A 
ATOM     27  C   UNL     1       5.423   9.802   0.622  0.00  0.00    +0.041 A 
ATOM     28  C   UNL     1       5.416   9.758  -0.723  0.00  0.00    +0.195 A 
ATOM     29  O   UNL     1       5.638   8.491  -1.107  0.00  0.00    -0.470 OA
ENDBRANCH  24  25
ENDBRANCH  21  24
ENDBRANCH  20  21
ENDBRANCH   3  20
TORSDOF 9
