REMARK  Name = ZINC62354793
REMARK  3 active torsions:
REMARK  status: ('A' for Active; 'I' for Inactive)
REMARK    1  A    between atoms: C_6  and  C_7
REMARK    2  A    between atoms: C_7  and  C_9
REMARK    3  A    between atoms: C_7  and  N_14
REMARK                            x       y       z     vdW  Elec       q    Type
REMARK                         _______ _______ _______ _____ _____    ______ ____
ROOT
ATOM      1  C   UNL     1      -0.017   1.380   0.010  0.00  0.00    +0.008 A 
ATOM      2  C   UNL     1       1.166   2.092   0.002  0.00  0.00    +0.028 A 
ATOM      3  C   UNL     1       2.382   1.419  -0.014  0.00  0.00    +0.066 A 
ATOM      4  C   UNL     1       2.401   0.023  -0.022  0.00  0.00    +0.066 A 
ATOM      5  C   UNL     1       1.204  -0.683  -0.014  0.00  0.00    +0.033 A 
ATOM      6  C   UNL     1       0.002  -0.004   0.002  0.00  0.00    -0.023 A 
ATOM      7  N   UNL     1       3.609  -0.669  -0.038  0.00  0.00    -0.316 N 
ATOM      8  H   UNL     1       3.612  -1.639  -0.044  0.00  0.00    +0.169 HD
ATOM      9  C   UNL     1       4.776   0.007  -0.046  0.00  0.00    +0.314 A 
ATOM     10  O   UNL     1       5.832  -0.592  -0.061  0.00  0.00    -0.262 OA
ATOM     11  C   UNL     1       4.756   1.499  -0.037  0.00  0.00    +0.314 A 
ATOM     12  O   UNL     1       5.795   2.126  -0.044  0.00  0.00    -0.262 OA
ATOM     13  N   UNL     1       3.571   2.143  -0.021  0.00  0.00    -0.316 N 
ATOM     14  H   UNL     1       3.547   3.113  -0.016  0.00  0.00    +0.169 HD
ENDROOT
BRANCH   6  15
ATOM     15  C   UNL     1      -1.294  -0.772   0.011  0.00  0.00    +0.131 C 
BRANCH  15  16
ATOM     16  C   UNL     1      -1.838  -0.824   1.415  0.00  0.00    +0.070 A 
ATOM     17  C   UNL     1      -3.095  -0.400   1.706  0.00  0.00    +0.071 A 
ATOM     18  S   UNL     1      -3.147  -0.704   3.465  0.00  0.00    -0.084 S 
ATOM     19  C   UNL     1      -1.592  -1.327   3.637  0.00  0.00    +0.156 A 
ATOM     20  N   UNL     1      -1.118  -1.288   2.417  0.00  0.00    -0.250 NA
ENDBRANCH  15  16
BRANCH  15  21
ATOM     21  N   UNL     1      -2.265  -0.105  -0.866  0.00  0.00    -0.319 NA
ATOM     22  H   UNL     1      -3.121  -0.635  -0.928  0.00  0.00    +0.119 HD
ATOM     23  H   UNL     1      -2.446   0.838  -0.554  0.00  0.00    +0.119 HD
ENDBRANCH  15  21
ENDBRANCH   6  15
TORSDOF 3
