REMARK  Name = ZINC40091914
REMARK  14 active torsions:
REMARK  status: ('A' for Active; 'I' for Inactive)
REMARK    1  A    between atoms: C_1  and  C_2
REMARK    2  A    between atoms: C_4  and  C_12
REMARK    3  A    between atoms: C_7  and  O_8
REMARK    4  A    between atoms: O_8  and  C_9
REMARK    5  A    between atoms: C_9  and  C_10
REMARK    6  A    between atoms: C_12  and  C_14
REMARK    7  A    between atoms: N_18  and  C_30
REMARK    8  A    between atoms: C_19  and  C_21
REMARK    9  A    between atoms: C_25  and  N_27
REMARK   10  A    between atoms: C_30  and  C_31
REMARK   11  A    between atoms: C_31  and  O_32
REMARK   12  A    between atoms: O_32  and  C_33
REMARK   13  A    between atoms: C_33  and  C_34
REMARK   14  A    between atoms: C_34  and  O_35
REMARK                            x       y       z     vdW  Elec       q    Type
REMARK                         _______ _______ _______ _____ _____    ______ ____
ROOT
ATOM      1  C   UNL     1      -1.394  -4.802  -1.075  0.00  0.00    +0.076 C 
ATOM      2  C   UNL     1      -1.644  -5.387  -2.269  0.00  0.00    +0.249 C 
ATOM      3  C   UNL     1      -0.736  -6.539  -2.446  0.00  0.00    +0.288 C 
ATOM      4  O   UNL     1      -0.715  -7.268  -3.418  0.00  0.00    -0.266 OA
ATOM      5  N   UNL     1       0.065  -6.661  -1.371  0.00  0.00    -0.281 N 
ATOM      6  C   UNL     1      -0.274  -5.586  -0.432  0.00  0.00    +0.145 C 
ATOM      7  O   UNL     1      -2.578  -4.981  -3.161  0.00  0.00    -0.282 OA
ENDROOT
BRANCH   6   8
ATOM      8  C   UNL     1       0.920  -4.695  -0.207  0.00  0.00    -0.020 A 
ATOM      9  C   UNL     1       1.434  -4.536   1.067  0.00  0.00    +0.006 A 
ATOM     10  C   UNL     1       2.529  -3.719   1.274  0.00  0.00    +0.003 A 
ATOM     11  C   UNL     1       3.111  -3.060   0.206  0.00  0.00    +0.033 A 
ATOM     12  C   UNL     1       2.598  -3.219  -1.067  0.00  0.00    +0.127 A 
ATOM     13  C   UNL     1       1.505  -4.040  -1.274  0.00  0.00    +0.038 A 
BRANCH  12  14
ATOM     14  N   UNL     1       3.220  -2.513  -2.209  0.00  0.00    +0.056 N 
ATOM     15  O   UNL     1       4.234  -1.874  -2.046  0.00  0.00    -0.126 OA
ATOM     16  O   UNL     1       2.715  -2.576  -3.306  0.00  0.00    -0.126 OA
ENDBRANCH  12  14
ENDBRANCH   6   8
BRANCH   1  17
ATOM     17  C   UNL     1      -2.074  -3.629  -0.516  0.00  0.00    +0.195 C 
ATOM     18  O   UNL     1      -1.946  -2.541  -1.046  0.00  0.00    -0.287 OA
BRANCH  17  22
ATOM     19  C   UNL     1      -4.836  -1.548   3.078  0.00  0.00    +0.047 C 
ATOM     20  C   UNL     1      -4.245  -2.769   2.422  0.00  0.00    -0.008 A 
ATOM     21  C   UNL     1      -3.462  -2.635   1.298  0.00  0.00    +0.018 A 
ATOM     22  C   UNL     1      -2.914  -3.769   0.690  0.00  0.00    +0.023 A 
ATOM     23  C   UNL     1      -3.164  -5.035   1.228  0.00  0.00    +0.015 A 
ATOM     24  C   UNL     1      -3.948  -5.161   2.352  0.00  0.00    +0.046 A 
ATOM     25  C   UNL     1      -4.486  -4.030   2.957  0.00  0.00    +0.124 A 
BRANCH  25  26
ATOM     26  O   UNL     1      -5.254  -4.157   4.068  0.00  0.00    -0.488 OA
BRANCH  26  27
ATOM     27  C   UNL     1      -5.380  -5.468   4.623  0.00  0.00    +0.256 C 
BRANCH  27  28
ATOM     28  C   UNL     1      -6.324  -5.429   5.796  0.00  0.00    +0.006 C 
ATOM     29  C   UNL     1      -7.248  -6.348   5.925  0.00  0.00    +0.007 C 
ENDBRANCH  27  28
ENDBRANCH  26  27
ENDBRANCH  25  26
ENDBRANCH  17  22
ENDBRANCH   1  17
BRANCH   5  30
ATOM     30  C   UNL     1       1.096  -7.684  -1.177  0.00  0.00    +0.137 C 
BRANCH  30  31
ATOM     31  C   UNL     1       2.383  -7.251  -1.882  0.00  0.00    +0.179 C 
BRANCH  31  32
ATOM     32  O   UNL     1       3.109  -6.354  -1.040  0.00  0.00    -0.376 OA
BRANCH  32  33
ATOM     33  C   UNL     1       4.417  -6.035  -1.521  0.00  0.00    +0.187 C 
BRANCH  33  34
ATOM     34  C   UNL     1       5.141  -5.165  -0.491  0.00  0.00    +0.184 C 
BRANCH  34  35
ATOM     35  O   UNL     1       5.357  -5.921   0.702  0.00  0.00    -0.393 OA
ATOM     36  H   UNL     1       5.879  -5.458   1.372  0.00  0.00    +0.209 HD
ENDBRANCH  34  35
ENDBRANCH  33  34
ENDBRANCH  32  33
ENDBRANCH  31  32
ENDBRANCH  30  31
ENDBRANCH   5  30
TORSDOF 13
