REMARK  Name = ZINC25160459
REMARK  16 active torsions:
REMARK  status: ('A' for Active; 'I' for Inactive)
REMARK    1  A    between atoms: C_1  and  C_2
REMARK    2  A    between atoms: C_2  and  N_3
REMARK    3  A    between atoms: N_3  and  C_4
REMARK    4  A    between atoms: C_4  and  C_5
REMARK    5  A    between atoms: C_6  and  O_8
REMARK    6  A    between atoms: O_8  and  C_9
REMARK    7  A    between atoms: C_14  and  N_15
REMARK    8  A    between atoms: C_16  and  C_18
REMARK    9  A    between atoms: C_20  and  O_28
REMARK   10  A    between atoms: C_21  and  O_26
REMARK   11  A    between atoms: C_22  and  O_24
REMARK   12  A    between atoms: O_24  and  C_25
REMARK   13  A    between atoms: O_26  and  C_27
REMARK   14  A    between atoms: O_28  and  C_29
REMARK   15  A    between atoms: N_32  and  C_33
REMARK   16  A    between atoms: C_33  and  C_34
REMARK                            x       y       z     vdW  Elec       q    Type
REMARK                         _______ _______ _______ _____ _____    ______ ____
ROOT
ATOM      1  C   UNL     1      -0.081  -0.148  -0.514  0.00  0.00    +0.155 A 
ATOM      2  C   UNL     1       1.124  -0.834  -0.626  0.00  0.00    +0.050 A 
ATOM      3  C   UNL     1       1.253  -2.115  -0.137  0.00  0.00    +0.030 A 
ATOM      4  C   UNL     1       0.171  -2.740   0.478  0.00  0.00    +0.051 A 
ATOM      5  C   UNL     1      -1.050  -2.054   0.595  0.00  0.00    +0.025 A 
ATOM      6  C   UNL     1      -1.170  -0.749   0.100  0.00  0.00    +0.086 A 
ATOM      7  C   UNL     1      -1.966  -2.971   1.277  0.00  0.00    +0.029 A 
ATOM      8  C   UNL     1      -1.284  -4.101   1.520  0.00  0.00    +0.087 A 
ATOM      9  N   UNL     1      -0.003  -3.982   1.050  0.00  0.00    -0.342 N 
ENDROOT
BRANCH   6  10
ATOM     10  N   UNL     1      -2.381  -0.058   0.219  0.00  0.00    -0.278 N 
ATOM     11  C   UNL     1      -2.380   1.270   0.444  0.00  0.00    +0.249 C 
ATOM     12  O   UNL     1      -1.328   1.859   0.606  0.00  0.00    -0.270 OA
ATOM     13  H   UNL     1      -3.334  -0.600   0.129  0.00  0.00    +0.155 HD
BRANCH  11  14
ATOM     14  C   UNL     1      -3.655   2.011   0.495  0.00  0.00    +0.044 A 
ATOM     15  C   UNL     1      -4.864   1.337   0.304  0.00  0.00    +0.062 A 
ATOM     16  C   UNL     1      -6.058   2.033   0.356  0.00  0.00    +0.166 A 
ATOM     17  C   UNL     1      -6.055   3.406   0.589  0.00  0.00    +0.204 A 
ATOM     18  C   UNL     1      -4.851   4.080   0.775  0.00  0.00    +0.166 A 
ATOM     19  C   UNL     1      -3.656   3.389   0.728  0.00  0.00    +0.062 A 
BRANCH  18  20
ATOM     20  O   UNL     1      -4.853   5.421   1.002  0.00  0.00    -0.491 OA
ATOM     21  C   UNL     1      -3.582   6.050   1.183  0.00  0.00    +0.277 C 
ENDBRANCH  18  20
BRANCH  17  22
ATOM     22  O   UNL     1      -7.229   4.088   0.635  0.00  0.00    -0.488 OA
ATOM     23  C   UNL     1      -7.716   4.626  -0.596  0.00  0.00    +0.277 C 
ENDBRANCH  17  22
BRANCH  16  24
ATOM     24  O   UNL     1      -7.235   1.377   0.175  0.00  0.00    -0.491 OA
ATOM     25  C   UNL     1      -7.164  -0.031  -0.059  0.00  0.00    +0.277 C 
ENDBRANCH  16  24
ENDBRANCH  11  14
ENDBRANCH   6  10
BRANCH   1  26
ATOM     26  O   UNL     1      -0.190   1.117  -1.003  0.00  0.00    -0.409 OA
BRANCH  26  28
ATOM     27  N   UNL     1      -0.826   2.471  -2.793  0.00  0.00    -0.268 N 
ATOM     28  C   UNL     1      -0.778   1.259  -2.206  0.00  0.00    +0.408 C 
ATOM     29  O   UNL     1      -1.265   0.294  -2.761  0.00  0.00    -0.226 OA
BRANCH  27  31
ATOM     30  C   UNL     1       1.247   3.768  -2.766  0.00  0.00    +0.024 C 
ATOM     31  C   UNL     1      -0.154   3.614  -2.171  0.00  0.00    +0.108 C 
ENDBRANCH  27  31
BRANCH  27  32
ATOM     32  C   UNL     1      -1.550   2.645  -4.055  0.00  0.00    +0.108 C 
ATOM     33  C   UNL     1      -3.006   3.013  -3.761  0.00  0.00    +0.024 C 
ENDBRANCH  27  32
ENDBRANCH  26  28
ENDBRANCH   1  26
BRANCH   9  34
ATOM     34  C   UNL     1       1.027  -5.019   1.140  0.00  0.00    +0.157 C 
BRANCH  34  35
ATOM     35  C   UNL     1       1.873  -4.782   2.364  0.00  0.00    -0.028 A 
ATOM     36  C   UNL     1       3.007  -3.997   2.279  0.00  0.00    +0.005 A 
ATOM     37  C   UNL     1       3.780  -3.775   3.403  0.00  0.00    +0.000 A 
ATOM     38  C   UNL     1       3.425  -4.348   4.610  0.00  0.00    +0.000 A 
ATOM     39  C   UNL     1       2.294  -5.138   4.694  0.00  0.00    +0.000 A 
ATOM     40  C   UNL     1       1.518  -5.355   3.571  0.00  0.00    +0.005 A 
ENDBRANCH  34  35
ENDBRANCH   9  34
TORSDOF 11
