REMARK  Name = ZINC15768378
REMARK  3 active torsions:
REMARK  status: ('A' for Active; 'I' for Inactive)
REMARK    1  A    between atoms: C_5  and  C_7
REMARK    2  A    between atoms: C_7  and  N_8
REMARK    3  A    between atoms: C_11  and  O_12
REMARK                            x       y       z     vdW  Elec       q    Type
REMARK                         _______ _______ _______ _____ _____    ______ ____
ROOT
ATOM      1  N   UNL     1       1.489  -2.679   1.333  0.00  0.00    -0.272 NA
ATOM      2  C   UNL     1       0.576  -3.362   1.965  0.00  0.00    +0.160 C 
ATOM      3  C   UNL     1      -0.799  -3.836   1.661  0.00  0.00    +0.253 C 
ATOM      4  C   UNL     1      -0.840  -4.421   2.944  0.00  0.00    +0.216 C 
ATOM      5  C   UNL     1       0.462  -4.008   3.298  0.00  0.00    +0.253 C 
ATOM      6  O   UNL     1       1.186  -4.131   4.279  0.00  0.00    -0.281 OA
ATOM      7  O   UNL     1      -1.566  -3.755   0.708  0.00  0.00    -0.281 OA
ENDROOT
BRANCH   4   8
ATOM      8  O   UNL     1      -1.788  -5.131   3.600  0.00  0.00    -0.501 OA
ATOM      9  H   UNL     1      -1.528  -5.408   4.489  0.00  0.00    +0.292 HD
ENDBRANCH   4   8
BRANCH   1  10
ATOM     10  C   UNL     1       1.229  -2.186  -0.022  0.00  0.00    +0.179 C 
BRANCH  10  15
ATOM     11  C   UNL     1      -0.017   1.378   0.010  0.00  0.00    +0.000 A 
ATOM     12  C   UNL     1       1.171   2.086   0.002  0.00  0.00    +0.001 A 
ATOM     13  C   UNL     1       2.377   1.412  -0.013  0.00  0.00    +0.020 A 
ATOM     14  C   UNL     1       2.397   0.029  -0.021  0.00  0.00    +0.046 A 
ATOM     15  C   UNL     1       1.208  -0.679  -0.013  0.00  0.00    -0.008 A 
ATOM     16  C   UNL     1       0.002  -0.004   0.002  0.00  0.00    +0.007 A 
ATOM     17 CL   UNL     1       3.912  -0.818  -0.041  0.00  0.00    -0.083 Cl
ENDBRANCH  10  15
ENDBRANCH   1  10
TORSDOF 3
