REMARK  Name = ZINC36396459
REMARK  11 active torsions:
REMARK  status: ('A' for Active; 'I' for Inactive)
REMARK    1  A    between atoms: C_1  and  C_2
REMARK    2  A    between atoms: C_2  and  C_3
REMARK    3  A    between atoms: C_3  and  C_4
REMARK    4  A    between atoms: C_4  and  N_5
REMARK    5  A    between atoms: C_7  and  C_11
REMARK    6  A    between atoms: C_8  and  C_10
REMARK    7  A    between atoms: C_12  and  C_13
REMARK    8  A    between atoms: N_15  and  C_16
REMARK    9  A    between atoms: C_19  and  S_22
REMARK   10  A    between atoms: S_22  and  N_25
REMARK   11  A    between atoms: N_30  and  C_31
REMARK                            x       y       z     vdW  Elec       q    Type
REMARK                         _______ _______ _______ _____ _____    ______ ____
ROOT
ATOM      1  C   UNL     1       0.542  -4.840  -7.621  0.00  0.00    +0.241 C 
ATOM      2  O   UNL     1       1.255  -4.354  -8.480  0.00  0.00    -0.270 OA
ATOM      3  N   UNL     1      -0.411  -5.730  -7.960  0.00  0.00    -0.282 N 
ATOM      4  H   UNL     1      -0.934  -6.167  -7.270  0.00  0.00    +0.155 HD
ENDROOT
BRANCH   3   5
ATOM      5  C   UNL     1      -0.645  -6.025  -9.307  0.00  0.00    +0.034 A 
ATOM      6  C   UNL     1      -1.936  -6.287  -9.748  0.00  0.00    +0.025 A 
ATOM      7  C   UNL     1      -2.164  -6.577 -11.079  0.00  0.00    +0.031 A 
ATOM      8  C   UNL     1      -1.109  -6.606 -11.972  0.00  0.00    +0.113 A 
ATOM      9  C   UNL     1       0.177  -6.346 -11.536  0.00  0.00    +0.031 A 
ATOM     10  C   UNL     1       0.411  -6.050 -10.208  0.00  0.00    +0.025 A 
BRANCH   8  11
ATOM     11  S   UNL     1      -1.404  -6.978 -13.669  0.00  0.00    +0.100 S 
ATOM     12  O   UNL     1      -0.182  -7.479 -14.193  0.00  0.00    -0.146 OA
ATOM     13  O   UNL     1      -2.615  -7.719 -13.718  0.00  0.00    -0.146 OA
BRANCH  11  14
ATOM     14  N   UNL     1      -1.697  -5.542 -14.441  0.00  0.00    -0.118 NA
ATOM     15  C   UNL     1      -1.946  -5.529 -15.709  0.00  0.00    +0.119 C 
ATOM     16  C   UNL     1      -2.010  -6.744 -16.615  0.00  0.00    +0.075 C 
ATOM     17  C   UNL     1      -1.592  -6.184 -17.994  0.00  0.00    +0.026 C 
ATOM     18  C   UNL     1      -1.984  -4.696 -17.890  0.00  0.00    +0.106 C 
ATOM     19  N   UNL     1      -2.204  -4.417 -16.465  0.00  0.00    -0.320 N 
ATOM     20  C   UNL     1      -2.639  -3.126 -15.925  0.00  0.00    +0.130 C 
ENDBRANCH  11  14
ENDBRANCH   8  11
ENDBRANCH   3   5
BRANCH   1  22
ATOM     21  C   UNL     1       1.669  -3.575  -5.924  0.00  0.00    +0.018 C 
ATOM     22  C   UNL     1       0.713  -4.468  -6.264  0.00  0.00    +0.068 C 
BRANCH  21  25
ATOM     23  N   UNL     1       1.440  -2.521  -2.463  0.00  0.00    -0.252 N 
ATOM     24  C   UNL     1       0.854  -2.775  -3.646  0.00  0.00    +0.134 A 
ATOM     25  C   UNL     1       1.847  -3.190  -4.518  0.00  0.00    +0.034 A 
ATOM     26  C   UNL     1       3.065  -3.172  -3.799  0.00  0.00    +0.069 A 
ATOM     27  N   UNL     1       2.812  -2.769  -2.585  0.00  0.00    -0.175 NA
ATOM     28  C   UNL     1       4.419  -3.547  -4.343  0.00  0.00    +0.068 C 
ATOM     29 CL   UNL     1      -0.836  -2.615  -4.012  0.00  0.00    -0.062 Cl
BRANCH  23  30
ATOM     30  C   UNL     1       0.759  -2.057  -1.252  0.00  0.00    +0.145 C 
BRANCH  30  31
ATOM     31  C   UNL     1       0.733  -0.527  -1.236  0.00  0.00    +0.023 C 
BRANCH  31  33
ATOM     32  C   UNL     1      -0.005   1.487   0.045  0.00  0.00    +0.004 C 
ATOM     33  C   UNL     1       0.021  -0.043   0.029  0.00  0.00    -0.002 C 
ENDBRANCH  31  33
ENDBRANCH  30  31
ENDBRANCH  23  30
ENDBRANCH  21  25
ENDBRANCH   1  22
TORSDOF 8
