REMARK  Name = ZINC15673558
REMARK  9 active torsions:
REMARK  status: ('A' for Active; 'I' for Inactive)
REMARK    1  A    between atoms: C_4  and  C_7
REMARK    2  A    between atoms: C_7  and  N_8
REMARK    3  A    between atoms: C_14  and  C_16
REMARK    4  A    between atoms: C_16  and  C_17
REMARK    5  A    between atoms: C_23  and  C_25
REMARK    6  A    between atoms: C_25  and  C_26
REMARK    7  A    between atoms: C_28  and  C_31
REMARK    8  A    between atoms: C_31  and  O_32
REMARK    9  A    between atoms: O_32  and  C_33
REMARK                            x       y       z     vdW  Elec       q    Type
REMARK                         _______ _______ _______ _____ _____    ______ ____
ROOT
ATOM      1  C   UNL     1      -3.421   1.369   6.521  0.00  0.00    -0.002 C 
ATOM      2  C   UNL     1      -4.556   2.396   6.469  0.00  0.00    -0.015 C 
ATOM      3  C   UNL     1      -3.977   3.800   6.654  0.00  0.00    -0.082 C 
ATOM      4  N   UNL     1      -2.999   4.071   5.592  0.00  0.00    +0.379 N 
ATOM      5  C   UNL     1      -1.876   3.127   5.651  0.00  0.00    -0.079 C 
ATOM      6  C   UNL     1      -2.393   1.703   5.436  0.00  0.00    -0.019 C 
ATOM      7  H   UNL     1      -3.487   3.975   4.611  0.00  0.00    -0.086 HD
ATOM      8  H   UNL     1      -2.606   5.092   5.707  0.00  0.00    -0.086 HD
ENDROOT
BRANCH   1   9
ATOM      9  C   UNL     1      -3.986  -0.032   6.276  0.00  0.00    +0.099 C 
BRANCH   9  16
ATOM     10  N   UNL     1      -5.944  -4.318   7.895  0.00  0.00    -0.295 NA
ATOM     11  C   UNL     1      -5.996  -3.374   9.019  0.00  0.00    +0.103 C 
ATOM     12  C   UNL     1      -6.421  -1.994   8.504  0.00  0.00    +0.123 C 
ATOM     13  N   UNL     1      -5.521  -1.607   7.407  0.00  0.00    -0.299 N 
ATOM     14  C   UNL     1      -5.315  -2.560   6.306  0.00  0.00    +0.123 C 
ATOM     15  C   UNL     1      -4.929  -3.919   6.910  0.00  0.00    +0.103 C 
ATOM     16  C   UNL     1      -4.904  -0.408   7.409  0.00  0.00    +0.216 C 
ATOM     17  O   UNL     1      -5.090   0.367   8.323  0.00  0.00    -0.276 OA
BRANCH  10  18
ATOM     18  C   UNL     1      -5.708  -5.688   8.369  0.00  0.00    +0.119 C 
BRANCH  18  22
ATOM     19  C   UNL     1      -6.263  -8.428   5.139  0.00  0.00    +0.000 A 
ATOM     20  C   UNL     1      -5.014  -7.883   5.377  0.00  0.00    +0.000 A 
ATOM     21  C   UNL     1      -4.835  -6.997   6.422  0.00  0.00    +0.005 A 
ATOM     22  C   UNL     1      -5.904  -6.655   7.229  0.00  0.00    -0.033 A 
ATOM     23  C   UNL     1      -7.151  -7.203   6.995  0.00  0.00    +0.005 A 
ATOM     24  C   UNL     1      -7.331  -8.086   5.947  0.00  0.00    +0.000 A 
ENDBRANCH  18  22
ENDBRANCH  10  18
ENDBRANCH   9  16
ENDBRANCH   1   9
BRANCH   6  25
ATOM     25  C   UNL     1      -3.051   1.601   4.059  0.00  0.00    +0.061 C 
BRANCH  25  26
ATOM     26  C   UNL     1      -2.012   1.811   2.988  0.00  0.00    +0.084 A 
ATOM     27  C   UNL     1      -1.712   0.939   1.916  0.00  0.00    +0.074 A 
ATOM     28  C   UNL     1      -0.718   1.572   1.248  0.00  0.00    +0.175 A 
ATOM     29  O   UNL     1      -0.482   2.713   1.910  0.00  0.00    -0.356 OA
ATOM     30  N   UNL     1      -1.211   2.830   2.868  0.00  0.00    -0.083 NA
BRANCH  28  31
ATOM     31  C   UNL     1      -0.013   1.086   0.008  0.00  0.00    +0.306 C 
BRANCH  31  32
ATOM     32  O   UNL     1      -0.704   1.559  -1.150  0.00  0.00    -0.484 OA
BRANCH  32  33
ATOM     33  C   UNL     1      -0.194   1.208  -2.359  0.00  0.00    +0.121 A 
ATOM     34  C   UNL     1       0.951   0.428  -2.431  0.00  0.00    +0.045 A 
ATOM     35  C   UNL     1       1.464   0.067  -3.662  0.00  0.00    +0.004 A 
ATOM     36  C   UNL     1       0.844   0.492  -4.822  0.00  0.00    +0.000 A 
ATOM     37  C   UNL     1      -0.294   1.274  -4.753  0.00  0.00    +0.004 A 
ATOM     38  C   UNL     1      -0.815   1.633  -3.525  0.00  0.00    +0.045 A 
ENDBRANCH  32  33
ENDBRANCH  31  32
ENDBRANCH  28  31
ENDBRANCH  25  26
ENDBRANCH   6  25
TORSDOF 9
