REMARK  Name = ZINC09242879
REMARK  7 active torsions:
REMARK  status: ('A' for Active; 'I' for Inactive)
REMARK    1  A    between atoms: C_1  and  C_2
REMARK    2  A    between atoms: C_2  and  O_3
REMARK    3  A    between atoms: O_3  and  C_4
REMARK    4  A    between atoms: C_9  and  C_10
REMARK    5  A    between atoms: C_10  and  C_12
REMARK    6  A    between atoms: C_33  and  C_40
REMARK    7  A    between atoms: C_34  and  C_39
REMARK                            x       y       z     vdW  Elec       q    Type
REMARK                         _______ _______ _______ _____ _____    ______ ____
ROOT
ATOM      1  C   UNL     1       4.443   1.255  -0.754  0.00  0.00    +0.066 C 
ATOM      2  C   UNL     1       4.451   0.818   0.721  0.00  0.00    -0.055 C 
ATOM      3  C   UNL     1       5.183   1.856   1.581  0.00  0.00    -0.016 C 
ATOM      4  C   UNL     1       4.130   2.344   2.603  0.00  0.00    -0.020 C 
ATOM      5  C   UNL     1       2.791   2.052   1.884  0.00  0.00    -0.076 C 
ATOM      6  C   UNL     1       2.180   0.729  -0.031  0.00  0.00    +0.060 C 
ATOM      7  C   UNL     1       3.075   0.774  -1.262  0.00  0.00    +0.085 C 
ATOM      8  C   UNL     1       2.531   1.689  -2.322  0.00  0.00    -0.011 A 
ATOM      9  C   UNL     1       2.209   3.028  -2.345  0.00  0.00    +0.006 A 
ATOM     10  C   UNL     1       1.713   3.602  -3.502  0.00  0.00    +0.000 A 
ATOM     11  C   UNL     1       1.541   2.828  -4.635  0.00  0.00    +0.002 A 
ATOM     12  C   UNL     1       1.863   1.486  -4.617  0.00  0.00    +0.023 A 
ATOM     13  C   UNL     1       2.363   0.901  -3.456  0.00  0.00    +0.038 A 
ATOM     14  N   UNL     1       2.755  -0.414  -3.193  0.00  0.00    -0.285 N 
ATOM     15  C   UNL     1       3.186  -0.572  -1.927  0.00  0.00    +0.228 C 
ATOM     16  O   UNL     1       3.585  -1.599  -1.421  0.00  0.00    -0.275 OA
ATOM     17  C   UNL     1       1.319  -0.507  -0.026  0.00  0.00    -0.026 A 
ATOM     18  C   UNL     1       1.603  -1.855  -0.026  0.00  0.00    +0.005 A 
ATOM     19  C   UNL     1       0.573  -2.779  -0.020  0.00  0.00    +0.004 A 
ATOM     20  C   UNL     1      -0.740  -2.345  -0.013  0.00  0.00    -0.046 A 
ATOM     21  C   UNL     1      -1.029  -0.996  -0.013  0.00  0.00    -0.026 A 
ATOM     22  C   UNL     1       0.002  -0.059  -0.019  0.00  0.00    +0.039 A 
ATOM     23  N   UNL     1      -0.033   1.336  -0.021  0.00  0.00    -0.286 N 
ATOM     24  C   UNL     1       1.200   1.876  -0.027  0.00  0.00    +0.212 C 
ATOM     25  O   UNL     1       1.471   3.058  -0.030  0.00  0.00    -0.277 OA
ATOM     26  C   UNL     1      -2.463  -0.535  -0.004  0.00  0.00    +0.046 C 
ATOM     27  C   UNL     1      -1.862  -3.352  -0.005  0.00  0.00    +0.044 C 
ATOM     28  H   UNL     1       2.722  -1.129  -3.847  0.00  0.00    +0.155 HD
ATOM     29  H   UNL     1      -0.851   1.857  -0.021  0.00  0.00    +0.155 HD
ATOM     30  N   UNL     1       3.056   0.801   1.153  0.00  0.00    +0.395 N 
ATOM     31  H   UNL     1       2.885  -0.007   1.763  0.00  0.00    -0.079 HD
ENDROOT
BRANCH   1  32
ATOM     32  C   UNL     1       5.558   0.583  -1.513  0.00  0.00    +0.169 C 
ATOM     33  O   UNL     1       6.004  -0.475  -1.123  0.00  0.00    -0.292 OA
BRANCH  32  39
ATOM     34  C   UNL     1       7.056   0.531  -3.502  0.00  0.00    +0.131 A 
ATOM     35  C   UNL     1       7.563   1.133  -4.644  0.00  0.00    +0.046 A 
ATOM     36  C   UNL     1       7.132   2.391  -5.013  0.00  0.00    +0.004 A 
ATOM     37  C   UNL     1       6.191   3.064  -4.249  0.00  0.00    +0.001 A 
ATOM     38  C   UNL     1       5.671   2.482  -3.115  0.00  0.00    +0.015 A 
ATOM     39  C   UNL     1       6.103   1.208  -2.724  0.00  0.00    +0.059 A 
BRANCH  34  40
ATOM     40  O   UNL     1       7.479  -0.705  -3.138  0.00  0.00    -0.492 OA
BRANCH  40  42
ATOM     41  C   UNL     1       8.801  -2.709  -3.411  0.00  0.00    +0.048 C 
ATOM     42  C   UNL     1       8.450  -1.332  -3.978  0.00  0.00    +0.226 C 
ENDBRANCH  40  42
ENDBRANCH  34  40
ENDBRANCH  32  39
ENDBRANCH   1  32
TORSDOF 4
