REMARK  Name = ZINC36303670
REMARK  16 active torsions:
REMARK  status: ('A' for Active; 'I' for Inactive)
REMARK    1  A    between atoms: C_1  and  C_2
REMARK    2  A    between atoms: C_3  and  C_21
REMARK    3  A    between atoms: C_4  and  O_13
REMARK    4  A    between atoms: N_5  and  C_7
REMARK    5  A    between atoms: O_13  and  C_14
REMARK    6  A    between atoms: C_21  and  N_22
REMARK    7  A    between atoms: N_22  and  C_23
REMARK    8  A    between atoms: N_22  and  C_29
REMARK    9  A    between atoms: C_23  and  C_24
REMARK   10  A    between atoms: C_29  and  C_30
REMARK   11  A    between atoms: C_30  and  C_32
REMARK   12  A    between atoms: C_30  and  O_37
REMARK   13  A    between atoms: C_32  and  O_33
REMARK   14  A    between atoms: O_33  and  C_34
REMARK   15  A    between atoms: C_34  and  C_35
REMARK   16  A    between atoms: C_34  and  C_36
REMARK                            x       y       z     vdW  Elec       q    Type
REMARK                         _______ _______ _______ _____ _____    ______ ____
ROOT
ATOM      1  C   UNL     1      -0.208   1.975   0.509  0.00  0.00    +0.068 C 
ATOM      2  C   UNL     1       0.143   0.510   0.474  0.00  0.00    +0.065 A 
ATOM      3  C   UNL     1       0.216  -0.286  -0.673  0.00  0.00    +0.021 A 
ATOM      4  C   UNL     1       0.562  -1.543  -0.288  0.00  0.00    +0.225 A 
ATOM      5  N   UNL     1       0.703  -1.532   1.065  0.00  0.00    -0.200 N 
ATOM      6  N   UNL     1       0.438  -0.231   1.512  0.00  0.00    -0.168 NA
ENDROOT
BRANCH   5   7
ATOM      7  C   UNL     1       1.053  -2.626   1.868  0.00  0.00    +0.069 A 
ATOM      8  C   UNL     1       0.466  -3.865   1.651  0.00  0.00    +0.028 A 
ATOM      9  C   UNL     1       0.814  -4.941   2.444  0.00  0.00    +0.002 A 
ATOM     10  C   UNL     1       1.746  -4.785   3.454  0.00  0.00    +0.000 A 
ATOM     11  C   UNL     1       2.332  -3.551   3.673  0.00  0.00    +0.002 A 
ATOM     12  C   UNL     1       1.993  -2.473   2.879  0.00  0.00    +0.028 A 
ENDBRANCH   5   7
BRANCH   4  13
ATOM     13  O   UNL     1       0.736  -2.614  -1.104  0.00  0.00    -0.438 OA
BRANCH  13  14
ATOM     14  C   UNL     1      -0.358  -3.351  -1.431  0.00  0.00    +0.130 A 
ATOM     15  C   UNL     1      -1.620  -2.936  -1.030  0.00  0.00    +0.048 A 
ATOM     16  C   UNL     1      -2.731  -3.687  -1.363  0.00  0.00    +0.023 A 
ATOM     17  C   UNL     1      -2.586  -4.851  -2.097  0.00  0.00    +0.041 A 
ATOM     18  C   UNL     1      -1.329  -5.266  -2.498  0.00  0.00    +0.023 A 
ATOM     19  C   UNL     1      -0.216  -4.516  -2.171  0.00  0.00    +0.048 A 
ATOM     20 CL   UNL     1      -3.984  -5.792  -2.515  0.00  0.00    -0.084 Cl
ENDBRANCH  13  14
ENDBRANCH   4  13
BRANCH   3  21
ATOM     21  C   UNL     1      -0.045   0.168  -2.086  0.00  0.00    -0.035 C 
BRANCH  21  22
ATOM     22  N   UNL     1       1.209   0.642  -2.688  0.00  0.00    +0.389 N 
ATOM     23  H   UNL     1       1.596   1.380  -2.120  0.00  0.00    -0.081 HD
BRANCH  22  24
ATOM     24  C   UNL     1       2.166  -0.470  -2.764  0.00  0.00    -0.003 C 
BRANCH  24  25
ATOM     25  C   UNL     1       3.481   0.034  -3.300  0.00  0.00    +0.089 A 
ATOM     26  C   UNL     1       4.529   0.439  -2.559  0.00  0.00    +0.042 A 
ATOM     27  C   UNL     1       5.543   0.827  -3.464  0.00  0.00    +0.041 A 
ATOM     28  C   UNL     1       5.055   0.637  -4.703  0.00  0.00    +0.195 A 
ATOM     29  O   UNL     1       3.808   0.151  -4.597  0.00  0.00    -0.470 OA
ENDBRANCH  24  25
ENDBRANCH  22  24
BRANCH  22  30
ATOM     30  C   UNL     1       0.942   1.151  -4.039  0.00  0.00    -0.044 C 
BRANCH  30  31
ATOM     31  C   UNL     1       0.093   2.421  -3.947  0.00  0.00    +0.124 C 
BRANCH  31  32
ATOM     32  O   UNL     1      -1.220   2.085  -3.495  0.00  0.00    -0.391 OA
ATOM     33  H   UNL     1      -1.690   1.469  -4.074  0.00  0.00    +0.210 HD
ENDBRANCH  31  32
BRANCH  31  34
ATOM     34  C   UNL     1       0.005   3.077  -5.327  0.00  0.00    +0.189 C 
BRANCH  34  35
ATOM     35  O   UNL     1      -0.688   4.322  -5.219  0.00  0.00    -0.375 OA
BRANCH  35  36
ATOM     36  C   UNL     1      -0.826   5.019  -6.459  0.00  0.00    +0.112 C 
ATOM     37  C   UNL     1      -2.126   4.592  -7.142  0.00  0.00    +0.037 C 
ATOM     38  C   UNL     1      -0.859   6.526  -6.195  0.00  0.00    +0.037 C 
ENDBRANCH  35  36
ENDBRANCH  34  35
ENDBRANCH  31  34
ENDBRANCH  30  31
ENDBRANCH  22  30
ENDBRANCH  21  22
ENDBRANCH   3  21
TORSDOF 13
