REMARK  Name = ZINC36157513
REMARK  10 active torsions:
REMARK  status: ('A' for Active; 'I' for Inactive)
REMARK    1  A    between atoms: C_1  and  C_2
REMARK    2  A    between atoms: C_2  and  C_3
REMARK    3  A    between atoms: C_2  and  C_4
REMARK    4  A    between atoms: C_14  and  C_40
REMARK    5  A    between atoms: C_18  and  C_19
REMARK    6  A    between atoms: C_18  and  C_20
REMARK    7  A    between atoms: C_20  and  N_21
REMARK    8  A    between atoms: N_21  and  C_22
REMARK    9  A    between atoms: N_32  and  C_33
REMARK   10  A    between atoms: C_33  and  C_34
REMARK                            x       y       z     vdW  Elec       q    Type
REMARK                         _______ _______ _______ _____ _____    ______ ____
ROOT
ATOM      1  C   UNL     1       6.696  -1.505  -5.231  0.00  0.00    -0.073 C 
ENDROOT
BRANCH   1  15
ATOM      2  C   UNL     1       1.222   0.951  -1.190  0.00  0.00    -0.045 A 
ATOM      3  C   UNL     1       0.693   1.216  -2.440  0.00  0.00    +0.004 A 
ATOM      4  C   UNL     1       1.256   0.630  -3.557  0.00  0.00    +0.005 A 
ATOM      5  C   UNL     1       2.344  -0.217  -3.431  0.00  0.00    -0.038 A 
ATOM      6  C   UNL     1       2.874  -0.488  -2.189  0.00  0.00    -0.043 A 
ATOM      7  C   UNL     1       2.303   0.105  -1.067  0.00  0.00    +0.007 A 
ATOM      8  C   UNL     1       4.050  -1.397  -1.962  0.00  0.00    +0.036 C 
ATOM      9  C   UNL     1       4.458  -2.148  -3.231  0.00  0.00    +0.009 C 
ATOM     10  C   UNL     1       4.382  -1.173  -4.404  0.00  0.00    +0.004 C 
ATOM     11  C   UNL     1       2.929  -0.836  -4.683  0.00  0.00    -0.004 C 
ATOM     12  C   UNL     1       2.814   0.137  -5.853  0.00  0.00    +0.011 C 
ATOM     13  C   UNL     1       3.497  -0.462  -7.084  0.00  0.00    +0.001 C 
ATOM     14  C   UNL     1       4.976  -0.689  -6.802  0.00  0.00    +0.005 C 
ATOM     15  C   UNL     1       5.197  -1.610  -5.601  0.00  0.00    -0.044 C 
ATOM     16  C   UNL     1       4.928  -3.062  -5.996  0.00  0.00    +0.009 C 
ATOM     17  C   UNL     1       2.092  -2.078  -4.990  0.00  0.00    +0.016 C 
BRANCH   2  19
ATOM     18  C   UNL     1       0.700   3.109  -0.085  0.00  0.00    +0.012 C 
ATOM     19  C   UNL     1       0.616   1.586   0.035  0.00  0.00    +0.013 C 
ATOM     20  C   UNL     1      -0.850   1.164   0.156  0.00  0.00    +0.012 C 
ENDBRANCH   2  19
ENDBRANCH   1  15
BRANCH   1  21
ATOM     21  N   UNL     1       7.515  -1.810  -6.412  0.00  0.00    +0.394 N 
ATOM     22  H   UNL     1       7.310  -2.746  -6.731  0.00  0.00    -0.083 HD
ATOM     23  H   UNL     1       7.304  -1.151  -7.146  0.00  0.00    -0.083 HD
BRANCH  21  24
ATOM     24  C   UNL     1       8.938  -1.714  -6.060  0.00  0.00    +0.051 C 
ATOM     25  C   UNL     1       9.317  -0.273  -5.828  0.00  0.00    -0.032 A 
ATOM     26  C   UNL     1       8.891   0.682  -4.934  0.00  0.00    +0.004 A 
ATOM     27  C   UNL     1       9.441   1.953  -4.965  0.00  0.00    +0.000 A 
ATOM     28  C   UNL     1      10.418   2.266  -5.894  0.00  0.00    +0.001 A 
ATOM     29  C   UNL     1      10.852   1.316  -6.795  0.00  0.00    +0.013 A 
ATOM     30  C   UNL     1      10.303   0.033  -6.770  0.00  0.00    +0.040 A 
ATOM     31  C   UNL     1      10.553  -1.172  -7.584  0.00  0.00    +0.246 C 
ATOM     32  O   UNL     1      11.357  -1.241  -8.494  0.00  0.00    -0.270 OA
ATOM     33  N   UNL     1       9.766  -2.184  -7.176  0.00  0.00    -0.305 N 
BRANCH  33  34
ATOM     34  C   UNL     1       9.739  -3.531  -7.751  0.00  0.00    +0.138 C 
BRANCH  34  35
ATOM     35  C   UNL     1       8.799  -3.552  -8.958  0.00  0.00    +0.136 C 
ATOM     36  C   UNL     1       8.807  -4.955  -9.603  0.00  0.00    +0.035 C 
ATOM     37  C   UNL     1       8.762  -4.620 -11.119  0.00  0.00    +0.031 C 
ATOM     38  C   UNL     1       9.591  -3.312 -11.157  0.00  0.00    +0.160 C 
ATOM     39  O   UNL     1       9.253  -2.617  -9.943  0.00  0.00    -0.375 OA
ENDBRANCH  34  35
ENDBRANCH  33  34
ENDBRANCH  21  24
ENDBRANCH   1  21
TORSDOF 6
