REMARK  Name = ZINC13564891
REMARK  2 active torsions:
REMARK  status: ('A' for Active; 'I' for Inactive)
REMARK    1  A    between atoms: C_20  and  N_23
REMARK    2  A    between atoms: C_30  and  C_32
REMARK                            x       y       z     vdW  Elec       q    Type
REMARK                         _______ _______ _______ _____ _____    ______ ____
ROOT
ATOM      1  C   UNL     1       2.944   7.589   0.942  0.00  0.00    +0.002 A 
ATOM      2  C   UNL     1       2.287   8.192  -0.115  0.00  0.00    +0.001 A 
ATOM      3  C   UNL     1       1.643   7.417  -1.064  0.00  0.00    +0.017 A 
ATOM      4  C   UNL     1       1.649   6.040  -0.943  0.00  0.00    +0.035 A 
ATOM      5  C   UNL     1       2.305   5.426   0.126  0.00  0.00    +0.057 A 
ATOM      6  C   UNL     1       2.952   6.212   1.067  0.00  0.00    +0.025 A 
ATOM      7  N   UNL     1       2.308   4.030   0.249  0.00  0.00    -0.222 N 
ATOM      8  C   UNL     1       1.188   3.257  -0.087  0.00  0.00    +0.057 A 
ATOM      9  C   UNL     1       0.856   2.143   0.668  0.00  0.00    +0.025 A 
ATOM     10  C   UNL     1      -0.251   1.385   0.332  0.00  0.00    +0.002 A 
ATOM     11  C   UNL     1      -1.033   1.731  -0.754  0.00  0.00    +0.001 A 
ATOM     12  C   UNL     1      -0.711   2.842  -1.515  0.00  0.00    +0.017 A 
ATOM     13  C   UNL     1       0.395   3.603  -1.183  0.00  0.00    +0.035 A 
ATOM     14  S   UNL     1       0.831   5.025  -2.134  0.00  0.00    -0.086 S 
ATOM     15  C   UNL     1       3.418   3.414   0.701  0.00  0.00    +0.314 C 
ATOM     16  O   UNL     1       3.342   2.298   1.178  0.00  0.00    -0.252 OA
ATOM     17  N   UNL     1       4.612   4.035   0.624  0.00  0.00    -0.285 N 
ATOM     18  C   UNL     1       4.759   5.282  -0.138  0.00  0.00    +0.111 C 
ATOM     19  C   UNL     1       5.898   5.120  -1.143  0.00  0.00    +0.041 C 
ATOM     20  C   UNL     1       7.165   4.679  -0.408  0.00  0.00    +0.076 C 
ATOM     21  C   UNL     1       6.920   3.328   0.269  0.00  0.00    +0.041 C 
ATOM     22  C   UNL     1       5.792   3.473   1.295  0.00  0.00    +0.111 C 
ENDROOT
BRANCH  20  23
ATOM     23  N   UNL     1       8.266   4.552  -1.366  0.00  0.00    -0.312 N 
ATOM     24  C   UNL     1       9.005   5.652  -1.710  0.00  0.00    +0.196 A 
ATOM     25  N   UNL     1      10.024   5.520  -2.601  0.00  0.00    -0.295 N 
ATOM     26  H   UNL     1      10.224   4.653  -2.988  0.00  0.00    +0.172 HD
ATOM     27  C   UNL     1      10.757   6.601  -2.946  0.00  0.00    +0.253 A 
ATOM     28  O   UNL     1      11.675   6.501  -3.744  0.00  0.00    -0.268 OA
ATOM     29  C   UNL     1      10.442   7.843  -2.367  0.00  0.00    +0.102 A 
ATOM     30  C   UNL     1       9.408   7.914  -1.479  0.00  0.00    +0.152 A 
ATOM     31  N   UNL     1       8.712   6.821  -1.176  0.00  0.00    -0.212 NA
ATOM     32  H   UNL     1       8.471   3.688  -1.757  0.00  0.00    +0.149 HD
BRANCH  30  33
ATOM     33  C   UNL     1       9.050   9.234  -0.845  0.00  0.00    +0.434 C 
ATOM     34  F   UNL     1       9.912  10.228  -1.320  0.00  0.00    -0.164 F 
ATOM     35  F   UNL     1       7.731   9.565  -1.172  0.00  0.00    -0.164 F 
ATOM     36  F   UNL     1       9.175   9.133   0.544  0.00  0.00    -0.164 F 
ENDBRANCH  30  33
ENDBRANCH  20  23
TORSDOF 2
