REMARK  Name = ZINC06851974
REMARK  5 active torsions:
REMARK  status: ('A' for Active; 'I' for Inactive)
REMARK    1  A    between atoms: C_1  and  C_2
REMARK    2  A    between atoms: N_10  and  C_11
REMARK    3  A    between atoms: C_11  and  C_13
REMARK    4  A    between atoms: C_13  and  N_51
REMARK    5  A    between atoms: C_19  and  C_21
REMARK                            x       y       z     vdW  Elec       q    Type
REMARK                         _______ _______ _______ _____ _____    ______ ____
ROOT
ATOM      1  C   UNL     1       3.577  -4.746   4.816  0.00  0.00    +0.021 C 
ENDROOT
BRANCH   1   9
ATOM      2  C   UNL     1       1.589  -6.080   5.176  0.00  0.00    -0.059 C 
ATOM      3  C   UNL     1       0.935  -7.427   4.850  0.00  0.00    +0.089 C 
ATOM      4  N   UNL     1       1.789  -8.501   5.379  0.00  0.00    -0.299 N 
ATOM      5  C   UNL     1       3.219  -8.487   5.034  0.00  0.00    +0.089 C 
ATOM      6  C   UNL     1       3.783  -7.098   5.352  0.00  0.00    -0.059 C 
ATOM      7  C   UNL     1       1.276  -9.473   6.159  0.00  0.00    +0.282 C 
ATOM      8  O   UNL     1       1.982 -10.392   6.531  0.00  0.00    -0.267 OA
ATOM      9  N   UNL     1       2.970  -6.083   4.648  0.00  0.00    +0.387 N 
ATOM     10  H   UNL     1       2.943  -6.313   3.647  0.00  0.00    -0.081 HD
BRANCH   7  11
ATOM     11  C   UNL     1      -0.134  -9.423   6.560  0.00  0.00    +0.189 A 
ATOM     12  C   UNL     1      -0.747 -10.262   7.446  0.00  0.00    +0.054 A 
ATOM     13  C   UNL     1      -2.087  -9.854   7.529  0.00  0.00    +0.042 A 
ATOM     14  C   UNL     1      -2.232  -8.796   6.699  0.00  0.00    +0.196 A 
ATOM     15  O   UNL     1      -1.052  -8.537   6.121  0.00  0.00    -0.458 OA
ENDBRANCH   7  11
ENDBRANCH   1   9
BRANCH   1  16
ATOM     16  C   UNL     1       2.861  -3.772   3.916  0.00  0.00    +0.222 C 
ATOM     17  O   UNL     1       1.934  -4.150   3.225  0.00  0.00    -0.276 OA
BRANCH  16  26
ATOM     18  C   UNL     1      -0.605   2.362  -0.750  0.00  0.00    +0.008 C 
ATOM     19  C   UNL     1       0.135   1.788   0.460  0.00  0.00    -0.009 C 
ATOM     20  C   UNL     1       1.590   2.267   0.448  0.00  0.00    +0.010 C 
ATOM     21  C   UNL     1       2.272   1.898   1.765  0.00  0.00    +0.054 C 
ATOM     22  C   UNL     1       2.071   0.408   2.025  0.00  0.00    +0.028 A 
ATOM     23  C   UNL     1       1.105  -0.271   1.389  0.00  0.00    +0.012 A 
ATOM     24  S   UNL     1       1.271  -1.923   2.010  0.00  0.00    -0.057 S 
ATOM     25  C   UNL     1       2.608  -1.639   3.080  0.00  0.00    +0.163 A 
ATOM     26  N   UNL     1       3.242  -2.502   3.877  0.00  0.00    -0.158 NA
ATOM     27  N   UNL     1       2.844  -0.311   2.899  0.00  0.00    -0.339 N 
ATOM     28  H   UNL     1       3.558   0.126   3.389  0.00  0.00    +0.167 HD
ATOM     29  C   UNL     1       0.122   0.253   0.392  0.00  0.00    +0.047 C 
ENDBRANCH  16  26
ENDBRANCH   1  16
TORSDOF 4
