REMARK  Name = ZINC40000621
REMARK  5 active torsions:
REMARK  status: ('A' for Active; 'I' for Inactive)
REMARK    1  A    between atoms: C_1  and  C_2
REMARK    2  A    between atoms: C_2  and  C_3
REMARK    3  A    between atoms: N_12  and  C_13
REMARK    4  A    between atoms: C_13  and  C_14
REMARK    5  A    between atoms: C_19  and  N_22
REMARK                            x       y       z     vdW  Elec       q    Type
REMARK                         _______ _______ _______ _____ _____    ______ ____
ROOT
ATOM      1  C   UNL     1       0.333  -3.185   0.767  0.00  0.00    +0.233 C 
ATOM      2  O   UNL     1      -0.786  -2.721   0.712  0.00  0.00    -0.274 OA
ATOM      3  N   UNL     1       0.677  -3.994   1.788  0.00  0.00    -0.300 N 
ATOM      4  C   UNL     1       2.031  -4.559   1.872  0.00  0.00    +0.110 C 
ATOM      5  C   UNL     1       1.923  -6.081   2.011  0.00  0.00    +0.044 C 
ATOM      6  C   UNL     1       1.027  -6.417   3.205  0.00  0.00    +0.095 C 
ATOM      7  C   UNL     1      -0.376  -5.853   2.967  0.00  0.00    +0.044 C 
ATOM      8  C   UNL     1      -0.292  -4.324   2.842  0.00  0.00    +0.110 C 
ENDROOT
BRANCH   6   9
ATOM      9  N   UNL     1       0.948  -7.872   3.361  0.00  0.00    -0.289 N 
ATOM     10  C   UNL     1       1.338  -8.593   4.487  0.00  0.00    +0.070 A 
ATOM     11  C   UNL     1       1.875  -8.228   5.712  0.00  0.00    +0.028 A 
ATOM     12  C   UNL     1       2.165  -9.197   6.652  0.00  0.00    +0.002 A 
ATOM     13  C   UNL     1       1.922 -10.532   6.377  0.00  0.00    +0.002 A 
ATOM     14  C   UNL     1       1.387 -10.905   5.159  0.00  0.00    +0.028 A 
ATOM     15  C   UNL     1       1.092  -9.939   4.209  0.00  0.00    +0.067 A 
ATOM     16  N   UNL     1       0.560  -9.994   2.923  0.00  0.00    -0.306 N 
ATOM     17  H   UNL     1       0.289 -10.799   2.455  0.00  0.00    +0.170 HD
ATOM     18  C   UNL     1       0.480  -8.739   2.443  0.00  0.00    +0.328 A 
ATOM     19  O   UNL     1       0.054  -8.434   1.345  0.00  0.00    -0.247 OA
ENDBRANCH   6   9
BRANCH   1  20
ATOM     20  C   UNL     1       1.338  -2.856  -0.306  0.00  0.00    +0.202 C 
BRANCH  20  29
ATOM     21  C   UNL     1       0.718  -0.497  -1.257  0.00  0.00    +0.159 C 
ATOM     22  N   UNL     1      -0.012  -0.070  -2.456  0.00  0.00    -0.324 N 
ATOM     23  C   UNL     1      -0.404  -1.228  -3.142  0.00  0.00    +0.050 A 
ATOM     24  C   UNL     1      -1.115  -1.378  -4.326  0.00  0.00    +0.025 A 
ATOM     25  C   UNL     1      -1.387  -2.641  -4.816  0.00  0.00    +0.002 A 
ATOM     26  C   UNL     1      -0.953  -3.760  -4.131  0.00  0.00    +0.002 A 
ATOM     27  C   UNL     1      -0.245  -3.621  -2.953  0.00  0.00    +0.025 A 
ATOM     28  C   UNL     1       0.033  -2.355  -2.451  0.00  0.00    +0.053 A 
ATOM     29  N   UNL     1       0.724  -1.965  -1.294  0.00  0.00    -0.301 N 
ATOM     30  H   UNL     1      -0.192   0.845  -2.724  0.00  0.00    +0.148 HD
BRANCH  21  32
ATOM     31  C   UNL     1      -0.019   1.526   0.010  0.00  0.00    +0.007 C 
ATOM     32  C   UNL     1       0.002  -0.004   0.002  0.00  0.00    +0.039 C 
ENDBRANCH  21  32
ENDBRANCH  20  29
ENDBRANCH   1  20
TORSDOF 4
