REMARK  Name = ZINC14985714
REMARK  11 active torsions:
REMARK  status: ('A' for Active; 'I' for Inactive)
REMARK    1  A    between atoms: C_1  and  C_2
REMARK    2  A    between atoms: C_6  and  C_24
REMARK    3  A    between atoms: C_16  and  C_19
REMARK    4  A    between atoms: N_26  and  C_27
REMARK    5  A    between atoms: C_27  and  C_28
REMARK    6  A    between atoms: C_28  and  C_29
REMARK    7  A    between atoms: C_28  and  C_30
REMARK    8  A    between atoms: C_28  and  C_31
REMARK    9  A    between atoms: C_31  and  N_64
REMARK   10  A    between atoms: C_32  and  N_64
REMARK   11  A    between atoms: C_33  and  N_64
REMARK                            x       y       z     vdW  Elec       q    Type
REMARK                         _______ _______ _______ _____ _____    ______ ____
ROOT
ATOM      1  C   UNL     1      -1.854   2.223  -0.918  0.00  0.00    +0.064 C 
ATOM      2  C   UNL     1      -0.473   2.086  -0.332  0.00  0.00    +0.025 A 
ATOM      3  C   UNL     1       0.583   1.999  -1.164  0.00  0.00    +0.073 A 
ATOM      4  C   UNL     1       1.883   1.856  -0.620  0.00  0.00    +0.194 A 
ATOM      5  O   UNL     1       2.870   1.833  -1.339  0.00  0.00    -0.287 OA
ATOM      6  C   UNL     1       2.004   1.739   0.840  0.00  0.00    +0.103 A 
ATOM      7  C   UNL     1       0.854   1.818   1.605  0.00  0.00    +0.041 A 
ATOM      8  N   UNL     1      -0.331   2.054   1.023  0.00  0.00    -0.315 N 
ATOM      9  C   UNL     1      -1.468   2.293   1.814  0.00  0.00    +0.060 A 
ATOM     10  C   UNL     1      -2.636   1.580   1.592  0.00  0.00    +0.027 A 
ATOM     11  C   UNL     1      -3.748   1.825   2.378  0.00  0.00    +0.002 A 
ATOM     12  C   UNL     1      -3.700   2.775   3.381  0.00  0.00    +0.001 A 
ATOM     13  C   UNL     1      -2.540   3.495   3.605  0.00  0.00    +0.017 A 
ATOM     14  C   UNL     1      -1.422   3.251   2.822  0.00  0.00    +0.032 A 
ATOM     15  S   UNL     1       0.072   4.151   3.086  0.00  0.00    -0.115 S 
ATOM     16  C   UNL     1       1.172   2.906   3.838  0.00  0.00    +0.088 C 
ATOM     17  C   UNL     1       0.953   1.585   3.086  0.00  0.00    +0.074 C 
ENDROOT
BRANCH  16  18
ATOM     18  C   UNL     1       2.608   3.342   3.701  0.00  0.00    -0.027 A 
ATOM     19  C   UNL     1       2.982   4.223   2.704  0.00  0.00    +0.012 A 
ATOM     20  C   UNL     1       4.282   4.594   2.608  0.00  0.00    +0.045 A 
ATOM     21  S   UNL     1       5.025   3.688   3.954  0.00  0.00    -0.105 S 
ATOM     22  C   UNL     1       3.552   2.879   4.557  0.00  0.00    +0.050 A 
ENDBRANCH  16  18
BRANCH   6  23
ATOM     23  C   UNL     1       3.318   1.541   1.474  0.00  0.00    +0.249 C 
ATOM     24  O   UNL     1       4.178   2.394   1.370  0.00  0.00    -0.270 OA
ATOM     25  N   UNL     1       3.568   0.414   2.169  0.00  0.00    -0.311 N 
ATOM     26  H   UNL     1       2.910  -0.298   2.192  0.00  0.00    +0.149 HD
BRANCH  25  27
ATOM     27  C   UNL     1       4.835   0.264   2.891  0.00  0.00    +0.109 C 
BRANCH  27  28
ATOM     28  C   UNL     1       4.820  -1.047   3.680  0.00  0.00    -0.034 C 
ATOM     29  C   UNL     1       3.596  -1.075   4.599  0.00  0.00    +0.010 C 
ATOM     30  C   UNL     1       4.755  -2.227   2.709  0.00  0.00    +0.010 C 
BRANCH  28  31
ATOM     31  C   UNL     1       6.092  -1.149   4.524  0.00  0.00    -0.072 C 
BRANCH  31  34
ATOM     32  C   UNL     1       8.370  -0.332   4.611  0.00  0.00    -0.097 C 
ATOM     33  C   UNL     1       7.634  -1.669   2.731  0.00  0.00    -0.097 C 
ATOM     34  N   UNL     1       7.231  -0.651   3.724  0.00  0.00    +0.376 N 
ATOM     35  H   UNL     1       6.945   0.202   3.229  0.00  0.00    -0.083 HD
ENDBRANCH  31  34
ENDBRANCH  28  31
ENDBRANCH  27  28
ENDBRANCH  25  27
ENDBRANCH   6  23
TORSDOF 6
