REMARK  Name = ZINC63273814
REMARK  11 active torsions:
REMARK  status: ('A' for Active; 'I' for Inactive)
REMARK    1  A    between atoms: C_1  and  C_2
REMARK    2  A    between atoms: C_5  and  N_8
REMARK    3  A    between atoms: C_12  and  C_15
REMARK    4  A    between atoms: N_17  and  C_18
REMARK    5  A    between atoms: C_18  and  C_20
REMARK    6  A    between atoms: C_18  and  C_30
REMARK    7  A    between atoms: C_20  and  C_21
REMARK    8  A    between atoms: C_30  and  O_32
REMARK    9  A    between atoms: O_32  and  C_33
REMARK   10  A    between atoms: C_37  and  C_39
REMARK   11  A    between atoms: C_37  and  C_40
REMARK                            x       y       z     vdW  Elec       q    Type
REMARK                         _______ _______ _______ _____ _____    ______ ____
ROOT
ATOM      1  N   UNL     1      -0.006  -4.170  -0.019  0.00  0.00    -0.280 N 
ATOM      2  C   UNL     1       0.120  -4.828   1.153  0.00  0.00    +0.038 A 
ATOM      3  C   UNL     1       0.166  -6.212   1.180  0.00  0.00    +0.038 A 
ATOM      4  C   UNL     1       0.094  -6.957  -0.017  0.00  0.00    +0.031 A 
ATOM      5  C   UNL     1      -0.032  -6.281  -1.222  0.00  0.00    +0.102 A 
ATOM      6  C   UNL     1      -0.090  -4.818  -1.192  0.00  0.00    +0.268 A 
ATOM      7  O   UNL     1      -0.210  -4.190  -2.229  0.00  0.00    -0.266 OA
ATOM      8  C   UNL     1       0.283  -6.928   2.461  0.00  0.00    +0.165 C 
ATOM      9  O   UNL     1       0.116  -8.128   2.525  0.00  0.00    -0.292 OA
ATOM     10  C   UNL     1       0.620  -6.120   3.696  0.00  0.00    +0.086 C 
ATOM     11  C   UNL     1      -0.210  -4.830   3.636  0.00  0.00    -0.023 C 
ATOM     12  C   UNL     1       0.215  -4.015   2.419  0.00  0.00    +0.061 C 
ATOM     13  C   UNL     1      -1.694  -5.184   3.522  0.00  0.00    +0.011 C 
ATOM     14  C   UNL     1       0.025  -4.012   4.907  0.00  0.00    +0.011 C 
ENDROOT
BRANCH   1  19
ATOM     15  C   UNL     1      -0.210   1.501   0.018  0.00  0.00    +0.044 C 
ATOM     16  C   UNL     1      -0.156  -0.005   0.009  0.00  0.00    -0.050 A 
ATOM     17  C   UNL     1      -1.329  -0.738  -0.005  0.00  0.00    +0.005 A 
ATOM     18  C   UNL     1      -1.283  -2.118  -0.015  0.00  0.00    +0.026 A 
ATOM     19  C   UNL     1      -0.057  -2.770  -0.010  0.00  0.00    +0.050 A 
ATOM     20  C   UNL     1       1.119  -2.032   0.004  0.00  0.00    +0.026 A 
ATOM     21  C   UNL     1       1.066  -0.652   0.008  0.00  0.00    +0.005 A 
ENDBRANCH   1  19
BRANCH   5  22
ATOM     22  C   UNL     1      -0.111  -7.014  -2.496  0.00  0.00    +0.250 C 
ATOM     23  O   UNL     1      -0.170  -8.229  -2.495  0.00  0.00    -0.270 OA
ATOM     24  N   UNL     1      -0.117  -6.340  -3.663  0.00  0.00    -0.298 N 
ATOM     25  H   UNL     1       0.014  -5.379  -3.668  0.00  0.00    +0.150 HD
BRANCH  24  26
ATOM     26  C   UNL     1      -0.323  -7.058  -4.923  0.00  0.00    +0.186 C 
BRANCH  26  27
ATOM     27  C   UNL     1      -1.800  -7.219  -5.174  0.00  0.00    +0.328 C 
ATOM     28  O   UNL     1      -2.599  -6.779  -4.382  0.00  0.00    -0.249 OA
BRANCH  27  29
ATOM     29  O   UNL     1      -2.228  -7.851  -6.278  0.00  0.00    -0.467 OA
ATOM     30  C   UNL     1      -3.642  -7.968  -6.452  0.00  0.00    +0.280 C 
ENDBRANCH  27  29
ENDBRANCH  26  27
BRANCH  26  31
ATOM     31  C   UNL     1       0.306  -6.265  -6.070  0.00  0.00    +0.067 C 
BRANCH  31  32
ATOM     32  C   UNL     1       1.800  -6.210  -5.882  0.00  0.00    -0.039 C 
ATOM     33  C   UNL     1       2.720  -7.033  -6.434  0.00  0.00    -0.001 A 
ATOM     34  C   UNL     1       2.610  -8.184  -7.338  0.00  0.00    +0.010 A 
ATOM     35  C   UNL     1       3.736  -8.824  -7.726  0.00  0.00    +0.001 A 
ATOM     36  C   UNL     1       5.004  -8.417  -7.287  0.00  0.00    +0.002 A 
ATOM     37  C   UNL     1       5.186  -7.369  -6.456  0.00  0.00    +0.026 A 
ATOM     38  C   UNL     1       4.070  -6.623  -5.985  0.00  0.00    +0.043 A 
ATOM     39  N   UNL     1       3.988  -5.586  -5.187  0.00  0.00    -0.380 N 
ATOM     40  C   UNL     1       2.575  -5.217  -5.044  0.00  0.00    +0.144 C 
ATOM     41  H   UNL     1       4.736  -5.136  -4.765  0.00  0.00    +0.160 HD
ENDBRANCH  31  32
ENDBRANCH  26  31
ENDBRANCH  24  26
ENDBRANCH   5  22
TORSDOF 7
