REMARK  Name = ZINC64392148
REMARK  4 active torsions:
REMARK  status: ('A' for Active; 'I' for Inactive)
REMARK    1  A    between atoms: C_5  and  C_7
REMARK    2  A    between atoms: C_9  and  C_13
REMARK    3  A    between atoms: N_23  and  C_26
REMARK    4  A    between atoms: C_26  and  C_27
REMARK                            x       y       z     vdW  Elec       q    Type
REMARK                         _______ _______ _______ _____ _____    ______ ____
ROOT
ATOM      1  C   UNL     1       0.219  -5.022   1.301  0.00  0.00    +0.006 A 
ATOM      2  C   UNL     1       0.147  -4.305   2.485  0.00  0.00    +0.009 A 
ATOM      3  C   UNL     1      -0.211  -4.932   3.660  0.00  0.00    +0.016 A 
ATOM      4  C   UNL     1      -0.501  -6.295   3.650  0.00  0.00    +0.063 A 
ATOM      5  C   UNL     1      -0.427  -7.020   2.448  0.00  0.00    +0.056 A 
ATOM      6  C   UNL     1      -0.070  -6.371   1.276  0.00  0.00    +0.034 A 
ATOM      7  N   UNL     1      -0.721  -8.376   2.468  0.00  0.00    -0.307 N 
ATOM      8  H   UNL     1      -0.673  -8.890   1.647  0.00  0.00    +0.170 HD
ATOM      9  C   UNL     1      -1.070  -8.985   3.615  0.00  0.00    +0.330 A 
ATOM     10  O   UNL     1      -1.319 -10.174   3.589  0.00  0.00    -0.246 OA
ATOM     11  N   UNL     1      -1.154  -8.335   4.786  0.00  0.00    -0.256 N 
ATOM     12  C   UNL     1      -0.889  -7.014   4.876  0.00  0.00    +0.265 A 
ATOM     13  O   UNL     1      -0.968  -6.433   5.941  0.00  0.00    -0.267 OA
ENDROOT
BRANCH   1  16
ATOM     14  C   UNL     1       1.248  -2.163  -0.023  0.00  0.00    +0.135 C 
ATOM     15  N   UNL     1       0.194  -2.913   0.071  0.00  0.00    -0.339 N 
ATOM     16  C   UNL     1       0.612  -4.319   0.026  0.00  0.00    +0.274 C 
ATOM     17  O   UNL     1       2.042  -4.289  -0.106  0.00  0.00    -0.243 OA
ATOM     18  N   UNL     1       2.390  -2.914  -0.138  0.00  0.00    -0.247 N 
ATOM     19  H   UNL     1       3.290  -2.563  -0.225  0.00  0.00    +0.196 HD
ATOM     20  H   UNL     1      -0.719  -2.598   0.158  0.00  0.00    +0.164 HD
BRANCH  14  25
ATOM     21  C   UNL     1       0.612   1.380   1.054  0.00  0.00    +0.001 A 
ATOM     22  C   UNL     1       1.169   2.087   0.003  0.00  0.00    +0.001 A 
ATOM     23  C   UNL     1       1.752   1.417  -1.056  0.00  0.00    +0.021 A 
ATOM     24  C   UNL     1       1.781   0.035  -1.071  0.00  0.00    +0.052 A 
ATOM     25  C   UNL     1       1.221  -0.682  -0.014  0.00  0.00    +0.035 A 
ATOM     26  C   UNL     1       0.635   0.001   1.052  0.00  0.00    +0.013 A 
ATOM     27 CL   UNL     1       2.513  -0.805  -2.402  0.00  0.00    -0.083 Cl
ENDBRANCH  14  25
ENDBRANCH   1  16
BRANCH  11  28
ATOM     28  C   UNL     1      -1.542  -9.074   5.990  0.00  0.00    +0.165 C 
BRANCH  28  29
ATOM     29  C   UNL     1      -0.309  -9.619   6.664  0.00  0.00    -0.024 A 
ATOM     30  C   UNL     1       0.166 -10.872   6.322  0.00  0.00    +0.009 A 
ATOM     31  C   UNL     1       1.297 -11.376   6.937  0.00  0.00    +0.050 A 
ATOM     32  C   UNL     1       1.956 -10.627   7.898  0.00  0.00    +0.166 A 
ATOM     33  C   UNL     1       1.477  -9.366   8.243  0.00  0.00    +0.167 A 
ATOM     34  C   UNL     1       0.346  -8.864   7.618  0.00  0.00    +0.055 A 
ATOM     35  O   UNL     1       2.292  -8.836   9.202  0.00  0.00    -0.453 OA
ATOM     36  C   UNL     1       3.034  -9.950   9.733  0.00  0.00    +0.466 C 
ATOM     37  O   UNL     1       3.071 -10.888   8.642  0.00  0.00    -0.453 OA
ENDBRANCH  28  29
ENDBRANCH  11  28
TORSDOF 4
