REMARK  Name = ZINC39971998
REMARK  12 active torsions:
REMARK  status: ('A' for Active; 'I' for Inactive)
REMARK    1  A    between atoms: C_1  and  C_2
REMARK    2  A    between atoms: C_2  and  C_3
REMARK    3  A    between atoms: C_10  and  N_14
REMARK    4  A    between atoms: C_11  and  C_12
REMARK    5  A    between atoms: C_15  and  C_17
REMARK    6  A    between atoms: C_17  and  N_18
REMARK    7  A    between atoms: N_21  and  S_24
REMARK    8  A    between atoms: S_24  and  C_27
REMARK    9  A    between atoms: C_30  and  C_33
REMARK   10  A    between atoms: C_33  and  C_34
REMARK   11  A    between atoms: C_33  and  C_35
REMARK   12  A    between atoms: C_33  and  C_36
REMARK                            x       y       z     vdW  Elec       q    Type
REMARK                         _______ _______ _______ _____ _____    ______ ____
ROOT
ATOM      1  N   UNL     1      -9.378  -0.823  -4.987  0.00  0.00    -0.291 NA
ATOM      2  C   UNL     1      -8.509  -0.956  -6.164  0.00  0.00    +0.102 C 
ATOM      3  C   UNL     1      -8.817   0.174  -7.152  0.00  0.00    +0.125 C 
ATOM      4  N   UNL     1     -10.260   0.163  -7.439  0.00  0.00    -0.174 NA
ATOM      5  C   UNL     1     -11.195   0.156  -6.304  0.00  0.00    +0.125 C 
ATOM      6  C   UNL     1     -10.794  -0.973  -5.349  0.00  0.00    +0.102 C 
ENDROOT
BRANCH   4   7
ATOM      7  S   UNL     1     -10.816   0.160  -8.999  0.00  0.00    +0.061 S 
ATOM      8  O   UNL     1     -12.130   0.701  -8.963  0.00  0.00    -0.153 OA
ATOM      9  O   UNL     1      -9.784   0.719  -9.800  0.00  0.00    -0.153 OA
BRANCH   7  10
ATOM     10  C   UNL     1     -10.978  -1.525  -9.491  0.00  0.00    +0.105 A 
ATOM     11  C   UNL     1      -9.912  -2.178 -10.080  0.00  0.00    +0.029 A 
ATOM     12  C   UNL     1     -10.039  -3.500 -10.466  0.00  0.00    +0.006 A 
ATOM     13  C   UNL     1     -11.232  -4.168 -10.261  0.00  0.00    -0.042 A 
ATOM     14  C   UNL     1     -12.298  -3.514  -9.671  0.00  0.00    +0.006 A 
ATOM     15  C   UNL     1     -12.169  -2.194  -9.281  0.00  0.00    +0.029 A 
BRANCH  13  16
ATOM     16  C   UNL     1     -11.371  -5.608 -10.682  0.00  0.00    -0.013 C 
ATOM     17  C   UNL     1     -10.339  -6.458  -9.939  0.00  0.00    +0.015 C 
ATOM     18  C   UNL     1     -12.779  -6.104 -10.345  0.00  0.00    +0.015 C 
ATOM     19  C   UNL     1     -11.137  -5.723 -12.190  0.00  0.00    +0.015 C 
ENDBRANCH  13  16
ENDBRANCH   7  10
ENDBRANCH   4   7
BRANCH   1  20
ATOM     20  C   UNL     1      -8.998  -1.782  -3.941  0.00  0.00    +0.180 C 
BRANCH  20  22
ATOM     21  N   UNL     1      -7.066  -2.191  -2.451  0.00  0.00    -0.278 N 
ATOM     22  C   UNL     1      -7.625  -1.441  -3.422  0.00  0.00    +0.232 C 
ATOM     23  O   UNL     1      -7.022  -0.493  -3.879  0.00  0.00    -0.274 OA
ATOM     24  H   UNL     1      -7.548  -2.949  -2.086  0.00  0.00    +0.155 HD
BRANCH  21  31
ATOM     25  C   UNL     1      -1.433  -0.534   0.013  0.00  0.00    -0.006 C 
ATOM     26  C   UNL     1      -1.416  -2.061   0.124  0.00  0.00    +0.008 C 
ATOM     27  C   UNL     1      -2.832  -2.581   0.384  0.00  0.00    +0.037 C 
ATOM     28  C   UNL     1      -3.765  -1.998  -0.667  0.00  0.00    -0.018 A 
ATOM     29  C   UNL     1      -3.416  -0.911  -1.391  0.00  0.00    -0.004 A 
ATOM     30  S   UNL     1      -4.798  -0.621  -2.457  0.00  0.00    -0.077 S 
ATOM     31  C   UNL     1      -5.801  -1.877  -1.973  0.00  0.00    +0.090 A 
ATOM     32  C   UNL     1      -5.078  -2.528  -0.988  0.00  0.00    +0.084 A 
ATOM     33  C   UNL     1      -2.138  -0.136  -1.292  0.00  0.00    +0.046 C 
BRANCH  25  35
ATOM     34  C   UNL     1      -0.019   1.526   0.010  0.00  0.00    +0.004 C 
ATOM     35  C   UNL     1       0.002  -0.004   0.002  0.00  0.00    +0.000 C 
ENDBRANCH  25  35
BRANCH  32  36
ATOM     36  C   UNL     1      -5.603  -3.678  -0.314  0.00  0.00    +0.102 C 
ATOM     37  N   UNL     1      -6.019  -4.590   0.221  0.00  0.00    -0.191 NA
ENDBRANCH  32  36
ENDBRANCH  21  31
ENDBRANCH  20  22
ENDBRANCH   1  20
TORSDOF 8
