REMARK  Name = ZINC01376204
REMARK  10 active torsions:
REMARK  status: ('A' for Active; 'I' for Inactive)
REMARK    1  A    between atoms: C_1  and  C_2
REMARK    2  A    between atoms: C_2  and  C_3
REMARK    3  A    between atoms: C_6  and  N_9
REMARK    4  A    between atoms: N_9  and  C_10
REMARK    5  A    between atoms: C_10  and  C_12
REMARK    6  A    between atoms: C_10  and  C_18
REMARK    7  A    between atoms: N_20  and  C_21
REMARK    8  A    between atoms: C_21  and  C_22
REMARK    9  A    between atoms: C_27  and  C_29
REMARK   10  A    between atoms: C_29  and  N_30
REMARK                            x       y       z     vdW  Elec       q    Type
REMARK                         _______ _______ _______ _____ _____    ______ ____
ROOT
ATOM      1  N   UNL     1      -2.889   3.073   4.455  0.00  0.00    -0.254 N 
ATOM      2  C   UNL     1      -3.896   2.408   5.054  0.00  0.00    +0.242 C 
ATOM      3  O   UNL     1      -4.279   2.748   6.154  0.00  0.00    -0.273 OA
ENDROOT
BRANCH   1   7
ATOM      4  C   UNL     1      -1.781   2.107   0.557  0.00  0.00    -0.048 A 
ATOM      5  C   UNL     1      -1.524   1.221   1.587  0.00  0.00    +0.005 A 
ATOM      6  C   UNL     1      -1.886   1.540   2.881  0.00  0.00    +0.024 A 
ATOM      7  C   UNL     1      -2.517   2.749   3.146  0.00  0.00    +0.037 A 
ATOM      8  C   UNL     1      -2.778   3.635   2.109  0.00  0.00    +0.024 A 
ATOM      9  C   UNL     1      -2.409   3.311   0.818  0.00  0.00    +0.005 A 
BRANCH   4  11
ATOM     10  C   UNL     1       0.039   2.264  -1.120  0.00  0.00    +0.009 C 
ATOM     11  C   UNL     1      -1.380   1.758  -0.853  0.00  0.00    +0.032 C 
ENDBRANCH   4  11
ENDBRANCH   1   7
BRANCH   1  12
ATOM     12  C   UNL     1      -2.183   4.136   5.175  0.00  0.00    +0.197 C 
BRANCH  12  13
ATOM     13  C   UNL     1      -1.205   4.808   4.246  0.00  0.00    -0.015 A 
ATOM     14  C   UNL     1      -0.213   4.077   3.611  0.00  0.00    +0.025 A 
ATOM     15  C   UNL     1       0.663   4.727   2.763  0.00  0.00    +0.111 A 
ATOM     16  N   UNL     1       0.569   6.027   2.562  0.00  0.00    -0.263 NA
ATOM     17  C   UNL     1      -0.358   6.754   3.153  0.00  0.00    +0.111 A 
ATOM     18  C   UNL     1      -1.273   6.173   4.011  0.00  0.00    +0.025 A 
ENDBRANCH  12  13
BRANCH  12  19
ATOM     19  C   UNL     1      -1.440   3.544   6.344  0.00  0.00    +0.239 C 
ATOM     20  O   UNL     1      -1.494   2.351   6.556  0.00  0.00    -0.273 OA
ATOM     21  N   UNL     1      -0.715   4.340   7.155  0.00  0.00    -0.306 N 
ATOM     22  H   UNL     1      -0.672   5.294   6.986  0.00  0.00    +0.149 HD
BRANCH  21  23
ATOM     23  C   UNL     1       0.008   3.763   8.292  0.00  0.00    +0.178 C 
BRANCH  23  24
ATOM     24  C   UNL     1       0.734   4.857   9.032  0.00  0.00    +0.122 A 
ATOM     25  C   UNL     1       0.237   5.580  10.052  0.00  0.00    +0.046 A 
ATOM     26  C   UNL     1       1.250   6.487  10.442  0.00  0.00    +0.041 A 
ATOM     27  C   UNL     1       2.304   6.264   9.637  0.00  0.00    +0.195 A 
ATOM     28  O   UNL     1       1.988   5.272   8.789  0.00  0.00    -0.466 OA
ENDBRANCH  23  24
ENDBRANCH  21  23
ENDBRANCH  12  19
ENDBRANCH   1  12
BRANCH   2  29
ATOM     29  C   UNL     1      -4.547   1.240   4.359  0.00  0.00    +0.242 C 
BRANCH  29  30
ATOM     30  N   UNL     1      -5.686   0.772   5.151  0.00  0.00    -0.235 N 
ATOM     31  C   UNL     1      -6.988   1.202   5.053  0.00  0.00    +0.090 A 
ATOM     32  C   UNL     1      -7.640   2.136   4.256  0.00  0.00    +0.029 A 
ATOM     33  C   UNL     1      -8.983   2.338   4.405  0.00  0.00    +0.002 A 
ATOM     34  C   UNL     1      -9.706   1.618   5.348  0.00  0.00    +0.002 A 
ATOM     35  C   UNL     1      -9.090   0.696   6.143  0.00  0.00    +0.032 A 
ATOM     36  C   UNL     1      -7.713   0.470   6.010  0.00  0.00    +0.113 A 
ATOM     37  N   UNL     1      -6.850  -0.354   6.635  0.00  0.00    -0.129 NA
ATOM     38  N   UNL     1      -5.665  -0.207   6.156  0.00  0.00    -0.064 NA
ENDBRANCH  29  30
ENDBRANCH   2  29
TORSDOF 9
