REMARK  Name = ZINC29483350
REMARK  5 active torsions:
REMARK  status: ('A' for Active; 'I' for Inactive)
REMARK    1  A    between atoms: C_1  and  N_2
REMARK    2  A    between atoms: N_2  and  C_3
REMARK    3  A    between atoms: N_2  and  C_23
REMARK    4  A    between atoms: C_3  and  C_4
REMARK    5  A    between atoms: N_6  and  C_7
REMARK                            x       y       z     vdW  Elec       q    Type
REMARK                         _______ _______ _______ _____ _____    ______ ____
ROOT
ATOM      1  C   UNL     1       2.313  -0.292   0.410  0.00  0.00    +0.201 C 
ATOM      2  O   UNL     1       1.306  -0.964   0.328  0.00  0.00    -0.278 OA
ATOM      3  N   UNL     1       2.222   1.048   0.519  0.00  0.00    -0.286 N 
ATOM      4  H   UNL     1       3.134   1.663   0.516  0.00  0.00    +0.155 HD
ENDROOT
BRANCH   3   5
ATOM      5  C   UNL     1       0.975   1.653   0.635  0.00  0.00    +0.045 A 
ATOM      6  C   UNL     1      -0.103   0.943   1.164  0.00  0.00    +0.024 A 
ATOM      7  C   UNL     1      -1.342   1.538   1.275  0.00  0.00    +0.003 A 
ATOM      8  C   UNL     1      -1.533   2.852   0.874  0.00  0.00    +0.012 A 
ATOM      9  C   UNL     1      -0.473   3.578   0.346  0.00  0.00    +0.035 A 
ATOM     10  C   UNL     1       0.795   2.977   0.223  0.00  0.00    +0.054 A 
ATOM     11  C   UNL     1       1.919   3.749  -0.337  0.00  0.00    +0.196 C 
ATOM     12  O   UNL     1       2.941   3.187  -0.679  0.00  0.00    -0.287 OA
ATOM     13  C   UNL     1       1.790   5.217  -0.477  0.00  0.00    +0.033 A 
ATOM     14  C   UNL     1       2.908   6.005  -0.726  0.00  0.00    +0.012 A 
ATOM     15  C   UNL     1       2.768   7.377  -0.853  0.00  0.00    +0.001 A 
ATOM     16  C   UNL     1       1.524   7.969  -0.732  0.00  0.00    +0.001 A 
ATOM     17  C   UNL     1       0.401   7.199  -0.484  0.00  0.00    +0.012 A 
ATOM     18  C   UNL     1       0.524   5.819  -0.355  0.00  0.00    +0.033 A 
ATOM     19  C   UNL     1      -0.664   4.979  -0.089  0.00  0.00    +0.195 C 
ATOM     20  O   UNL     1      -1.782   5.434  -0.226  0.00  0.00    -0.287 OA
ENDBRANCH   3   5
BRANCH   1  21
ATOM     21  C   UNL     1       3.665  -0.957   0.391  0.00  0.00    +0.019 C 
BRANCH  21  23
ATOM     22  C   UNL     1       3.147  -2.783  -1.112  0.00  0.00    -0.095 C 
ATOM     23  N   UNL     1       3.495  -2.410   0.266  0.00  0.00    +0.388 N 
ATOM     24  H   UNL     1       2.661  -2.711   0.918  0.00  0.00    -0.081 HD
BRANCH  23  25
ATOM     25  C   UNL     1       4.698  -3.122   0.716  0.00  0.00    -0.037 C 
ATOM     26  C   UNL     1       5.954  -2.535   0.037  0.00  0.00    -0.006 C 
ATOM     27  C   UNL     1       7.021  -2.665   1.144  0.00  0.00    +0.034 C 
ATOM     28  C   UNL     1       6.247  -2.643   2.445  0.00  0.00    -0.046 A 
ATOM     29  C   UNL     1       4.912  -2.906   2.199  0.00  0.00    -0.058 A 
ATOM     30  C   UNL     1       4.011  -2.937   3.250  0.00  0.00    +0.002 A 
ATOM     31  C   UNL     1       4.442  -2.705   4.542  0.00  0.00    +0.000 A 
ATOM     32  C   UNL     1       5.776  -2.443   4.788  0.00  0.00    +0.000 A 
ATOM     33  C   UNL     1       6.677  -2.412   3.741  0.00  0.00    +0.004 A 
ENDBRANCH  23  25
ENDBRANCH  21  23
ENDBRANCH   1  21
TORSDOF 4
