REMARK  Name = ZINC33937083
REMARK  12 active torsions:
REMARK  status: ('A' for Active; 'I' for Inactive)
REMARK    1  A    between atoms: C_1  and  C_2
REMARK    2  A    between atoms: C_2  and  C_3
REMARK    3  A    between atoms: C_3  and  C_5
REMARK    4  A    between atoms: C_3  and  N_17
REMARK    5  A    between atoms: N_9  and  C_10
REMARK    6  A    between atoms: C_10  and  C_11
REMARK    7  A    between atoms: N_17  and  C_18
REMARK    8  A    between atoms: N_17  and  C_25
REMARK    9  A    between atoms: C_18  and  C_19
REMARK   10  A    between atoms: C_25  and  C_26
REMARK   11  A    between atoms: C_30  and  C_39
REMARK   12  A    between atoms: C_32  and  C_38
REMARK                            x       y       z     vdW  Elec       q    Type
REMARK                         _______ _______ _______ _____ _____    ______ ____
ROOT
ATOM      1  N   UNL     1      -0.585   0.138  -2.934  0.00  0.00    +0.392 N 
ATOM      2  H   UNL     1      -1.485  -0.297  -2.798  0.00  0.00    -0.080 HD
ENDROOT
BRANCH   1   3
ATOM      3  C   UNL     1       0.247  -0.073  -1.741  0.00  0.00    +0.003 C 
BRANCH   3   4
ATOM      4  C   UNL     1       1.579   0.605  -1.931  0.00  0.00    +0.138 A 
ATOM      5  N   UNL     1       2.312   0.600  -3.018  0.00  0.00    -0.115 NA
ATOM      6  N   UNL     1       3.375   1.289  -2.785  0.00  0.00    -0.023 NA
ATOM      7  N   UNL     1       3.339   1.734  -1.577  0.00  0.00    -0.044 NA
ATOM      8  N   UNL     1       2.245   1.338  -1.020  0.00  0.00    -0.228 N 
BRANCH   8   9
ATOM      9  C   UNL     1       1.811   1.629   0.348  0.00  0.00    +0.178 C 
BRANCH   9  10
ATOM     10  C   UNL     1       2.464   0.636   1.312  0.00  0.00    +0.140 C 
ATOM     11  C   UNL     1       2.090   0.982   2.776  0.00  0.00    +0.035 C 
ATOM     12  C   UNL     1       2.262  -0.402   3.459  0.00  0.00    +0.031 C 
ATOM     13  C   UNL     1       1.822  -1.375   2.344  0.00  0.00    +0.160 C 
ATOM     14  O   UNL     1       1.946  -0.686   1.093  0.00  0.00    -0.375 OA
ENDBRANCH   9  10
ENDBRANCH   8   9
ENDBRANCH   3   4
BRANCH   3  16
ATOM     15  C   UNL     1      -0.883  -2.250  -1.264  0.00  0.00    +0.002 C 
ATOM     16  C   UNL     1       0.463  -1.573  -1.529  0.00  0.00    -0.011 C 
ENDBRANCH   3  16
ENDBRANCH   1   3
BRANCH   1  17
ATOM     17  C   UNL     1      -0.765   1.579  -3.157  0.00  0.00    -0.042 C 
BRANCH  17  18
ATOM     18  C   UNL     1      -1.579   2.163  -2.031  0.00  0.00    -0.064 A 
ATOM     19  C   UNL     1      -2.959   2.087  -2.065  0.00  0.00    +0.002 A 
ATOM     20  C   UNL     1      -3.706   2.623  -1.032  0.00  0.00    +0.000 A 
ATOM     21  C   UNL     1      -3.073   3.234   0.034  0.00  0.00    +0.000 A 
ATOM     22  C   UNL     1      -1.693   3.309   0.068  0.00  0.00    +0.000 A 
ATOM     23  C   UNL     1      -0.946   2.769  -0.963  0.00  0.00    +0.002 A 
ENDBRANCH  17  18
ENDBRANCH   1  17
BRANCH   1  24
ATOM     24  C   UNL     1       0.076  -0.460  -4.103  0.00  0.00    -0.036 C 
BRANCH  24  25
ATOM     25  C   UNL     1      -0.842  -0.376  -5.295  0.00  0.00    +0.001 A 
ATOM     26  C   UNL     1      -0.710   0.643  -6.179  0.00  0.00    +0.017 A 
ATOM     27  C   UNL     1      -1.616   0.695  -7.328  0.00  0.00    -0.001 A 
ATOM     28  C   UNL     1      -1.528   1.722  -8.274  0.00  0.00    +0.013 A 
ATOM     29  C   UNL     1      -2.389   1.742  -9.334  0.00  0.00    -0.050 A 
ATOM     30  C   UNL     1      -3.351   0.752  -9.481  0.00  0.00    +0.008 A 
ATOM     31  C   UNL     1      -3.457  -0.269  -8.561  0.00  0.00    -0.026 A 
ATOM     32  C   UNL     1      -2.591  -0.310  -7.474  0.00  0.00    +0.052 A 
ATOM     33  N   UNL     1      -2.673  -1.320  -6.539  0.00  0.00    -0.322 N 
ATOM     34  H   UNL     1      -3.345  -2.012  -6.641  0.00  0.00    +0.169 HD
ATOM     35  C   UNL     1      -1.832  -1.363  -5.490  0.00  0.00    +0.251 A 
ATOM     36  O   UNL     1      -1.931  -2.273  -4.686  0.00  0.00    -0.268 OA
ATOM     37  C   UNL     1      -4.507  -1.336  -8.733  0.00  0.00    +0.046 C 
ATOM     38  C   UNL     1      -2.293   2.848 -10.353  0.00  0.00    +0.044 C 
ENDBRANCH  24  25
ENDBRANCH   1  24
TORSDOF 9
