REMARK  Name = ZINC20417595
REMARK  12 active torsions:
REMARK  status: ('A' for Active; 'I' for Inactive)
REMARK    1  A    between atoms: C_1  and  C_2
REMARK    2  A    between atoms: N_6  and  C_21
REMARK    3  A    between atoms: C_10  and  C_20
REMARK    4  A    between atoms: N_11  and  C_12
REMARK    5  A    between atoms: C_12  and  C_13
REMARK    6  A    between atoms: C_21  and  C_22
REMARK    7  A    between atoms: N_24  and  C_25
REMARK    8  A    between atoms: C_25  and  C_26
REMARK    9  A    between atoms: C_26  and  C_27
REMARK   10  A    between atoms: C_27  and  N_28
REMARK   11  A    between atoms: C_29  and  C_37
REMARK   12  A    between atoms: C_34  and  C_36
REMARK                            x       y       z     vdW  Elec       q    Type
REMARK                         _______ _______ _______ _____ _____    ______ ____
ROOT
ATOM      1  C   UNL     1       2.023 -11.713   5.877  0.00  0.00    +0.064 C 
ATOM      2  C   UNL     1       2.848 -10.538   5.417  0.00  0.00    +0.026 A 
ATOM      3  C   UNL     1       2.566  -9.233   5.649  0.00  0.00    +0.028 A 
ATOM      4  C   UNL     1       1.510  -8.486   6.336  0.00  0.00    +0.143 A 
ATOM      5  N   UNL     1       1.556  -7.189   6.370  0.00  0.00    -0.176 NA
ATOM      6  N   UNL     1       2.564  -6.438   5.771  0.00  0.00    -0.220 N 
ATOM      7  C   UNL     1       3.595  -7.000   5.107  0.00  0.00    +0.277 A 
ATOM      8  O   UNL     1       4.460  -6.308   4.601  0.00  0.00    -0.265 OA
ATOM      9  C   UNL     1       3.654  -8.461   5.008  0.00  0.00    +0.070 A 
ATOM     10  C   UNL     1       4.488  -9.375   4.450  0.00  0.00    +0.029 A 
ATOM     11  N   UNL     1       4.002 -10.610   4.698  0.00  0.00    -0.342 N 
ATOM     12  C   UNL     1       5.747  -9.063   3.683  0.00  0.00    +0.064 C 
ENDROOT
BRANCH  11  13
ATOM     13  C   UNL     1       4.631 -11.856   4.254  0.00  0.00    +0.159 C 
BRANCH  13  14
ATOM     14  C   UNL     1       5.595 -12.336   5.309  0.00  0.00    +0.007 A 
ATOM     15  C   UNL     1       5.219 -13.338   6.184  0.00  0.00    +0.008 A 
ATOM     16  C   UNL     1       6.103 -13.778   7.151  0.00  0.00    +0.000 A 
ATOM     17  C   UNL     1       7.364 -13.218   7.244  0.00  0.00    +0.003 A 
ATOM     18  C   UNL     1       7.741 -12.216   6.370  0.00  0.00    +0.039 A 
ATOM     19  C   UNL     1       6.858 -11.777   5.398  0.00  0.00    +0.128 A 
ATOM     20  F   UNL     1       7.228 -10.802   4.540  0.00  0.00    -0.205 F 
ENDBRANCH  13  14
ENDBRANCH  11  13
BRANCH   6  21
ATOM     21  C   UNL     1       2.506  -4.977   5.871  0.00  0.00    +0.243 C 
BRANCH  21  22
ATOM     22  C   UNL     1       1.738  -4.424   4.698  0.00  0.00    +0.235 C 
ATOM     23  O   UNL     1       1.284  -5.175   3.862  0.00  0.00    -0.274 OA
ATOM     24  N   UNL     1       1.555  -3.094   4.579  0.00  0.00    -0.314 N 
ATOM     25  H   UNL     1       1.967  -2.412   5.338  0.00  0.00    +0.149 HD
BRANCH  24  26
ATOM     26  C   UNL     1       0.809  -2.556   3.439  0.00  0.00    +0.102 C 
BRANCH  26  27
ATOM     27  C   UNL     1       0.748  -1.031   3.544  0.00  0.00    +0.000 C 
BRANCH  27  28
ATOM     28  C   UNL     1      -0.032  -0.469   2.353  0.00  0.00    -0.077 C 
BRANCH  28  29
ATOM     29  N   UNL     1      -0.090   0.996   2.454  0.00  0.00    +0.383 N 
ATOM     30  C   UNL     1      -0.852   1.412   3.638  0.00  0.00    -0.071 C 
ATOM     31  C   UNL     1      -0.770   2.933   3.790  0.00  0.00    -0.016 C 
ATOM     32  C   UNL     1      -1.339   3.598   2.534  0.00  0.00    -0.003 C 
ATOM     33  C   UNL     1      -0.559   3.111   1.310  0.00  0.00    -0.016 C 
ATOM     34  C   UNL     1      -0.648   1.585   1.229  0.00  0.00    -0.071 C 
ATOM     35  C   UNL     1       0.147   1.091   0.018  0.00  0.00    -0.013 C 
ATOM     36  C   UNL     1      -2.315   0.995   3.475  0.00  0.00    -0.013 C 
ATOM     37  H   UNL     1       0.938   1.370   2.568  0.00  0.00    -0.081 HD
ENDBRANCH  28  29
ENDBRANCH  27  28
ENDBRANCH  26  27
ENDBRANCH  24  26
ENDBRANCH  21  22
ENDBRANCH   6  21
TORSDOF 8
