REMARK  Name = ZINC39530404
REMARK  8 active torsions:
REMARK  status: ('A' for Active; 'I' for Inactive)
REMARK    1  A    between atoms: C_4  and  O_7
REMARK    2  A    between atoms: O_7  and  S_8
REMARK    3  A    between atoms: S_8  and  C_11
REMARK    4  A    between atoms: C_13  and  C_31
REMARK    5  A    between atoms: C_16  and  N_17
REMARK    6  A    between atoms: C_21  and  C_24
REMARK    7  A    between atoms: C_29  and  O_30
REMARK    8  A    between atoms: C_36  and  O_37
REMARK                            x       y       z     vdW  Elec       q    Type
REMARK                         _______ _______ _______ _____ _____    ______ ____
ROOT
ATOM      1  C   UNL     1       3.170  -2.273   1.973  0.00  0.00    +0.150 A 
ATOM      2  C   UNL     1       2.091  -2.013   2.791  0.00  0.00    +0.041 A 
ATOM      3  C   UNL     1       1.363  -3.069   3.339  0.00  0.00    -0.012 A 
ATOM      4  C   UNL     1       1.728  -4.385   3.058  0.00  0.00    +0.010 A 
ATOM      5  C   UNL     1       2.808  -4.639   2.239  0.00  0.00    +0.026 A 
ATOM      6  C   UNL     1       3.529  -3.585   1.690  0.00  0.00    +0.058 A 
ENDROOT
BRANCH   6   7
ATOM      7  N   UNL     1       4.619  -3.845   0.857  0.00  0.00    -0.331 N 
ATOM      8  C   UNL     1       4.472  -3.833  -0.607  0.00  0.00    +0.086 C 
ATOM      9  C   UNL     1       5.073  -5.127  -1.167  0.00  0.00    -0.063 C 
ATOM     10  N   UNL     1       6.458  -5.264  -0.698  0.00  0.00    +0.386 N 
ATOM     11  C   UNL     1       6.478  -5.418   0.762  0.00  0.00    -0.020 C 
ATOM     12  C   UNL     1       5.948  -4.134   1.417  0.00  0.00    +0.094 C 
ATOM     13  H   UNL     1       6.878  -6.075  -1.126  0.00  0.00    -0.085 HD
ATOM     14  H   UNL     1       6.982  -4.442  -0.955  0.00  0.00    -0.085 HD
BRANCH  11  15
ATOM     15  C   UNL     1       7.892  -5.668   1.222  0.00  0.00    -0.018 A 
ATOM     16  C   UNL     1       8.955  -5.223   0.460  0.00  0.00    +0.005 A 
ATOM     17  C   UNL     1      10.252  -5.452   0.880  0.00  0.00    +0.000 A 
ATOM     18  C   UNL     1      10.489  -6.127   2.064  0.00  0.00    +0.004 A 
ATOM     19  C   UNL     1       9.429  -6.574   2.829  0.00  0.00    +0.045 A 
ATOM     20  C   UNL     1       8.126  -6.340   2.412  0.00  0.00    +0.118 A 
BRANCH  20  21
ATOM     21  O   UNL     1       7.082  -6.774   3.166  0.00  0.00    -0.507 OA
ATOM     22  H   UNL     1       6.785  -7.668   2.949  0.00  0.00    +0.292 HD
ENDBRANCH  20  21
ENDBRANCH  11  15
ENDBRANCH   6   7
BRANCH   3  23
ATOM     23  C   UNL     1       0.203  -2.792   4.220  0.00  0.00    +0.024 A 
ATOM     24  C   UNL     1       0.327  -1.899   5.282  0.00  0.00    +0.012 A 
ATOM     25  C   UNL     1      -0.756  -1.646   6.099  0.00  0.00    +0.001 A 
ATOM     26  C   UNL     1      -1.966  -2.275   5.867  0.00  0.00    +0.004 A 
ATOM     27  C   UNL     1      -2.101  -3.163   4.816  0.00  0.00    +0.046 A 
ATOM     28  C   UNL     1      -1.023  -3.422   3.984  0.00  0.00    +0.125 A 
BRANCH  28  29
ATOM     29  O   UNL     1      -1.156  -4.290   2.947  0.00  0.00    -0.506 OA
ATOM     30  H   UNL     1      -0.953  -5.208   3.174  0.00  0.00    +0.292 HD
ENDBRANCH  28  29
ENDBRANCH   3  23
BRANCH   1  31
ATOM     31  S   UNL     1       4.090  -0.939   1.280  0.00  0.00    +0.153 S 
ATOM     32  O   UNL     1       5.421  -1.407   1.114  0.00  0.00    -0.131 OA
ATOM     33  O   UNL     1       3.778   0.213   2.050  0.00  0.00    -0.131 OA
BRANCH  31  34
ATOM     34  O   UNL     1       3.539  -0.691  -0.117  0.00  0.00    -0.342 OA
BRANCH  34  38
ATOM     35  C   UNL     1      -0.112   1.228  -0.166  0.00  0.00    +0.000 A 
ATOM     36  C   UNL     1       1.056   1.967  -0.188  0.00  0.00    +0.004 A 
ATOM     37  C   UNL     1       2.280   1.327  -0.172  0.00  0.00    +0.048 A 
ATOM     38  C   UNL     1       2.336  -0.059  -0.133  0.00  0.00    +0.157 A 
ATOM     39  C   UNL     1       1.163  -0.798  -0.110  0.00  0.00    +0.048 A 
ATOM     40  C   UNL     1      -0.059  -0.153  -0.127  0.00  0.00    +0.004 A 
ENDBRANCH  34  38
ENDBRANCH  31  34
ENDBRANCH   1  31
TORSDOF 8
