REMARK  Name = ZINC04265841
REMARK  10 active torsions:
REMARK  status: ('A' for Active; 'I' for Inactive)
REMARK    1  A    between atoms: C_1  and  C_2
REMARK    2  A    between atoms: C_2  and  O_4
REMARK    3  A    between atoms: O_4  and  C_5
REMARK    4  A    between atoms: C_9  and  N_38
REMARK    5  A    between atoms: C_14  and  C_15
REMARK    6  A    between atoms: C_19  and  C_21
REMARK    7  A    between atoms: C_22  and  O_34
REMARK    8  A    between atoms: C_26  and  N_31
REMARK    9  A    between atoms: O_34  and  C_35
REMARK   10  A    between atoms: C_35  and  C_37
REMARK                            x       y       z     vdW  Elec       q    Type
REMARK                         _______ _______ _______ _____ _____    ______ ____
ROOT
ATOM      1  C   UNL     1       4.785   2.658  -0.029  0.00  0.00    +0.003 A 
ATOM      2  C   UNL     1       5.554   1.807   0.842  0.00  0.00    +0.010 A 
ATOM      3  C   UNL     1       6.933   1.869   0.830  0.00  0.00    +0.001 A 
ATOM      4  C   UNL     1       7.584   2.745  -0.014  0.00  0.00    +0.010 A 
ATOM      5  C   UNL     1       6.828   3.603  -0.889  0.00  0.00    +0.003 A 
ATOM      6  C   UNL     1       5.436   3.542  -0.887  0.00  0.00    +0.020 A 
ENDROOT
BRANCH   1  16
ATOM      7  C   UNL     1       2.552   1.407  -0.014  0.00  0.00    +0.164 A 
ATOM      8  C   UNL     1       1.193   1.797   0.000  0.00  0.00    +0.043 A 
ATOM      9  C   UNL     1      -0.013   1.076   0.008  0.00  0.00    +0.016 A 
ATOM     10  C   UNL     1      -1.204   1.745   0.017  0.00  0.00    +0.033 A 
ATOM     11  C   UNL     1      -1.232   3.132   0.031  0.00  0.00    +0.128 A 
ATOM     12  C   UNL     1      -0.057   3.863   0.023  0.00  0.00    +0.059 A 
ATOM     13  C   UNL     1       1.165   3.208   0.008  0.00  0.00    +0.053 A 
ATOM     14  N   UNL     1       2.474   3.663  -0.002  0.00  0.00    -0.351 N 
ATOM     15  H   UNL     1       2.744   4.595  -0.000  0.00  0.00    +0.166 HD
ATOM     16  C   UNL     1       3.323   2.591  -0.016  0.00  0.00    +0.090 A 
BRANCH  11  17
ATOM     17  N   UNL     1      -2.533   3.838   0.048  0.00  0.00    +0.056 N 
ATOM     18  O   UNL     1      -2.568   5.154   0.055  0.00  0.00    -0.126 OA
ATOM     19  O   UNL     1      -3.656   3.149   0.056  0.00  0.00    -0.126 OA
ENDBRANCH  11  17
BRANCH   7  20
ATOM     20  O   UNL     1       3.023   0.141  -0.025  0.00  0.00    -0.423 OA
BRANCH  20  22
ATOM     21  C   UNL     1       3.751  -1.834  -1.318  0.00  0.00    +0.136 C 
ATOM     22  C   UNL     1       3.226  -0.425  -1.227  0.00  0.00    +0.309 C 
ATOM     23  O   UNL     1       2.987   0.197  -2.235  0.00  0.00    -0.251 OA
ENDBRANCH  20  22
ENDBRANCH   7  20
ENDBRANCH   1  16
BRANCH   5  24
ATOM     24  C   UNL     1       7.520   4.532  -1.784  0.00  0.00    +0.090 A 
ATOM     25  C   UNL     1       8.600   5.370  -1.428  0.00  0.00    +0.164 A 
ATOM     26  C   UNL     1       8.963   6.093  -2.586  0.00  0.00    +0.043 A 
ATOM     27  C   UNL     1       9.951   7.059  -2.844  0.00  0.00    +0.016 A 
ATOM     28  C   UNL     1      10.061   7.599  -4.094  0.00  0.00    +0.033 A 
ATOM     29  C   UNL     1       9.205   7.202  -5.111  0.00  0.00    +0.128 A 
ATOM     30  C   UNL     1       8.225   6.253  -4.879  0.00  0.00    +0.059 A 
ATOM     31  C   UNL     1       8.092   5.689  -3.620  0.00  0.00    +0.053 A 
ATOM     32  N   UNL     1       7.225   4.739  -3.104  0.00  0.00    -0.351 N 
ATOM     33  H   UNL     1       6.522   4.292  -3.600  0.00  0.00    +0.166 HD
BRANCH  29  34
ATOM     34  N   UNL     1       9.342   7.800  -6.458  0.00  0.00    +0.056 N 
ATOM     35  O   UNL     1       8.533   7.428  -7.429  0.00  0.00    -0.126 OA
ATOM     36  O   UNL     1      10.272   8.704  -6.687  0.00  0.00    -0.126 OA
ENDBRANCH  29  34
BRANCH  25  37
ATOM     37  O   UNL     1       9.179   5.460  -0.210  0.00  0.00    -0.423 OA
BRANCH  37  38
ATOM     38  C   UNL     1      10.211   4.636   0.038  0.00  0.00    +0.309 C 
ATOM     39  O   UNL     1      10.581   3.860  -0.811  0.00  0.00    -0.251 OA
ATOM     40  C   UNL     1      10.906   4.679   1.374  0.00  0.00    +0.136 C 
ENDBRANCH  37  38
ENDBRANCH  25  37
ENDBRANCH   5  24
TORSDOF 8
