REMARK  Name = ZINC35973750
REMARK  15 active torsions:
REMARK  status: ('A' for Active; 'I' for Inactive)
REMARK    1  A    between atoms: C_1  and  C_2
REMARK    2  A    between atoms: C_2  and  C_3
REMARK    3  A    between atoms: C_3  and  C_5
REMARK    4  A    between atoms: C_3  and  O_6
REMARK    5  A    between atoms: O_6  and  C_7
REMARK    6  A    between atoms: C_7  and  C_9
REMARK    7  A    between atoms: C_10  and  C_40
REMARK    8  A    between atoms: C_14  and  C_16
REMARK    9  A    between atoms: C_19  and  O_24
REMARK   10  A    between atoms: C_21  and  O_22
REMARK   11  A    between atoms: O_22  and  C_23
REMARK   12  A    between atoms: O_24  and  C_25
REMARK   13  A    between atoms: C_29  and  C_32
REMARK   14  A    between atoms: C_35  and  O_38
REMARK   15  A    between atoms: O_38  and  C_39
REMARK                            x       y       z     vdW  Elec       q    Type
REMARK                         _______ _______ _______ _____ _____    ______ ____
ROOT
ATOM      1  C   UNL     1      -0.031   0.269  -4.814  0.00  0.00    +0.065 C 
ATOM      2  C   UNL     1       0.680   0.791  -5.828  0.00  0.00    +0.016 C 
ATOM      3  N   UNL     1       0.045   1.359  -6.897  0.00  0.00    -0.321 N 
ATOM      4  C   UNL     1      -1.266   1.069  -7.164  0.00  0.00    +0.016 C 
ATOM      5  C   UNL     1      -2.064   0.559  -6.202  0.00  0.00    +0.024 C 
ATOM      6  C   UNL     1      -1.531   0.293  -4.819  0.00  0.00    +0.096 C 
ATOM      7  C   UNL     1      -3.413   0.260  -6.462  0.00  0.00    +0.162 C 
ATOM      8  O   UNL     1      -4.101  -0.213  -5.579  0.00  0.00    -0.292 OA
ATOM      9  C   UNL     1      -4.022   0.517  -7.814  0.00  0.00    +0.088 C 
ATOM     10  C   UNL     1      -3.281   1.680  -8.482  0.00  0.00    +0.032 C 
ATOM     11  C   UNL     1      -1.793   1.329  -8.554  0.00  0.00    +0.059 C 
ATOM     12  C   UNL     1       2.186   0.751  -5.786  0.00  0.00    +0.061 C 
ATOM     13  H   UNL     1       0.528   1.972  -7.473  0.00  0.00    +0.152 HD
ENDROOT
BRANCH   6  14
ATOM     14  C   UNL     1      -2.011   1.379  -3.892  0.00  0.00    +0.007 A 
ATOM     15  C   UNL     1      -1.655   2.694  -4.125  0.00  0.00    +0.012 A 
ATOM     16  C   UNL     1      -2.094   3.692  -3.277  0.00  0.00    +0.046 A 
ATOM     17  C   UNL     1      -2.895   3.377  -2.188  0.00  0.00    +0.124 A 
ATOM     18  C   UNL     1      -3.254   2.059  -1.952  0.00  0.00    +0.091 A 
ATOM     19  C   UNL     1      -2.816   1.060  -2.808  0.00  0.00    +0.128 A 
BRANCH  19  20
ATOM     20  O   UNL     1      -3.172  -0.233  -2.583  0.00  0.00    -0.495 OA
ATOM     21  C   UNL     1      -4.002  -0.489  -1.448  0.00  0.00    +0.277 C 
ENDBRANCH  19  20
BRANCH  17  22
ATOM     22  O   UNL     1      -3.326   4.359  -1.354  0.00  0.00    -0.495 OA
ATOM     23  C   UNL     1      -2.917   5.694  -1.657  0.00  0.00    +0.277 C 
ENDBRANCH  17  22
ENDBRANCH   6  14
BRANCH  10  24
ATOM     24  C   UNL     1      -3.823   1.894  -9.872  0.00  0.00    -0.043 A 
ATOM     25  C   UNL     1      -3.757   0.874 -10.803  0.00  0.00    +0.007 A 
ATOM     26  C   UNL     1      -4.253   1.068 -12.078  0.00  0.00    +0.046 A 
ATOM     27  C   UNL     1      -4.817   2.288 -12.423  0.00  0.00    +0.120 A 
ATOM     28  C   UNL     1      -4.881   3.310 -11.487  0.00  0.00    +0.046 A 
ATOM     29  C   UNL     1      -4.389   3.109 -10.212  0.00  0.00    +0.007 A 
BRANCH  27  30
ATOM     30  O   UNL     1      -5.305   2.482 -13.677  0.00  0.00    -0.495 OA
ATOM     31  C   UNL     1      -5.871   3.762 -13.962  0.00  0.00    +0.277 C 
ENDBRANCH  27  30
ENDBRANCH  10  24
BRANCH   1  32
ATOM     32  C   UNL     1       0.649  -0.321  -3.722  0.00  0.00    +0.338 C 
ATOM     33  O   UNL     1       1.857  -0.463  -3.762  0.00  0.00    -0.245 OA
BRANCH  32  34
ATOM     34  O   UNL     1      -0.042  -0.727  -2.636  0.00  0.00    -0.458 OA
BRANCH  34  35
ATOM     35  C   UNL     1       0.709  -1.314  -1.572  0.00  0.00    +0.173 C 
ATOM     36  C   UNL     1       0.804  -2.826  -1.788  0.00  0.00    +0.052 C 
BRANCH  35  38
ATOM     37  C   UNL     1       0.025   0.472   0.036  0.00  0.00    +0.007 C 
ATOM     38  C   UNL     1       0.010  -1.033  -0.240  0.00  0.00    +0.041 C 
ENDBRANCH  35  38
ENDBRANCH  34  35
ENDBRANCH  32  34
ENDBRANCH   1  32
TORSDOF 9
