REMARK  Name = ZINC34998114
REMARK  11 active torsions:
REMARK  status: ('A' for Active; 'I' for Inactive)
REMARK    1  A    between atoms: C_1  and  C_2
REMARK    2  A    between atoms: C_2  and  N_3
REMARK    3  A    between atoms: N_6  and  C_7
REMARK    4  A    between atoms: N_6  and  C_25
REMARK    5  A    between atoms: C_7  and  C_8
REMARK    6  A    between atoms: C_8  and  N_9
REMARK    7  A    between atoms: C_15  and  C_17
REMARK    8  A    between atoms: C_18  and  C_19
REMARK    9  A    between atoms: C_25  and  C_26
REMARK   10  A    between atoms: C_34  and  C_35
REMARK   11  A    between atoms: C_34  and  C_36
REMARK                            x       y       z     vdW  Elec       q    Type
REMARK                         _______ _______ _______ _____ _____    ______ ____
ROOT
ATOM      1  C   UNL     1       1.657  -3.702   2.715  0.00  0.00    +0.091 C 
ENDROOT
BRANCH   1   5
ATOM      2  N   UNL     1       0.706  -0.488   1.203  0.00  0.00    -0.299 N 
ATOM      3  C   UNL     1       0.851  -1.812   1.404  0.00  0.00    +0.302 C 
ATOM      4  O   UNL     1       0.395  -2.603   0.600  0.00  0.00    -0.253 OA
ATOM      5  N   UNL     1       1.500  -2.262   2.496  0.00  0.00    -0.283 N 
ATOM      6  H   UNL     1       1.070   0.143   1.844  0.00  0.00    +0.150 HD
BRANCH   2   8
ATOM      7  C   UNL     1      -0.022   1.530   0.029  0.00  0.00    +0.024 C 
ATOM      8  C   UNL     1       0.000   0.001   0.016  0.00  0.00    +0.102 C 
ENDBRANCH   2   8
BRANCH   5   9
ATOM      9  C   UNL     1       2.049  -1.310   3.465  0.00  0.00    +0.140 C 
BRANCH   9  10
ATOM     10  C   UNL     1       1.012  -1.008   4.516  0.00  0.00    -0.053 C 
ATOM     11  C   UNL     1       0.989  -1.656   5.657  0.00  0.00    -0.025 C 
ATOM     12  C   UNL     1      -0.072  -1.329   6.680  0.00  0.00    +0.031 C 
ATOM     13  C   UNL     1      -0.935  -0.165   6.176  0.00  0.00    -0.000 C 
ATOM     14  C   UNL     1      -0.101   0.979   5.574  0.00  0.00    +0.012 C 
ATOM     15  C   UNL     1      -0.043   0.063   4.298  0.00  0.00    +0.022 C 
ATOM     16  C   UNL     1      -1.436  -0.434   4.742  0.00  0.00    -0.025 C 
ATOM     17  C   UNL     1      -2.585   0.477   4.306  0.00  0.00    +0.012 C 
ATOM     18  C   UNL     1      -1.694  -1.912   4.444  0.00  0.00    +0.012 C 
ENDBRANCH   9  10
ENDBRANCH   5   9
ENDBRANCH   1   5
BRANCH   1  19
ATOM     19  C   UNL     1       2.956  -4.178   2.061  0.00  0.00    -0.059 C 
BRANCH  19  20
ATOM     20  N   UNL     1       3.113  -5.622   2.280  0.00  0.00    +0.383 N 
ATOM     21  C   UNL     1       3.271  -5.883   3.716  0.00  0.00    -0.059 C 
ATOM     22  C   UNL     1       3.320  -7.396   3.957  0.00  0.00    +0.089 C 
ATOM     23  N   UNL     1       4.383  -7.968   3.116  0.00  0.00    -0.302 N 
ATOM     24  C   UNL     1       4.396  -7.623   1.686  0.00  0.00    +0.089 C 
ATOM     25  C   UNL     1       4.296  -6.100   1.552  0.00  0.00    -0.059 C 
ATOM     26  C   UNL     1       5.318  -8.784   3.641  0.00  0.00    +0.239 C 
ATOM     27  O   UNL     1       5.349  -8.981   4.841  0.00  0.00    -0.271 OA
ATOM     28  H   UNL     1       2.294  -6.104   1.941  0.00  0.00    -0.082 HD
BRANCH  26  29
ATOM     29  C   UNL     1       6.297  -9.432   2.767  0.00  0.00    +0.068 C 
ATOM     30  C   UNL     1       7.169 -10.325   3.277  0.00  0.00    +0.013 C 
BRANCH  30  31
ATOM     31  C   UNL     1       8.153 -10.978   2.398  0.00  0.00    -0.025 A 
ATOM     32  C   UNL     1       8.191 -10.669   1.034  0.00  0.00    +0.008 A 
ATOM     33  C   UNL     1       9.117 -11.284   0.218  0.00  0.00    +0.001 A 
ATOM     34  C   UNL     1      10.006 -12.205   0.744  0.00  0.00    +0.000 A 
ATOM     35  C   UNL     1       9.974 -12.516   2.092  0.00  0.00    +0.001 A 
ATOM     36  C   UNL     1       9.059 -11.905   2.923  0.00  0.00    +0.008 A 
ENDBRANCH  30  31
ENDBRANCH  26  29
ENDBRANCH  19  20
ENDBRANCH   1  19
TORSDOF 8
