REMARK  Name = ZINC13256033
REMARK  12 active torsions:
REMARK  status: ('A' for Active; 'I' for Inactive)
REMARK    1  A    between atoms: C_1  and  C_2
REMARK    2  A    between atoms: C_2  and  N_3
REMARK    3  A    between atoms: N_3  and  C_4
REMARK    4  A    between atoms: N_3  and  S_6
REMARK    5  A    between atoms: C_4  and  C_5
REMARK    6  A    between atoms: S_6  and  C_9
REMARK    7  A    between atoms: C_12  and  O_18
REMARK    8  A    between atoms: C_13  and  N_15
REMARK    9  A    between atoms: O_18  and  C_19
REMARK   10  A    between atoms: C_19  and  C_20
REMARK   11  A    between atoms: C_26  and  C_32
REMARK   12  A    between atoms: C_27  and  C_31
REMARK                            x       y       z     vdW  Elec       q    Type
REMARK                         _______ _______ _______ _____ _____    ______ ____
ROOT
ATOM      1  C   UNL     1      -2.898   0.520   2.058  0.00  0.00    +0.108 A 
ATOM      2  C   UNL     1      -2.214   1.395   2.881  0.00  0.00    +0.032 A 
ATOM      3  C   UNL     1      -2.843   2.527   3.362  0.00  0.00    +0.050 A 
ATOM      4  C   UNL     1      -4.162   2.786   3.017  0.00  0.00    +0.151 A 
ATOM      5  C   UNL     1      -4.845   1.907   2.190  0.00  0.00    +0.169 A 
ATOM      6  C   UNL     1      -4.210   0.778   1.708  0.00  0.00    +0.065 A 
ENDROOT
BRANCH   1   7
ATOM      7  S   UNL     1      -2.092  -0.923   1.446  0.00  0.00    +0.061 S 
ATOM      8  O   UNL     1      -3.116  -1.857   1.133  0.00  0.00    -0.153 OA
ATOM      9  O   UNL     1      -1.043  -1.219   2.357  0.00  0.00    -0.153 OA
BRANCH   7  10
ATOM     10  N   UNL     1      -1.372  -0.511   0.012  0.00  0.00    -0.177 NA
BRANCH  10  12
ATOM     11  C   UNL     1      -0.019   1.526   0.010  0.00  0.00    +0.022 C 
ATOM     12  C   UNL     1       0.002  -0.004   0.002  0.00  0.00    +0.106 C 
ENDBRANCH  10  12
BRANCH  10  13
ATOM     13  C   UNL     1      -2.110  -0.654  -1.245  0.00  0.00    +0.106 C 
ATOM     14  C   UNL     1      -1.773  -2.003  -1.884  0.00  0.00    +0.022 C 
ENDBRANCH  10  13
ENDBRANCH   7  10
ENDBRANCH   1   7
BRANCH   5  15
ATOM     15  N   UNL     1      -6.252   2.179   1.821  0.00  0.00    +0.060 N 
ATOM     16  O   UNL     1      -6.848   1.413   1.100  0.00  0.00    -0.126 OA
ATOM     17  O   UNL     1      -6.807   3.169   2.240  0.00  0.00    -0.126 OA
ENDBRANCH   5  15
BRANCH   4  18
ATOM     18  O   UNL     1      -4.783   3.898   3.490  0.00  0.00    -0.482 OA
BRANCH  18  19
ATOM     19  C   UNL     1      -4.018   4.759   4.336  0.00  0.00    +0.303 C 
BRANCH  19  20
ATOM     20  C   UNL     1      -4.866   5.931   4.759  0.00  0.00    +0.151 A 
ATOM     21  N   UNL     1      -4.321   6.873   5.567  0.00  0.00    -0.307 N 
ATOM     22  H   UNL     1      -3.401   6.786   5.862  0.00  0.00    +0.170 HD
ATOM     23  C   UNL     1      -5.059   7.937   5.961  0.00  0.00    +0.263 A 
ATOM     24  O   UNL     1      -4.586   8.794   6.687  0.00  0.00    -0.267 OA
ATOM     25  C   UNL     1      -6.392   8.024   5.508  0.00  0.00    +0.118 A 
ATOM     26  C   UNL     1      -7.496   8.981   5.695  0.00  0.00    +0.118 A 
ATOM     27  C   UNL     1      -8.541   8.479   4.977  0.00  0.00    +0.119 A 
ATOM     28  O   UNL     1      -8.171   7.334   4.390  0.00  0.00    -0.441 OA
ATOM     29  C   UNL     1      -6.897   7.023   4.678  0.00  0.00    +0.235 A 
ATOM     30  N   UNL     1      -6.095   6.004   4.330  0.00  0.00    -0.195 NA
ATOM     31  C   UNL     1      -9.902   9.114   4.862  0.00  0.00    +0.087 C 
BRANCH  26  32
ATOM     32  C   UNL     1      -7.476  10.216   6.489  0.00  0.00    +0.391 C 
ATOM     33  O   UNL     1      -6.459  10.543   7.086  0.00  0.00    -0.240 OA
ATOM     34  O   UNL     1      -8.476  10.918   6.554  0.00  0.00    -0.240 OA
ENDBRANCH  26  32
ENDBRANCH  19  20
ENDBRANCH  18  19
ENDBRANCH   4  18
TORSDOF 9
