REMARK  Name = ZINC45334603
REMARK  12 active torsions:
REMARK  status: ('A' for Active; 'I' for Inactive)
REMARK    1  A    between atoms: C_1  and  C_2
REMARK    2  A    between atoms: C_2  and  O_3
REMARK    3  A    between atoms: O_3  and  C_4
REMARK    4  A    between atoms: C_7  and  N_10
REMARK    5  A    between atoms: N_10  and  C_11
REMARK    6  A    between atoms: C_12  and  C_30
REMARK    7  A    between atoms: C_13  and  N_22
REMARK    8  A    between atoms: C_14  and  C_20
REMARK    9  A    between atoms: N_22  and  C_23
REMARK   10  A    between atoms: C_30  and  C_31
REMARK   11  A    between atoms: C_31  and  C_32
REMARK   12  A    between atoms: C_31  and  C_33
REMARK                            x       y       z     vdW  Elec       q    Type
REMARK                         _______ _______ _______ _____ _____    ______ ____
ROOT
ATOM      1  C   UNL     1      -3.297  -6.441   0.178  0.00  0.00    +0.130 A 
ATOM      2  C   UNL     1      -3.512  -7.784   0.181  0.00  0.00    +0.015 A 
ATOM      3  C   UNL     1      -4.805  -8.309   0.285  0.00  0.00    +0.053 A 
ATOM      4  C   UNL     1      -5.893  -7.428   0.387  0.00  0.00    +0.098 A 
ATOM      5  C   UNL     1      -5.621  -5.988   0.381  0.00  0.00    +0.088 A 
ATOM      6  N   UNL     1      -4.328  -5.546   0.281  0.00  0.00    -0.217 N 
ATOM      7  N   UNL     1      -4.362  -4.145   0.305  0.00  0.00    -0.173 NA
ATOM      8  C   UNL     1      -5.609  -3.752   0.419  0.00  0.00    +0.135 A 
ATOM      9  C   UNL     1      -6.433  -4.872   0.462  0.00  0.00    +0.050 A 
ENDROOT
BRANCH   1  10
ATOM     10  N   UNL     1      -2.006  -5.968   0.073  0.00  0.00    -0.299 N 
ATOM     11  H   UNL     1      -1.342  -6.221   0.734  0.00  0.00    +0.154 HD
BRANCH  10  15
ATOM     12  C   UNL     1      -0.955  -3.457  -3.083  0.00  0.00    +0.121 A 
ATOM     13  C   UNL     1      -0.054  -3.693  -2.055  0.00  0.00    +0.047 A 
ATOM     14  C   UNL     1      -0.401  -4.524  -1.009  0.00  0.00    +0.027 A 
ATOM     15  C   UNL     1      -1.653  -5.125  -0.986  0.00  0.00    +0.033 A 
ATOM     16  C   UNL     1      -2.555  -4.888  -2.016  0.00  0.00    +0.027 A 
ATOM     17  C   UNL     1      -2.208  -4.051  -3.058  0.00  0.00    +0.047 A 
BRANCH  12  18
ATOM     18  O   UNL     1      -0.613  -2.637  -4.113  0.00  0.00    -0.492 OA
BRANCH  18  20
ATOM     19  C   UNL     1       0.896  -1.174  -5.306  0.00  0.00    +0.048 C 
ATOM     20  C   UNL     1       0.694  -2.059  -4.074  0.00  0.00    +0.225 C 
ENDBRANCH  18  20
ENDBRANCH  12  18
ENDBRANCH  10  15
ENDBRANCH   1  10
BRANCH   4  21
ATOM     21  C   UNL     1      -7.232  -7.923   0.495  0.00  0.00    +0.103 C 
ATOM     22  N   UNL     1      -8.295  -8.316   0.580  0.00  0.00    -0.191 NA
ENDBRANCH   4  21
BRANCH   3  23
ATOM     23  N   UNL     1      -5.008  -9.680   0.286  0.00  0.00    -0.341 N 
ATOM     24  H   UNL     1      -4.249 -10.282   0.314  0.00  0.00    +0.146 HD
BRANCH  23  25
ATOM     25  C   UNL     1      -6.370 -10.218   0.246  0.00  0.00    +0.053 C 
ATOM     26  C   UNL     1      -6.926 -10.309   1.670  0.00  0.00    +0.018 C 
ATOM     27  C   UNL     1      -8.319 -10.945   1.624  0.00  0.00    -0.017 C 
ATOM     28  C   UNL     1      -8.225 -12.315   0.949  0.00  0.00    -0.082 C 
ATOM     29  N   UNL     1      -7.712 -12.158  -0.417  0.00  0.00    +0.380 N 
ATOM     30  C   UNL     1      -6.349 -11.615  -0.378  0.00  0.00    -0.060 C 
ATOM     31  H   UNL     1      -7.702 -13.056  -0.876  0.00  0.00    -0.086 HD
ATOM     32  H   UNL     1      -8.309 -11.527  -0.929  0.00  0.00    -0.086 HD
ENDBRANCH  23  25
ENDBRANCH   3  23
BRANCH   2  33
ATOM     33  C   UNL     1      -2.338  -8.722   0.071  0.00  0.00    +0.043 C 
BRANCH  33  34
ATOM     34  C   UNL     1      -1.897  -9.154   1.471  0.00  0.00    -0.013 C 
ATOM     35  C   UNL     1      -0.787 -10.201   1.356  0.00  0.00    +0.007 C 
ATOM     36  C   UNL     1      -1.373  -7.938   2.239  0.00  0.00    +0.007 C 
ENDBRANCH  33  34
ENDBRANCH   2  33
TORSDOF 9
