REMARK  Name = ZINC11666548
REMARK  7 active torsions:
REMARK  status: ('A' for Active; 'I' for Inactive)
REMARK    1  A    between atoms: C_4  and  N_7
REMARK    2  A    between atoms: C_10  and  C_26
REMARK    3  A    between atoms: C_14  and  C_15
REMARK    4  A    between atoms: C_14  and  C_17
REMARK    5  A    between atoms: N_19  and  C_20
REMARK    6  A    between atoms: C_20  and  C_21
REMARK    7  A    between atoms: C_26  and  C_27
REMARK                            x       y       z     vdW  Elec       q    Type
REMARK                         _______ _______ _______ _____ _____    ______ ____
ROOT
ATOM      1  N   UNL     1       3.626  -0.648   0.027  0.00  0.00    -0.232 N 
ATOM      2  C   UNL     1       4.742   0.053  -0.075  0.00  0.00    +0.238 C 
ATOM      3  O   UNL     1       4.741   1.266  -0.106  0.00  0.00    -0.274 OA
ATOM      4  C   UNL     1       6.027  -0.757  -0.150  0.00  0.00    +0.143 C 
ATOM      5  S   UNL     1       5.342  -2.463  -0.054  0.00  0.00    -0.095 S 
ATOM      6  C   UNL     1       3.615  -2.021   0.069  0.00  0.00    +0.098 C 
ATOM      7  C   UNL     1       2.514  -2.871   0.179  0.00  0.00    +0.141 C 
ENDROOT
BRANCH   1  11
ATOM      8  C   UNL     1      -0.003   1.390   0.247  0.00  0.00    +0.000 A 
ATOM      9  C   UNL     1       0.612   0.950   1.405  0.00  0.00    +0.002 A 
ATOM     10  C   UNL     1       1.815   0.274   1.335  0.00  0.00    +0.024 A 
ATOM     11  C   UNL     1       2.406   0.037   0.101  0.00  0.00    +0.042 A 
ATOM     12  C   UNL     1       1.785   0.480  -1.059  0.00  0.00    +0.024 A 
ATOM     13  C   UNL     1       0.583   1.155  -0.983  0.00  0.00    +0.002 A 
ENDBRANCH   1  11
BRANCH   7  14
ATOM     14  C   UNL     1       1.159  -2.326   0.102  0.00  0.00    +0.257 C 
ATOM     15  O   UNL     1       0.560  -2.037   1.122  0.00  0.00    -0.269 OA
ATOM     16  N   UNL     1       0.574  -2.144  -1.099  0.00  0.00    -0.304 N 
ATOM     17  H   UNL     1       1.051  -2.374  -1.911  0.00  0.00    +0.149 HD
BRANCH  16  18
ATOM     18  C   UNL     1      -0.783  -1.599  -1.176  0.00  0.00    +0.179 C 
BRANCH  18  19
ATOM     19  C   UNL     1      -1.201  -1.495  -2.620  0.00  0.00    +0.122 A 
ATOM     20  C   UNL     1      -1.833  -2.450  -3.327  0.00  0.00    +0.046 A 
ATOM     21  C   UNL     1      -2.030  -1.934  -4.628  0.00  0.00    +0.041 A 
ATOM     22  C   UNL     1      -1.507  -0.695  -4.639  0.00  0.00    +0.195 A 
ATOM     23  O   UNL     1      -1.011  -0.432  -3.419  0.00  0.00    -0.466 OA
ENDBRANCH  18  19
ENDBRANCH  16  18
ENDBRANCH   7  14
BRANCH   7  24
ATOM     24  C   UNL     1       2.711  -4.277   0.369  0.00  0.00    +0.107 C 
ATOM     25  N   UNL     1       2.867  -5.392   0.519  0.00  0.00    -0.191 NA
ENDBRANCH   7  24
BRANCH   4  26
ATOM     26  C   UNL     1       6.942  -0.458   1.039  0.00  0.00    +0.060 C 
BRANCH  26  27
ATOM     27  C   UNL     1       8.249  -1.185   0.862  0.00  0.00    -0.026 A 
ATOM     28  C   UNL     1       8.436  -2.424   1.447  0.00  0.00    +0.025 A 
ATOM     29  C   UNL     1       9.636  -3.092   1.284  0.00  0.00    +0.041 A 
ATOM     30  C   UNL     1      10.650  -2.520   0.537  0.00  0.00    +0.021 A 
ATOM     31  C   UNL     1      10.464  -1.282  -0.048  0.00  0.00    +0.022 A 
ATOM     32  C   UNL     1       9.261  -0.616   0.110  0.00  0.00    +0.044 A 
ATOM     33 CL   UNL     1       9.025   0.936  -0.630  0.00  0.00    -0.083 Cl
ATOM     34 CL   UNL     1       9.870  -4.647   2.019  0.00  0.00    -0.084 Cl
ENDBRANCH  26  27
ENDBRANCH   4  26
TORSDOF 7
