REMARK  Name = ZINC13553516
REMARK  5 active torsions:
REMARK  status: ('A' for Active; 'I' for Inactive)
REMARK    1  A    between atoms: C_1  and  N_2
REMARK    2  A    between atoms: C_6  and  C_8
REMARK    3  A    between atoms: C_8  and  C_9
REMARK    4  A    between atoms: C_16  and  C_19
REMARK    5  A    between atoms: N_26  and  C_27
REMARK                            x       y       z     vdW  Elec       q    Type
REMARK                         _______ _______ _______ _____ _____    ______ ____
ROOT
ATOM      1  C   UNL     1      -1.425   4.919  -1.268  0.00  0.00    -0.041 C 
ATOM      2  C   UNL     1      -2.047   5.495  -0.268  0.00  0.00    -0.004 C 
ATOM      3  C   UNL     1      -3.434   6.066  -0.373  0.00  0.00    +0.134 C 
ATOM      4  N   UNL     1      -3.832   6.108  -1.788  0.00  0.00    -0.307 N 
ATOM      5  C   UNL     1      -3.518   4.929  -2.614  0.00  0.00    +0.112 C 
ATOM      6  C   UNL     1      -1.995   4.771  -2.648  0.00  0.00    +0.054 C 
ATOM      7  C   UNL     1      -4.468   7.196  -2.315  0.00  0.00    +0.142 C 
ATOM      8  N   UNL     1      -4.745   8.275  -1.524  0.00  0.00    -0.362 N 
ATOM      9  S   UNL     1      -4.902   7.208  -3.917  0.00  0.00    -0.016 SA
ATOM     10  H   UNL     1      -4.573   8.234  -0.570  0.00  0.00    +0.162 HD
ENDROOT
BRANCH   1  18
ATOM     11  C   UNL     1       1.937   1.755   0.920  0.00  0.00    -0.024 A 
ATOM     12  C   UNL     1       3.264   1.738   0.721  0.00  0.00    +0.087 A 
ATOM     13  N   UNL     1       3.615   2.716  -0.171  0.00  0.00    -0.360 N 
ATOM     14  H   UNL     1       4.520   2.896  -0.471  0.00  0.00    +0.165 HD
ATOM     15  C   UNL     1       2.494   3.404  -0.577  0.00  0.00    +0.047 A 
ATOM     16  C   UNL     1       1.393   2.829   0.084  0.00  0.00    +0.003 A 
ATOM     17  C   UNL     1       0.109   3.324  -0.140  0.00  0.00    +0.018 A 
ATOM     18  C   UNL     1      -0.069   4.384  -1.021  0.00  0.00    -0.021 A 
ATOM     19  C   UNL     1       1.034   4.945  -1.675  0.00  0.00    +0.010 A 
ATOM     20  C   UNL     1       2.293   4.468  -1.453  0.00  0.00    +0.027 A 
BRANCH  11  21
ATOM     21  C   UNL     1       1.155   0.840   1.827  0.00  0.00    +0.022 C 
BRANCH  21  27
ATOM     22  C   UNL     1      -0.323  -0.599   3.222  0.00  0.00    -0.096 C 
ATOM     23  N   UNL     1      -0.272  -1.163   1.866  0.00  0.00    +0.380 N 
ATOM     24  C   UNL     1       0.308  -2.522   1.914  0.00  0.00    -0.079 C 
ATOM     25  C   UNL     1       1.145  -2.642   0.616  0.00  0.00    -0.020 C 
ATOM     26  C   UNL     1       1.728  -1.210   0.487  0.00  0.00    -0.017 C 
ATOM     27  C   UNL     1       0.582  -0.319   1.010  0.00  0.00    -0.065 C 
ATOM     28  H   UNL     1      -1.203  -1.206   1.480  0.00  0.00    -0.082 HD
ENDBRANCH  21  27
ENDBRANCH  11  21
ENDBRANCH   1  18
BRANCH   8  29
ATOM     29  C   UNL     1      -5.303   9.493  -2.115  0.00  0.00    +0.041 C 
ATOM     30  C   UNL     1      -4.365  10.004  -3.211  0.00  0.00    +0.031 C 
ATOM     31  C   UNL     1      -4.948  11.277  -3.829  0.00  0.00    -0.008 C 
ATOM     32  C   UNL     1      -6.318  10.968  -4.435  0.00  0.00    +0.007 C 
ATOM     33  C   UNL     1      -7.257  10.457  -3.339  0.00  0.00    -0.008 C 
ATOM     34  C   UNL     1      -6.674   9.184  -2.721  0.00  0.00    +0.031 C 
ATOM     35  C   UNL     1      -7.407  11.527  -2.256  0.00  0.00    +0.007 C 
ATOM     36  C   UNL     1      -6.037  11.836  -1.651  0.00  0.00    -0.008 C 
ATOM     37  C   UNL     1      -5.098  12.347  -2.746  0.00  0.00    +0.007 C 
ATOM     38  C   UNL     1      -5.454  10.563  -1.032  0.00  0.00    +0.031 C 
ENDBRANCH   8  29
TORSDOF 4
