REMARK  Name = ZINC08767124
REMARK  12 active torsions:
REMARK  status: ('A' for Active; 'I' for Inactive)
REMARK    1  A    between atoms: C_1  and  C_2
REMARK    2  A    between atoms: C_2  and  O_3
REMARK    3  A    between atoms: O_3  and  C_4
REMARK    4  A    between atoms: C_4  and  C_6
REMARK    5  A    between atoms: C_7  and  C_38
REMARK    6  A    between atoms: C_14  and  C_15
REMARK    7  A    between atoms: C_18  and  N_20
REMARK    8  A    between atoms: C_25  and  N_79
REMARK    9  A    between atoms: C_27  and  C_29
REMARK   10  A    between atoms: C_32  and  C_35
REMARK   11  A    between atoms: C_35  and  C_36
REMARK   12  A    between atoms: C_35  and  C_37
REMARK                            x       y       z     vdW  Elec       q    Type
REMARK                         _______ _______ _______ _____ _____    ______ ____
ROOT
ATOM      1  C   UNL     1      -1.102   3.028   0.209  0.00  0.00    +0.090 C 
ATOM      2  C   UNL     1      -1.305   1.728  -0.244  0.00  0.00    +0.086 C 
ATOM      3  N   UNL     1      -2.546   1.256  -0.390  0.00  0.00    -0.222 NA
ATOM      4  C   UNL     1      -3.632   1.931  -0.126  0.00  0.00    +0.178 A 
ATOM      5  N   UNL     1      -3.652   3.230   0.331  0.00  0.00    -0.275 N 
ATOM      6  C   UNL     1      -4.842   3.802   0.555  0.00  0.00    +0.268 A 
ATOM      7  O   UNL     1      -4.905   4.950   0.960  0.00  0.00    -0.266 OA
ATOM      8  C   UNL     1      -6.026   3.063   0.319  0.00  0.00    +0.084 A 
ATOM      9  C   UNL     1      -7.342   3.445   0.478  0.00  0.00    +0.067 C 
ATOM     10  S   UNL     1      -5.359   1.504  -0.242  0.00  0.00    -0.046 S 
ATOM     11  C   UNL     1      -2.320   3.864   0.527  0.00  0.00    +0.162 C 
ENDROOT
BRANCH  11  12
ATOM     12  C   UNL     1      -2.221   4.297   1.967  0.00  0.00    -0.020 A 
ATOM     13  C   UNL     1      -2.581   3.424   2.977  0.00  0.00    +0.006 A 
ATOM     14  C   UNL     1      -2.486   3.819   4.298  0.00  0.00    +0.004 A 
ATOM     15  C   UNL     1      -2.040   5.090   4.609  0.00  0.00    -0.045 A 
ATOM     16  C   UNL     1      -1.685   5.964   3.599  0.00  0.00    +0.004 A 
ATOM     17  C   UNL     1      -1.776   5.568   2.278  0.00  0.00    +0.006 A 
BRANCH  15  18
ATOM     18  C   UNL     1      -1.940   5.522   6.050  0.00  0.00    +0.013 C 
ATOM     19  C   UNL     1      -3.322   5.446   6.702  0.00  0.00    +0.012 C 
ATOM     20  C   UNL     1      -0.974   4.598   6.793  0.00  0.00    +0.012 C 
ENDBRANCH  15  18
ENDBRANCH  11  12
BRANCH   2  21
ATOM     21  C   UNL     1      -0.144   0.869  -0.569  0.00  0.00    +0.001 A 
ATOM     22  C   UNL     1       0.704   1.206  -1.624  0.00  0.00    +0.010 A 
ATOM     23  C   UNL     1       1.780   0.398  -1.927  0.00  0.00    +0.001 A 
ATOM     24  C   UNL     1       2.020  -0.745  -1.185  0.00  0.00    +0.000 A 
ATOM     25  C   UNL     1       1.183  -1.085  -0.137  0.00  0.00    +0.001 A 
ATOM     26  C   UNL     1       0.103  -0.286   0.174  0.00  0.00    +0.010 A 
ENDBRANCH   2  21
BRANCH   9  27
ATOM     27  C   UNL     1      -7.657   4.789   0.746  0.00  0.00    +0.131 A 
ATOM     28  C   UNL     1      -8.931   5.326   0.834  0.00  0.00    +0.051 A 
ATOM     29  C   UNL     1      -8.774   6.685   1.116  0.00  0.00    +0.066 A 
ATOM     30  C   UNL     1      -7.433   6.932   1.180  0.00  0.00    +0.189 A 
ATOM     31  O   UNL     1      -6.769   5.787   0.956  0.00  0.00    -0.442 OA
BRANCH  30  32
ATOM     32  N   UNL     1      -6.854   8.159   1.433  0.00  0.00    -0.305 N 
ATOM     33  C   UNL     1      -7.314   9.167   0.467  0.00  0.00    +0.089 C 
ATOM     34  C   UNL     1      -6.713  10.528   0.829  0.00  0.00    -0.060 C 
ATOM     35  C   UNL     1      -4.787   9.421   1.790  0.00  0.00    -0.060 C 
ATOM     36  C   UNL     1      -5.388   8.061   1.428  0.00  0.00    +0.089 C 
ATOM     37  C   UNL     1      -4.631  11.736   1.093  0.00  0.00    -0.096 C 
ATOM     38  N   UNL     1      -5.239  10.421   0.799  0.00  0.00    +0.380 N 
ATOM     39  H   UNL     1      -4.946  10.119  -0.138  0.00  0.00    -0.082 HD
ENDBRANCH  30  32
ENDBRANCH   9  27
BRANCH   1  40
ATOM     40  C   UNL     1       0.189   3.544   0.364  0.00  0.00    +0.340 C 
ATOM     41  O   UNL     1       1.158   2.819   0.217  0.00  0.00    -0.245 OA
BRANCH  40  42
ATOM     42  O   UNL     1       0.363   4.847   0.679  0.00  0.00    -0.462 OA
BRANCH  42  44
ATOM     43  C   UNL     1       1.704   6.795   1.176  0.00  0.00    +0.048 C 
ATOM     44  C   UNL     1       1.708   5.306   0.822  0.00  0.00    +0.229 C 
ENDBRANCH  42  44
ENDBRANCH  40  42
ENDBRANCH   1  40
TORSDOF 8
