REMARK  Name = ZINC64491434
REMARK  7 active torsions:
REMARK  status: ('A' for Active; 'I' for Inactive)
REMARK    1  A    between atoms: C_1  and  C_2
REMARK    2  A    between atoms: C_2  and  N_3
REMARK    3  A    between atoms: C_11  and  N_15
REMARK    4  A    between atoms: C_18  and  C_21
REMARK    5  A    between atoms: N_23  and  C_24
REMARK    6  A    between atoms: C_24  and  C_25
REMARK    7  A    between atoms: C_25  and  C_26
REMARK                            x       y       z     vdW  Elec       q    Type
REMARK                         _______ _______ _______ _____ _____    ______ ____
ROOT
ATOM      1  N   UNL     1      -3.333  -2.778  -1.233  0.00  0.00    +0.398 N 
ATOM      2  C   UNL     1      -2.705  -3.288  -0.008  0.00  0.00    -0.075 C 
ATOM      3  C   UNL     1      -2.557  -4.808  -0.101  0.00  0.00    -0.006 C 
ATOM      4  C   UNL     1      -3.941  -5.441  -0.268  0.00  0.00    +0.071 C 
ATOM      5  C   UNL     1      -4.617  -4.847  -1.507  0.00  0.00    -0.006 C 
ATOM      6  C   UNL     1      -4.688  -3.325  -1.363  0.00  0.00    -0.075 C 
ATOM      7  H   UNL     1      -2.781  -3.055  -2.031  0.00  0.00    -0.078 HD
ENDROOT
BRANCH   1  16
ATOM      8  N   UNL     1      -1.372  -0.511   0.012  0.00  0.00    -0.270 N 
ATOM      9  C   UNL     1      -2.013  -0.752   1.234  0.00  0.00    +0.057 A 
ATOM     10  C   UNL     1      -1.290  -0.802   2.415  0.00  0.00    +0.025 A 
ATOM     11  C   UNL     1      -1.942  -1.036   3.612  0.00  0.00    +0.002 A 
ATOM     12  C   UNL     1      -3.312  -1.221   3.637  0.00  0.00    +0.002 A 
ATOM     13  C   UNL     1      -4.042  -1.176   2.462  0.00  0.00    +0.025 A 
ATOM     14  C   UNL     1      -3.395  -0.944   1.261  0.00  0.00    +0.048 A 
ATOM     15  N   UNL     1      -4.104  -0.903   0.052  0.00  0.00    -0.348 N 
ATOM     16  C   UNL     1      -3.401  -1.312  -1.172  0.00  0.00    +0.105 C 
ATOM     17  C   UNL     1      -2.009  -0.736  -1.153  0.00  0.00    +0.223 C 
ATOM     18  O   UNL     1      -1.453  -0.474  -2.199  0.00  0.00    -0.275 OA
ATOM     19  H   UNL     1      -5.030  -0.614   0.025  0.00  0.00    +0.145 HD
BRANCH   8  21
ATOM     20  C   UNL     1      -0.019   1.526   0.010  0.00  0.00    +0.025 C 
ATOM     21  C   UNL     1       0.002  -0.004   0.002  0.00  0.00    +0.110 C 
ENDBRANCH   8  21
ENDBRANCH   1  16
BRANCH   4  22
ATOM     22  C   UNL     1      -3.797  -6.931  -0.439  0.00  0.00    +0.216 C 
ATOM     23  O   UNL     1      -2.696  -7.439  -0.427  0.00  0.00    -0.276 OA
ATOM     24  N   UNL     1      -4.892  -7.700  -0.603  0.00  0.00    -0.315 N 
ATOM     25  H   UNL     1      -5.773  -7.294  -0.612  0.00  0.00    +0.149 HD
BRANCH  24  26
ATOM     26  C   UNL     1      -4.751  -9.149  -0.769  0.00  0.00    +0.108 C 
BRANCH  26  27
ATOM     27  C   UNL     1      -6.135  -9.779  -0.936  0.00  0.00    +0.052 C 
BRANCH  27  28
ATOM     28  C   UNL     1      -5.991 -11.270  -1.107  0.00  0.00    -0.040 C 
ATOM     29  C   UNL     1      -6.082 -12.211  -0.140  0.00  0.00    +0.000 A 
ATOM     30  C   UNL     1      -6.332 -12.133   1.304  0.00  0.00    +0.030 A 
ATOM     31  C   UNL     1      -6.366 -13.276   2.028  0.00  0.00    +0.042 A 
ATOM     32  C   UNL     1      -6.168 -14.531   1.433  0.00  0.00    +0.022 A 
ATOM     33  C   UNL     1      -5.932 -14.682   0.113  0.00  0.00    +0.027 A 
ATOM     34  C   UNL     1      -5.876 -13.548  -0.743  0.00  0.00    +0.043 A 
ATOM     35  N   UNL     1      -5.666 -13.436  -2.032  0.00  0.00    -0.380 N 
ATOM     36  C   UNL     1      -5.721 -12.016  -2.394  0.00  0.00    +0.144 C 
ATOM     37 CL   UNL     1      -6.662 -13.187   3.736  0.00  0.00    -0.084 Cl
ATOM     38  H   UNL     1      -5.505 -14.171  -2.645  0.00  0.00    +0.160 HD
ENDBRANCH  27  28
ENDBRANCH  26  27
ENDBRANCH  24  26
ENDBRANCH   4  22
TORSDOF 6
