REMARK  Name = ZINC19938749
REMARK  6 active torsions:
REMARK  status: ('A' for Active; 'I' for Inactive)
REMARK    1  A    between atoms: C_1  and  C_2
REMARK    2  A    between atoms: C_2  and  C_3
REMARK    3  A    between atoms: C_2  and  C_4
REMARK    4  A    between atoms: C_7  and  C_10
REMARK    5  A    between atoms: N_16  and  C_17
REMARK    6  A    between atoms: C_27  and  C_28
REMARK                            x       y       z     vdW  Elec       q    Type
REMARK                         _______ _______ _______ _____ _____    ______ ____
ROOT
ATOM      1  C   UNL     1      -0.636   6.082   0.705  0.00  0.00    +0.146 C 
ATOM      2  C   UNL     1      -0.360   7.525   0.418  0.00  0.00    +0.027 C 
ATOM      3  C   UNL     1       0.982   7.663   0.270  0.00  0.00    +0.098 C 
ATOM      4  C   UNL     1       1.621   6.361   0.501  0.00  0.00    +0.266 C 
ATOM      5  O   UNL     1       2.819   6.157   0.475  0.00  0.00    -0.268 OA
ATOM      6  N   UNL     1       0.681   5.424   0.745  0.00  0.00    -0.255 N 
ATOM      7  N   UNL     1       1.565   8.877  -0.058  0.00  0.00    -0.338 N 
ATOM      8  C   UNL     1       1.288   9.437  -1.386  0.00  0.00    +0.122 C 
ATOM      9  C   UNL     1      -0.186   9.224  -1.742  0.00  0.00    +0.131 C 
ATOM     10  N   UNL     1      -1.104   9.535  -0.652  0.00  0.00    -0.382 N 
ATOM     11  C   UNL     1      -1.267   8.673   0.332  0.00  0.00    +0.050 C 
ATOM     12  H   UNL     1       2.217   9.420   0.643  0.00  0.00    +0.146 HD
ATOM     13  H   UNL     1      -1.659  10.485  -0.648  0.00  0.00    +0.160 HD
ENDROOT
BRANCH  11  14
ATOM     14  C   UNL     1      -2.345   8.861   1.332  0.00  0.00    -0.002 A 
ATOM     15  C   UNL     1      -3.631   9.206   0.917  0.00  0.00    +0.011 A 
ATOM     16  C   UNL     1      -4.632   9.375   1.852  0.00  0.00    +0.020 A 
ATOM     17  C   UNL     1      -4.359   9.213   3.200  0.00  0.00    +0.041 A 
ATOM     18  C   UNL     1      -3.082   8.876   3.617  0.00  0.00    +0.020 A 
ATOM     19  C   UNL     1      -2.075   8.699   2.691  0.00  0.00    +0.011 A 
ATOM     20 CL   UNL     1      -5.622   9.434   4.370  0.00  0.00    -0.084 Cl
ENDBRANCH  11  14
BRANCH   1  24
ATOM     21  C   UNL     1      -2.602   5.677   4.476  0.00  0.00    -0.045 A 
ATOM     22  C   UNL     1      -3.326   5.568   3.303  0.00  0.00    +0.004 A 
ATOM     23  C   UNL     1      -2.690   5.699   2.083  0.00  0.00    +0.006 A 
ATOM     24  C   UNL     1      -1.329   5.939   2.035  0.00  0.00    -0.022 A 
ATOM     25  C   UNL     1      -0.604   6.042   3.208  0.00  0.00    +0.006 A 
ATOM     26  C   UNL     1      -1.241   5.917   4.428  0.00  0.00    +0.004 A 
BRANCH  21  28
ATOM     27  C   UNL     1      -2.686   4.361   6.576  0.00  0.00    +0.012 C 
ATOM     28  C   UNL     1      -3.296   5.535   5.806  0.00  0.00    +0.013 C 
ATOM     29  C   UNL     1      -3.118   6.822   6.614  0.00  0.00    +0.012 C 
ENDBRANCH  21  28
ENDBRANCH   1  24
BRANCH   6  30
ATOM     30  C   UNL     1       0.916   4.069   0.998  0.00  0.00    +0.038 A 
ATOM     31  C   UNL     1       2.215   3.578   1.006  0.00  0.00    +0.023 A 
ATOM     32  C   UNL     1       2.444   2.239   1.255  0.00  0.00    +0.002 A 
ATOM     33  C   UNL     1       1.381   1.388   1.496  0.00  0.00    +0.000 A 
ATOM     34  C   UNL     1       0.086   1.872   1.483  0.00  0.00    +0.002 A 
ATOM     35  C   UNL     1      -0.149   3.211   1.240  0.00  0.00    +0.023 A 
ENDBRANCH   6  30
TORSDOF 4
