REMARK  Name = ZINC20634709
REMARK  3 active torsions:
REMARK  status: ('A' for Active; 'I' for Inactive)
REMARK    1  A    between atoms: C_8  and  C_13
REMARK    2  A    between atoms: C_13  and  C_14
REMARK    3  A    between atoms: N_16  and  C_17
REMARK                            x       y       z     vdW  Elec       q    Type
REMARK                         _______ _______ _______ _____ _____    ______ ____
ROOT
ATOM      1  C   UNL     1       3.990   2.267   4.881  0.00  0.00    +0.002 A 
ATOM      2  C   UNL     1       5.033   1.360   4.840  0.00  0.00    +0.002 A 
ATOM      3  C   UNL     1       5.554   0.948   3.627  0.00  0.00    +0.025 A 
ATOM      4  C   UNL     1       5.026   1.442   2.445  0.00  0.00    +0.055 A 
ATOM      5  C   UNL     1       3.985   2.370   2.489  0.00  0.00    +0.049 A 
ATOM      6  C   UNL     1       3.464   2.775   3.706  0.00  0.00    +0.025 A 
ATOM      7  N   UNL     1       3.487   2.892   1.284  0.00  0.00    -0.331 N 
ATOM      8  C   UNL     1       3.576   2.051   0.081  0.00  0.00    +0.166 C 
ATOM      9  C   UNL     1       4.916   1.359   0.061  0.00  0.00    +0.238 C 
ATOM     10  O   UNL     1       5.439   1.095  -1.001  0.00  0.00    -0.273 OA
ATOM     11  N   UNL     1       5.538   1.032   1.209  0.00  0.00    -0.282 N 
ATOM     12  H   UNL     1       3.042   3.896   1.222  0.00  0.00    +0.147 HD
ATOM     13  H   UNL     1       6.460   0.435   1.166  0.00  0.00    +0.155 HD
ENDROOT
BRANCH   8  14
ATOM     14  C   UNL     1       2.460   1.004   0.105  0.00  0.00    +0.127 C 
BRANCH  14  15
ATOM     15  C   UNL     1       1.124   1.693   0.006  0.00  0.00    +0.219 C 
ATOM     16  O   UNL     1       1.069   2.902  -0.076  0.00  0.00    -0.275 OA
ATOM     17  N   UNL     1      -0.011   0.966   0.007  0.00  0.00    -0.285 N 
ATOM     18  H   UNL     1       0.040  -0.133   0.009  0.00  0.00    +0.155 HD
BRANCH  17  19
ATOM     19  C   UNL     1      -1.255   1.609   0.007  0.00  0.00    +0.036 A 
ATOM     20  C   UNL     1      -1.421   2.801  -0.685  0.00  0.00    +0.026 A 
ATOM     21  C   UNL     1      -2.648   3.435  -0.685  0.00  0.00    +0.043 A 
ATOM     22  C   UNL     1      -3.714   2.883   0.005  0.00  0.00    +0.159 A 
ATOM     23  C   UNL     1      -3.551   1.692   0.698  0.00  0.00    +0.160 A 
ATOM     24  C   UNL     1      -2.325   1.052   0.695  0.00  0.00    +0.064 A 
ATOM     25  F   UNL     1      -4.592   1.155   1.371  0.00  0.00    -0.202 F 
ATOM     26  F   UNL     1      -4.913   3.504   0.004  0.00  0.00    -0.202 F 
ENDBRANCH  17  19
ENDBRANCH  14  15
ENDBRANCH   8  14
TORSDOF 3
