REMARK  Name = ZINC13064590
REMARK  11 active torsions:
REMARK  status: ('A' for Active; 'I' for Inactive)
REMARK    1  A    between atoms: C_1  and  C_2
REMARK    2  A    between atoms: C_2  and  C_3
REMARK    3  A    between atoms: C_3  and  C_5
REMARK    4  A    between atoms: C_3  and  N_70
REMARK    5  A    between atoms: N_9  and  C_10
REMARK    6  A    between atoms: C_15  and  C_16
REMARK    7  A    between atoms: C_15  and  N_70
REMARK    8  A    between atoms: C_20  and  C_29
REMARK    9  A    between atoms: C_21  and  C_28
REMARK   10  A    between atoms: C_30  and  C_31
REMARK   11  A    between atoms: C_30  and  N_70
REMARK                            x       y       z     vdW  Elec       q    Type
REMARK                         _______ _______ _______ _____ _____    ______ ____
ROOT
ATOM      1  N   UNL     1      -1.653  -0.269   0.695  0.00  0.00    +0.391 N 
ATOM      2  H   UNL     1      -1.125  -0.611   1.507  0.00  0.00    -0.080 HD
ENDROOT
BRANCH   1   3
ATOM      3  C   UNL     1      -0.768  -0.272  -0.489  0.00  0.00    +0.003 C 
BRANCH   3   4
ATOM      4  C   UNL     1       0.609   0.167  -0.062  0.00  0.00    +0.138 A 
ATOM      5  N   UNL     1       0.902   1.184   0.710  0.00  0.00    -0.115 NA
ATOM      6  N   UNL     1       2.183   1.230   0.838  0.00  0.00    -0.023 NA
ATOM      7  N   UNL     1       2.715   0.268   0.168  0.00  0.00    -0.044 NA
ATOM      8  N   UNL     1       1.777  -0.410  -0.401  0.00  0.00    -0.228 N 
BRANCH   8   9
ATOM      9  C   UNL     1       1.950  -1.587  -1.257  0.00  0.00    +0.111 C 
ATOM     10  C   UNL     1       2.719  -2.686  -0.494  0.00  0.00    +0.027 C 
ATOM     11  C   UNL     1       3.626  -3.332  -1.571  0.00  0.00    +0.002 C 
ATOM     12  C   UNL     1       4.062  -2.115  -2.425  0.00  0.00    +0.002 C 
ATOM     13  C   UNL     1       2.804  -1.224  -2.485  0.00  0.00    +0.027 C 
ENDBRANCH   8   9
ENDBRANCH   3   4
BRANCH   3  15
ATOM     14  C   UNL     1      -2.629   0.155  -2.101  0.00  0.00    +0.002 C 
ATOM     15  C   UNL     1      -1.301   0.685  -1.557  0.00  0.00    -0.011 C 
ENDBRANCH   3  15
ENDBRANCH   1   3
BRANCH   1  16
ATOM     16  C   UNL     1      -2.809  -1.161   0.465  0.00  0.00    -0.036 C 
BRANCH  16  17
ATOM     17  C   UNL     1      -2.375  -2.584   0.705  0.00  0.00    +0.001 A 
ATOM     18  C   UNL     1      -2.527  -3.138   1.934  0.00  0.00    +0.017 A 
ATOM     19  C   UNL     1      -2.100  -4.524   2.134  0.00  0.00    -0.001 A 
ATOM     20  C   UNL     1      -2.237  -5.152   3.376  0.00  0.00    +0.013 A 
ATOM     21  C   UNL     1      -1.824  -6.444   3.531  0.00  0.00    -0.047 A 
ATOM     22  C   UNL     1      -1.270  -7.141   2.466  0.00  0.00    -0.046 A 
ATOM     23  C   UNL     1      -1.125  -6.543   1.233  0.00  0.00    +0.030 A 
ATOM     24  C   UNL     1      -1.539  -5.228   1.052  0.00  0.00    +0.049 A 
ATOM     25  N   UNL     1      -1.407  -4.605  -0.171  0.00  0.00    -0.322 N 
ATOM     26  H   UNL     1      -1.019  -5.091  -0.916  0.00  0.00    +0.169 HD
ATOM     27  C   UNL     1      -1.807  -3.333  -0.347  0.00  0.00    +0.251 A 
ATOM     28  O   UNL     1      -1.674  -2.815  -1.442  0.00  0.00    -0.268 OA
ATOM     29  C   UNL     1      -0.821  -8.567   2.661  0.00  0.00    +0.044 C 
ATOM     30  C   UNL     1      -1.972  -7.120   4.870  0.00  0.00    +0.044 C 
ENDBRANCH  16  17
ENDBRANCH   1  16
BRANCH   1  31
ATOM     31  C   UNL     1      -2.123   1.105   0.971  0.00  0.00    -0.045 C 
BRANCH  31  32
ATOM     32  C   UNL     1      -2.697   1.152   2.389  0.00  0.00    +0.102 C 
ATOM     33  C   UNL     1      -3.213   2.572   2.713  0.00  0.00    +0.032 C 
ATOM     34  C   UNL     1      -2.852   2.772   4.202  0.00  0.00    +0.030 C 
ATOM     35  C   UNL     1      -2.160   1.450   4.601  0.00  0.00    +0.160 C 
ATOM     36  O   UNL     1      -1.657   0.907   3.361  0.00  0.00    -0.378 OA
ENDBRANCH  31  32
ENDBRANCH   1  31
TORSDOF 8
