REMARK  Name = ZINC16267264
REMARK  14 active torsions:
REMARK  status: ('A' for Active; 'I' for Inactive)
REMARK    1  A    between atoms: C_1  and  C_2
REMARK    2  A    between atoms: C_4  and  C_36
REMARK    3  A    between atoms: C_5  and  N_9
REMARK    4  A    between atoms: C_6  and  C_8
REMARK    5  A    between atoms: N_12  and  C_13
REMARK    6  A    between atoms: C_13  and  C_14
REMARK    7  A    between atoms: C_17  and  C_22
REMARK    8  A    between atoms: C_19  and  C_20
REMARK    9  A    between atoms: C_19  and  C_21
REMARK   10  A    between atoms: C_22  and  N_23
REMARK   11  A    between atoms: N_26  and  C_27
REMARK   12  A    between atoms: C_28  and  C_35
REMARK   13  A    between atoms: C_30  and  C_34
REMARK   14  A    between atoms: C_32  and  C_33
REMARK                            x       y       z     vdW  Elec       q    Type
REMARK                         _______ _______ _______ _____ _____    ______ ____
ROOT
ATOM      1  C   UNL     1       0.088   5.408   0.352  0.00  0.00    +0.012 C 
ATOM      2  C   UNL     1      -0.041   6.531  -0.691  0.00  0.00    +0.011 C 
ATOM      3  C   UNL     1      -0.420   5.438  -1.705  0.00  0.00    +0.012 C 
ATOM      4  C   UNL     1       0.370   4.456  -0.823  0.00  0.00    -0.026 C 
ATOM      5  C   UNL     1       1.852   4.358  -1.191  0.00  0.00    +0.011 C 
ATOM      6  C   UNL     1      -0.300   3.088  -0.678  0.00  0.00    +0.011 C 
ENDROOT
BRANCH   1   7
ATOM      7  C   UNL     1       1.278   5.583   1.297  0.00  0.00    +0.109 C 
BRANCH   7  11
ATOM      8  N   UNL     1       1.398   7.453   4.461  0.00  0.00    -0.269 N 
ATOM      9  C   UNL     1       1.768   6.695   3.409  0.00  0.00    +0.304 C 
ATOM     10  O   UNL     1       2.905   6.272   3.334  0.00  0.00    -0.253 OA
ATOM     11  N   UNL     1       0.876   6.407   2.440  0.00  0.00    -0.299 N 
ATOM     12  H   UNL     1       0.506   7.832   4.495  0.00  0.00    +0.156 HD
ATOM     13  H   UNL     1      -0.031   6.744   2.500  0.00  0.00    +0.150 HD
BRANCH   8  18
ATOM     14  C   UNL     1       5.059   8.418   8.686  0.00  0.00    +0.044 C 
ATOM     15  C   UNL     1       4.086   8.162   7.564  0.00  0.00    -0.050 A 
ATOM     16  C   UNL     1       3.440   9.222   6.955  0.00  0.00    +0.008 A 
ATOM     17  C   UNL     1       2.549   8.990   5.926  0.00  0.00    -0.029 A 
ATOM     18  C   UNL     1       2.301   7.691   5.503  0.00  0.00    +0.041 A 
ATOM     19  C   UNL     1       2.947   6.628   6.121  0.00  0.00    -0.029 A 
ATOM     20  C   UNL     1       3.842   6.867   7.145  0.00  0.00    +0.008 A 
ATOM     21  C   UNL     1       2.677   5.216   5.669  0.00  0.00    +0.045 C 
ATOM     22  C   UNL     1       1.845  10.146   5.263  0.00  0.00    +0.045 C 
ENDBRANCH   8  18
ENDBRANCH   7  11
ENDBRANCH   1   7
BRANCH   3  23
ATOM     23  C   UNL     1      -1.920   5.144  -1.758  0.00  0.00    +0.109 C 
BRANCH  23  24
ATOM     24  N   UNL     1      -2.563   6.053  -2.710  0.00  0.00    -0.299 N 
ATOM     25  C   UNL     1      -3.892   5.978  -2.923  0.00  0.00    +0.304 C 
ATOM     26  O   UNL     1      -4.557   5.155  -2.324  0.00  0.00    -0.253 OA
ATOM     27  N   UNL     1      -4.483   6.814  -3.799  0.00  0.00    -0.269 N 
ATOM     28  H   UNL     1      -2.032   6.710  -3.188  0.00  0.00    +0.150 HD
ATOM     29  H   UNL     1      -3.961   7.504  -4.238  0.00  0.00    +0.156 HD
BRANCH  27  30
ATOM     30  C   UNL     1      -5.849   6.687  -4.075  0.00  0.00    +0.041 A 
ATOM     31  C   UNL     1      -6.372   5.455  -4.447  0.00  0.00    -0.029 A 
ATOM     32  C   UNL     1      -7.721   5.332  -4.713  0.00  0.00    +0.008 A 
ATOM     33  C   UNL     1      -8.549   6.436  -4.621  0.00  0.00    -0.050 A 
ATOM     34  C   UNL     1      -8.031   7.664  -4.256  0.00  0.00    +0.008 A 
ATOM     35  C   UNL     1      -6.683   7.793  -3.983  0.00  0.00    -0.029 A 
ATOM     36  C   UNL     1      -6.119   9.133  -3.585  0.00  0.00    +0.045 C 
ATOM     37  C   UNL     1     -10.021   6.299  -4.918  0.00  0.00    +0.044 C 
ATOM     38  C   UNL     1      -5.469   4.254  -4.555  0.00  0.00    +0.045 C 
ENDBRANCH  27  30
ENDBRANCH  23  24
ENDBRANCH   3  23
TORSDOF 6
