REMARK  Name = ZINC34830568
REMARK  9 active torsions:
REMARK  status: ('A' for Active; 'I' for Inactive)
REMARK    1  A    between atoms: C_1  and  C_2
REMARK    2  A    between atoms: C_2  and  C_3
REMARK    3  A    between atoms: C_3  and  C_4
REMARK    4  A    between atoms: C_4  and  N_5
REMARK    5  A    between atoms: C_15  and  C_17
REMARK    6  A    between atoms: C_17  and  C_19
REMARK    7  A    between atoms: C_17  and  N_20
REMARK    8  A    between atoms: C_28  and  C_30
REMARK    9  A    between atoms: C_35  and  C_36
REMARK                            x       y       z     vdW  Elec       q    Type
REMARK                         _______ _______ _______ _____ _____    ______ ____
ROOT
ATOM      1  C   UNL     1       3.481  -4.297   8.324  0.00  0.00    +0.018 C 
ATOM      2  C   UNL     1       2.844  -3.032   8.901  0.00  0.00    -0.004 C 
ENDROOT
BRANCH   1  13
ATOM      3  N   UNL     1      -0.145  -5.722   3.413  0.00  0.00    -0.299 N 
ATOM      4  C   UNL     1       0.397  -6.760   4.081  0.00  0.00    +0.302 C 
ATOM      5  O   UNL     1      -0.010  -7.889   3.884  0.00  0.00    -0.253 OA
ATOM      6  N   UNL     1       1.390  -6.547   4.967  0.00  0.00    -0.284 N 
ATOM      7  C   UNL     1       1.987  -7.619   5.684  0.00  0.00    +0.111 C 
ATOM      8  C   UNL     1       1.216  -8.050   6.974  0.00  0.00    +0.038 C 
ATOM      9  C   UNL     1       0.664  -6.749   7.642  0.00  0.00    +0.109 C 
ATOM     10  N   UNL     1       1.538  -5.631   7.572  0.00  0.00    -0.301 N 
ATOM     11  C   UNL     1       1.314  -4.665   6.466  0.00  0.00    +0.126 C 
ATOM     12  C   UNL     1       1.912  -5.182   5.233  0.00  0.00    +0.128 C 
ATOM     13  C   UNL     1       2.526  -5.454   8.472  0.00  0.00    +0.202 C 
ATOM     14  O   UNL     1       2.647  -6.225   9.399  0.00  0.00    -0.277 OA
ATOM     15  H   UNL     1       0.180  -4.822   3.571  0.00  0.00    +0.150 HD
BRANCH   3  16
ATOM     16  C   UNL     1      -1.224  -5.954   2.450  0.00  0.00    +0.106 C 
BRANCH  16  17
ATOM     17  C   UNL     1      -1.656  -4.620   1.837  0.00  0.00    +0.018 C 
BRANCH  17  19
ATOM     18  C   UNL     1      -3.214  -3.528   0.218  0.00  0.00    +0.004 C 
ATOM     19  C   UNL     1      -2.783  -4.862   0.831  0.00  0.00    -0.002 C 
ENDBRANCH  17  19
ENDBRANCH  16  17
ENDBRANCH   3  16
ENDBRANCH   1  13
BRANCH   1  20
ATOM     20  N   UNL     1       4.725  -4.593   9.048  0.00  0.00    +0.395 N 
ATOM     21  C   UNL     1       4.425  -4.754  10.477  0.00  0.00    -0.071 C 
ATOM     22  C   UNL     1       5.745  -4.732  11.267  0.00  0.00    +0.024 C 
ATOM     23  C   UNL     1       6.701  -5.647  10.574  0.00  0.00    -0.010 A 
ATOM     24  C   UNL     1       6.557  -6.170   9.324  0.00  0.00    -0.047 A 
ATOM     25  C   UNL     1       7.576  -7.010   8.880  0.00  0.00    +0.010 A 
ATOM     26  C   UNL     1       8.639  -7.264   9.679  0.00  0.00    +0.045 A 
ATOM     27  S   UNL     1       8.244  -6.307  11.136  0.00  0.00    -0.101 S 
ATOM     28  C   UNL     1       5.324  -5.816   8.499  0.00  0.00    -0.005 C 
ATOM     29  H   UNL     1       5.369  -3.826   8.928  0.00  0.00    -0.079 HD
BRANCH  28  30
ATOM     30  C   UNL     1       5.724  -5.583   7.065  0.00  0.00    -0.054 A 
ATOM     31  C   UNL     1       6.031  -4.307   6.632  0.00  0.00    +0.002 A 
ATOM     32  C   UNL     1       6.399  -4.094   5.316  0.00  0.00    +0.000 A 
ATOM     33  C   UNL     1       6.459  -5.157   4.434  0.00  0.00    +0.000 A 
ATOM     34  C   UNL     1       6.153  -6.433   4.868  0.00  0.00    +0.003 A 
ATOM     35  C   UNL     1       5.790  -6.647   6.185  0.00  0.00    -0.049 A 
ATOM     36  C   UNL     1       5.461  -8.039   6.659  0.00  0.00    +0.044 C 
ENDBRANCH  28  30
ENDBRANCH   1  20
TORSDOF 6
