REMARK  Name = ZINC39855035
REMARK  6 active torsions:
REMARK  status: ('A' for Active; 'I' for Inactive)
REMARK    1  A    between atoms: C_1  and  C_2
REMARK    2  A    between atoms: C_2  and  C_35
REMARK    3  A    between atoms: C_7  and  C_20
REMARK    4  A    between atoms: N_22  and  N_23
REMARK    5  A    between atoms: C_24  and  C_26
REMARK    6  A    between atoms: C_31  and  N_32
REMARK                            x       y       z     vdW  Elec       q    Type
REMARK                         _______ _______ _______ _____ _____    ______ ____
ROOT
ATOM      1  C   UNL     1       2.417   1.905   0.542  0.00  0.00    +0.013 C 
ATOM      2  C   UNL     1       2.124   0.412   0.372  0.00  0.00    -0.007 C 
ATOM      3  C   UNL     1       3.230  -0.322  -0.472  0.00  0.00    +0.047 C 
ATOM      4  C   UNL     1       2.766  -1.804  -0.312  0.00  0.00    +0.012 C 
ATOM      5  C   UNL     1       2.208  -1.871   1.130  0.00  0.00    +0.024 C 
ATOM      6  C   UNL     1       2.412  -0.406   1.684  0.00  0.00    +0.098 C 
ATOM      7  C   UNL     1       3.929  -0.226   1.784  0.00  0.00    +0.079 A 
ATOM      8  C   UNL     1       4.427  -0.175   0.472  0.00  0.00    +0.068 A 
ATOM      9  N   UNL     1       5.706  -0.027   0.246  0.00  0.00    -0.248 NA
ATOM     10  C   UNL     1       6.550   0.080   1.280  0.00  0.00    +0.091 A 
ATOM     11  C   UNL     1       7.931   0.242   1.073  0.00  0.00    +0.051 A 
ATOM     12  C   UNL     1       8.765   0.351   2.143  0.00  0.00    +0.061 A 
ATOM     13  C   UNL     1       8.269   0.304   3.448  0.00  0.00    +0.061 A 
ATOM     14  C   UNL     1       6.938   0.147   3.686  0.00  0.00    +0.051 A 
ATOM     15  C   UNL     1       6.046   0.031   2.605  0.00  0.00    +0.091 A 
ATOM     16  N   UNL     1       4.732  -0.124   2.810  0.00  0.00    -0.247 NA
ATOM     17 CL   UNL     1       9.366   0.447   4.786  0.00  0.00    -0.082 Cl
ATOM     18 CL   UNL     1      10.470   0.550   1.882  0.00  0.00    -0.082 Cl
ATOM     19  C   UNL     1       0.716   0.165  -0.171  0.00  0.00    +0.013 C 
ENDROOT
BRANCH   6  20
ATOM     20  C   UNL     1       1.601  -0.036   2.900  0.00  0.00    +0.242 C 
ATOM     21  O   UNL     1       0.778   0.853   2.832  0.00  0.00    -0.273 OA
ATOM     22  N   UNL     1       1.791  -0.692   4.061  0.00  0.00    -0.233 N 
ATOM     23  H   UNL     1       2.449  -1.403   4.115  0.00  0.00    +0.173 HD
BRANCH  22  24
ATOM     24  N   UNL     1       1.037  -0.348   5.191  0.00  0.00    -0.230 N 
ATOM     25  C   UNL     1       1.227  -1.005   6.353  0.00  0.00    +0.262 C 
ATOM     26  O   UNL     1       2.051  -1.895   6.420  0.00  0.00    -0.269 OA
ATOM     27  H   UNL     1       0.379   0.362   5.138  0.00  0.00    +0.173 HD
BRANCH  25  28
ATOM     28  C   UNL     1       0.431  -0.642   7.545  0.00  0.00    +0.068 A 
ATOM     29  C   UNL     1       0.413   0.677   8.001  0.00  0.00    +0.015 A 
ATOM     30  C   UNL     1      -0.331   1.009   9.114  0.00  0.00    +0.001 A 
ATOM     31  C   UNL     1      -1.059   0.038   9.778  0.00  0.00    +0.002 A 
ATOM     32  C   UNL     1      -1.045  -1.272   9.332  0.00  0.00    +0.033 A 
ATOM     33  C   UNL     1      -0.309  -1.616   8.217  0.00  0.00    +0.138 A 
BRANCH  33  34
ATOM     34  N   UNL     1      -0.300  -3.016   7.737  0.00  0.00    +0.057 N 
ATOM     35  O   UNL     1      -0.841  -3.881   8.387  0.00  0.00    -0.126 OA
ATOM     36  O   UNL     1       0.246  -3.295   6.696  0.00  0.00    -0.126 OA
ENDBRANCH  33  34
ENDBRANCH  25  28
ENDBRANCH  22  24
ENDBRANCH   6  20
TORSDOF 4
