REMARK  Name = ZINC37325387
REMARK  3 active torsions:
REMARK  status: ('A' for Active; 'I' for Inactive)
REMARK    1  A    between atoms: C_3  and  N_8
REMARK    2  A    between atoms: C_6  and  N_7
REMARK    3  A    between atoms: C_9  and  C_11
REMARK                            x       y       z     vdW  Elec       q    Type
REMARK                         _______ _______ _______ _____ _____    ______ ____
ROOT
ATOM      1  N   UNL     1       3.598   2.009  -0.021  0.00  0.00    -0.270 N 
ATOM      2  C   UNL     1       3.628   3.353  -0.116  0.00  0.00    +0.224 C 
ATOM      3  O   UNL     1       2.593   3.985  -0.103  0.00  0.00    -0.275 OA
ATOM      4  H   UNL     1       4.427   1.508   0.042  0.00  0.00    +0.156 HD
ENDROOT
BRANCH   2   5
ATOM      5  C   UNL     1       4.948   4.070  -0.239  0.00  0.00    +0.048 C 
ATOM      6  C   UNL     1       5.809   3.767   0.989  0.00  0.00    +0.019 C 
ATOM      7  C   UNL     1       7.148   4.495   0.865  0.00  0.00    -0.009 C 
ATOM      8  C   UNL     1       6.903   6.003   0.774  0.00  0.00    +0.007 C 
ATOM      9  C   UNL     1       6.042   6.306  -0.454  0.00  0.00    -0.009 C 
ATOM     10  C   UNL     1       4.702   5.577  -0.330  0.00  0.00    +0.019 C 
ATOM     11  C   UNL     1       6.766   5.830  -1.715  0.00  0.00    +0.007 C 
ATOM     12  C   UNL     1       7.012   4.323  -1.624  0.00  0.00    -0.009 C 
ATOM     13  C   UNL     1       7.873   4.020  -0.396  0.00  0.00    +0.007 C 
ATOM     14  C   UNL     1       5.672   3.594  -1.500  0.00  0.00    +0.019 C 
ENDBRANCH   2   5
BRANCH   1  17
ATOM     15  C   UNL     1       1.137  -0.710  -0.018  0.00  0.00    +0.027 A 
ATOM     16  C   UNL     1       2.354  -0.053  -0.024  0.00  0.00    +0.045 A 
ATOM     17  C   UNL     1       2.374   1.336  -0.015  0.00  0.00    +0.125 A 
ATOM     18  N   UNL     1       1.247   2.029  -0.000  0.00  0.00    -0.238 NA
ATOM     19  C   UNL     1       0.069   1.437   0.006  0.00  0.00    +0.135 A 
ATOM     20  C   UNL     1      -0.029   0.053  -0.003  0.00  0.00    +0.043 A 
BRANCH  20  21
ATOM     21  N   UNL     1      -1.283  -0.569   0.004  0.00  0.00    -0.357 N 
ATOM     22  H   UNL     1      -1.345  -1.536  -0.003  0.00  0.00    +0.142 HD
ATOM     23  H   UNL     1      -2.091  -0.031   0.014  0.00  0.00    +0.142 HD
ENDBRANCH  20  21
ENDBRANCH   1  17
TORSDOF 3
