REMARK  Name = ZINC19527230
REMARK  7 active torsions:
REMARK  status: ('A' for Active; 'I' for Inactive)
REMARK    1  A    between atoms: C_1  and  C_2
REMARK    2  A    between atoms: C_2  and  N_3
REMARK    3  A    between atoms: C_7  and  C_9
REMARK    4  A    between atoms: C_9  and  N_10
REMARK    5  A    between atoms: C_11  and  C_13
REMARK    6  A    between atoms: C_13  and  N_14
REMARK    7  A    between atoms: C_23  and  C_25
REMARK                            x       y       z     vdW  Elec       q    Type
REMARK                         _______ _______ _______ _____ _____    ______ ____
ROOT
ATOM      1  N   UNL     1       0.554  -1.555  -0.311  0.00  0.00    -0.179 N 
ATOM      2  C   UNL     1       1.457  -2.393  -0.828  0.00  0.00    +0.283 C 
ATOM      3  O   UNL     1       1.387  -3.580  -0.565  0.00  0.00    -0.267 OA
ATOM      4  C   UNL     1       2.528  -1.916  -1.703  0.00  0.00    +0.108 A 
ATOM      5  C   UNL     1       3.083  -2.570  -2.777  0.00  0.00    +0.048 A 
ATOM      6  C   UNL     1       4.082  -1.753  -3.286  0.00  0.00    +0.038 A 
ATOM      7  C   UNL     1       4.152  -0.576  -2.529  0.00  0.00    +0.057 A 
ATOM      8  N   UNL     1       3.160  -0.694  -1.564  0.00  0.00    -0.330 N 
ATOM      9  C   UNL     1       2.798   0.315  -0.562  0.00  0.00    +0.180 C 
ATOM     10  C   UNL     1       1.341   0.657  -0.754  0.00  0.00    +0.086 C 
ATOM     11  N   UNL     1       0.413  -0.220  -0.624  0.00  0.00    -0.179 NA
ATOM     12  C   UNL     1       5.131   0.346  -2.925  0.00  0.00    +0.034 A 
ATOM     13  C   UNL     1       5.927   0.077  -3.982  0.00  0.00    +0.048 A 
ATOM     14  S   UNL     1       5.350  -1.528  -4.507  0.00  0.00    -0.095 S 
ENDROOT
BRANCH  10  15
ATOM     15  C   UNL     1       0.973   2.042  -1.101  0.00  0.00    -0.000 A 
ATOM     16  C   UNL     1       1.942   3.048  -1.098  0.00  0.00    +0.010 A 
ATOM     17  C   UNL     1       1.591   4.340  -1.429  0.00  0.00    +0.001 A 
ATOM     18  C   UNL     1       0.280   4.644  -1.751  0.00  0.00    +0.000 A 
ATOM     19  C   UNL     1      -0.686   3.654  -1.751  0.00  0.00    +0.001 A 
ATOM     20  C   UNL     1      -0.349   2.356  -1.428  0.00  0.00    +0.010 A 
ENDBRANCH  10  15
BRANCH   1  21
ATOM     21  C   UNL     1      -0.372  -2.106   0.682  0.00  0.00    +0.231 C 
BRANCH  21  23
ATOM     22  N   UNL     1      -0.460  -2.395   3.137  0.00  0.00    -0.315 N 
ATOM     23  C   UNL     1       0.220  -1.955   2.059  0.00  0.00    +0.232 C 
ATOM     24  O   UNL     1       1.308  -1.439   2.198  0.00  0.00    -0.274 OA
ATOM     25  H   UNL     1      -1.447  -2.864   3.011  0.00  0.00    +0.149 HD
BRANCH  22  26
ATOM     26  C   UNL     1       0.116  -2.249   4.476  0.00  0.00    +0.089 C 
BRANCH  26  31
ATOM     27  N   UNL     1      -0.163  -2.900   6.832  0.00  0.00    +0.382 N 
ATOM     28  C   UNL     1      -1.030  -2.130   7.748  0.00  0.00    -0.078 C 
ATOM     29  C   UNL     1      -2.446  -2.226   7.127  0.00  0.00    -0.020 C 
ATOM     30  C   UNL     1      -2.130  -2.162   5.607  0.00  0.00    -0.016 C 
ATOM     31  C   UNL     1      -0.795  -2.929   5.500  0.00  0.00    -0.051 C 
ATOM     32  H   UNL     1      -0.043  -3.927   7.206  0.00  0.00    -0.081 HD
BRANCH  27  34
ATOM     33  C   UNL     1       1.766  -2.209   8.173  0.00  0.00    -0.017 C 
ATOM     34  C   UNL     1       1.182  -2.313   6.763  0.00  0.00    -0.082 C 
ENDBRANCH  27  34
ENDBRANCH  26  31
ENDBRANCH  22  26
ENDBRANCH  21  23
ENDBRANCH   1  21
TORSDOF 6
