REMARK  Name = ZINC45916153
REMARK  6 active torsions:
REMARK  status: ('A' for Active; 'I' for Inactive)
REMARK    1  A    between atoms: C_1  and  C_2
REMARK    2  A    between atoms: C_2  and  C_3
REMARK    3  A    between atoms: C_2  and  O_4
REMARK    4  A    between atoms: O_4  and  C_5
REMARK    5  A    between atoms: C_5  and  C_7
REMARK    6  A    between atoms: C_12  and  N_13
REMARK                            x       y       z     vdW  Elec       q    Type
REMARK                         _______ _______ _______ _____ _____    ______ ____
ROOT
ATOM      1  C   UNL     1      -2.906  -2.287  -0.575  0.00  0.00    +0.080 A 
ATOM      2  C   UNL     1      -3.945  -1.653   0.107  0.00  0.00    +0.017 A 
ATOM      3  C   UNL     1      -5.233  -2.151   0.040  0.00  0.00    +0.013 A 
ATOM      4  C   UNL     1      -5.509  -3.292  -0.709  0.00  0.00    +0.035 A 
ATOM      5  C   UNL     1      -4.474  -3.944  -1.403  0.00  0.00    +0.054 A 
ATOM      6  C   UNL     1      -3.168  -3.438  -1.341  0.00  0.00    +0.050 A 
ATOM      7  C   UNL     1      -4.762  -5.151  -2.196  0.00  0.00    +0.196 C 
ATOM      8  O   UNL     1      -3.866  -5.713  -2.795  0.00  0.00    -0.287 OA
ATOM      9  C   UNL     1      -6.141  -5.680  -2.263  0.00  0.00    +0.033 A 
ATOM     10  C   UNL     1      -6.420  -6.821  -3.009  0.00  0.00    +0.012 A 
ATOM     11  C   UNL     1      -7.713  -7.309  -3.066  0.00  0.00    +0.001 A 
ATOM     12  C   UNL     1      -8.734  -6.670  -2.385  0.00  0.00    +0.001 A 
ATOM     13  C   UNL     1      -8.474  -5.534  -1.639  0.00  0.00    +0.012 A 
ATOM     14  C   UNL     1      -7.178  -5.030  -1.571  0.00  0.00    +0.033 A 
ATOM     15  C   UNL     1      -6.891  -3.819  -0.775  0.00  0.00    +0.195 C 
ATOM     16  O   UNL     1      -7.786  -3.257  -0.176  0.00  0.00    -0.287 OA
ENDROOT
BRANCH   6  17
ATOM     17  N   UNL     1      -2.147  -4.066  -2.023  0.00  0.00    -0.357 N 
ATOM     18  H   UNL     1      -1.247  -4.061  -1.660  0.00  0.00    +0.142 HD
ATOM     19  H   UNL     1      -2.328  -4.513  -2.864  0.00  0.00    +0.142 HD
ENDBRANCH   6  17
BRANCH   1  20
ATOM     20  C   UNL     1      -1.536  -1.748  -0.498  0.00  0.00    +0.341 C 
ATOM     21  O   UNL     1      -0.625  -2.321  -1.063  0.00  0.00    -0.245 OA
BRANCH  20  22
ATOM     22  O   UNL     1      -1.293  -0.621   0.199  0.00  0.00    -0.458 OA
BRANCH  22  24
ATOM     23  C   UNL     1       0.070   1.369   0.361  0.00  0.00    +0.052 C 
ATOM     24  C   UNL     1       0.058  -0.156   0.231  0.00  0.00    +0.171 C 
ATOM     25  C   UNL     1       0.782  -0.775   1.429  0.00  0.00    +0.052 C 
ENDBRANCH  22  24
ENDBRANCH  20  22
ENDBRANCH   1  20
TORSDOF 4
