REMARK  Name = ZINC12811908
REMARK  6 active torsions:
REMARK  status: ('A' for Active; 'I' for Inactive)
REMARK    1  A    between atoms: C_1  and  C_2
REMARK    2  A    between atoms: C_3  and  C_25
REMARK    3  A    between atoms: C_4  and  C_24
REMARK    4  A    between atoms: C_7  and  C_8
REMARK    5  A    between atoms: C_11  and  C_17
REMARK    6  A    between atoms: C_25  and  C_27
REMARK                            x       y       z     vdW  Elec       q    Type
REMARK                         _______ _______ _______ _____ _____    ______ ____
ROOT
ATOM      1  C   UNL     1      -0.403  -0.604   2.613  0.00  0.00    +0.096 C 
ATOM      2  N   UNL     1      -0.277   0.647   2.890  0.00  0.00    -0.165 NA
ATOM      3  N   UNL     1      -0.124   1.150   4.177  0.00  0.00    -0.186 N 
ATOM      4  C   UNL     1      -0.295   2.404   4.689  0.00  0.00    +0.186 A 
ATOM      5  N   UNL     1      -0.002   2.339   5.974  0.00  0.00    -0.126 NA
ATOM      6  N   UNL     1       0.335   1.134   6.293  0.00  0.00    -0.120 NA
ATOM      7  C   UNL     1       0.274   0.374   5.247  0.00  0.00    +0.213 A 
ATOM      8  S   UNL     1       0.595  -1.350   5.039  0.00  0.00    -0.078 S 
ATOM      9  C   UNL     1      -0.459  -1.734   3.599  0.00  0.00    +0.136 C 
ENDROOT
BRANCH   1  16
ATOM     10  C   UNL     1       1.692  -2.261   1.007  0.00  0.00    +0.047 C 
ATOM     11  C   UNL     1       0.403  -1.682   0.484  0.00  0.00    -0.013 A 
ATOM     12  C   UNL     1      -0.097  -1.793  -0.840  0.00  0.00    +0.041 A 
ATOM     13  C   UNL     1      -1.303  -1.116  -0.874  0.00  0.00    +0.024 A 
ATOM     14  N   UNL     1      -1.541  -0.614   0.351  0.00  0.00    -0.356 N 
ATOM     15  H   UNL     1      -2.321  -0.095   0.603  0.00  0.00    +0.166 HD
ATOM     16  C   UNL     1      -0.508  -0.959   1.193  0.00  0.00    +0.067 A 
ATOM     17  C   UNL     1      -2.197  -0.965  -2.078  0.00  0.00    +0.064 C 
BRANCH  12  18
ATOM     18  C   UNL     1       0.543  -2.492  -1.958  0.00  0.00    +0.162 C 
ATOM     19  O   UNL     1       1.378  -1.923  -2.630  0.00  0.00    -0.292 OA
ATOM     20  C   UNL     1       0.165  -3.916  -2.272  0.00  0.00    +0.091 C 
ENDBRANCH  12  18
ENDBRANCH   1  16
BRANCH   4  21
ATOM     21  C   UNL     1      -0.727   3.606   3.945  0.00  0.00    +0.021 A 
ATOM     22  C   UNL     1      -0.688   3.618   2.550  0.00  0.00    +0.013 A 
ATOM     23  C   UNL     1      -1.092   4.742   1.861  0.00  0.00    +0.021 A 
ATOM     24  C   UNL     1      -1.535   5.859   2.551  0.00  0.00    +0.041 A 
ATOM     25  C   UNL     1      -1.575   5.853   3.936  0.00  0.00    +0.021 A 
ATOM     26  C   UNL     1      -1.179   4.732   4.635  0.00  0.00    +0.013 A 
ATOM     27 CL   UNL     1      -2.041   7.271   1.678  0.00  0.00    -0.084 Cl
ENDBRANCH   4  21
TORSDOF 3
