REMARK  Name = ZINC46086775
REMARK  10 active torsions:
REMARK  status: ('A' for Active; 'I' for Inactive)
REMARK    1  A    between atoms: C_1  and  O_2
REMARK    2  A    between atoms: O_2  and  C_3
REMARK    3  A    between atoms: C_6  and  C_11
REMARK    4  A    between atoms: C_8  and  O_9
REMARK    5  A    between atoms: O_9  and  C_10
REMARK    6  A    between atoms: C_13  and  C_16
REMARK    7  A    between atoms: N_18  and  C_19
REMARK    8  A    between atoms: C_20  and  C_28
REMARK    9  A    between atoms: N_30  and  C_31
REMARK   10  A    between atoms: C_31  and  C_32
REMARK                            x       y       z     vdW  Elec       q    Type
REMARK                         _______ _______ _______ _____ _____    ______ ____
ROOT
ATOM      1  C   UNL     1       4.438  -2.673   7.464  0.00  0.00    +0.270 C 
ATOM      2  O   UNL     1       4.635  -1.538   7.850  0.00  0.00    -0.268 OA
ATOM      3  N   UNL     1       4.889  -3.718   8.186  0.00  0.00    -0.274 N 
ATOM      4  H   UNL     1       4.732  -4.625   7.877  0.00  0.00    +0.156 HD
ENDROOT
BRANCH   3   5
ATOM      5  C   UNL     1       5.576  -3.498   9.369  0.00  0.00    +0.085 A 
ATOM      6  C   UNL     1       6.112  -4.442  10.231  0.00  0.00    +0.069 A 
ATOM      7  C   UNL     1       6.792  -3.949  11.416  0.00  0.00    -0.023 A 
ATOM      8  C   UNL     1       6.811  -2.602  11.521  0.00  0.00    -0.004 A 
ATOM      9  S   UNL     1       5.956  -2.027  10.083  0.00  0.00    -0.077 S 
ATOM     10  C   UNL     1       7.428  -1.794  12.621  0.00  0.00    +0.043 C 
ATOM     11  C   UNL     1       7.711  -2.730  13.806  0.00  0.00    +0.005 C 
ATOM     12  C   UNL     1       8.418  -3.986  13.288  0.00  0.00    +0.005 C 
ATOM     13  C   UNL     1       7.441  -4.833  12.470  0.00  0.00    +0.037 C 
BRANCH   6  14
ATOM     14  C   UNL     1       5.998  -5.878   9.959  0.00  0.00    +0.247 C 
ATOM     15  O   UNL     1       6.859  -6.446   9.312  0.00  0.00    -0.270 OA
ATOM     16  N   UNL     1       4.939  -6.570  10.424  0.00  0.00    -0.308 N 
ATOM     17  H   UNL     1       4.253  -6.118  10.939  0.00  0.00    +0.149 HD
BRANCH  16  18
ATOM     18  C   UNL     1       4.824  -8.005  10.152  0.00  0.00    +0.131 C 
BRANCH  18  19
ATOM     19  C   UNL     1       3.560  -8.536  10.777  0.00  0.00    -0.016 C 
ATOM     20  C   UNL     1       2.685  -9.176  10.043  0.00  0.00    +0.005 C 
ENDBRANCH  18  19
ENDBRANCH  16  18
ENDBRANCH   6  14
ENDBRANCH   3   5
BRANCH   1  23
ATOM     21  C   UNL     1       2.580  -2.536   4.295  0.00  0.00    +0.168 A 
ATOM     22  C   UNL     1       3.178  -1.913   5.346  0.00  0.00    +0.086 A 
ATOM     23  C   UNL     1       3.703  -2.909   6.198  0.00  0.00    +0.169 A 
ATOM     24  N   UNL     1       3.427  -4.079   5.672  0.00  0.00    -0.073 NA
ATOM     25  O   UNL     1       2.711  -3.864   4.470  0.00  0.00    -0.354 OA
BRANCH  21  29
ATOM     26  C   UNL     1       0.626  -0.619   1.042  0.00  0.00    +0.162 A 
ATOM     27  C   UNL     1       1.202   0.141   2.050  0.00  0.00    +0.050 A 
ATOM     28  C   UNL     1       1.836  -0.478   3.107  0.00  0.00    +0.015 A 
ATOM     29  C   UNL     1       1.900  -1.871   3.163  0.00  0.00    +0.024 A 
ATOM     30  C   UNL     1       1.320  -2.636   2.149  0.00  0.00    +0.061 A 
ATOM     31  C   UNL     1       0.681  -2.010   1.095  0.00  0.00    +0.162 A 
BRANCH  26  33
ATOM     32  C   UNL     1      -0.017   1.425   0.010  0.00  0.00    +0.277 C 
ATOM     33  O   UNL     1       0.002  -0.004   0.002  0.00  0.00    -0.491 OA
ENDBRANCH  26  33
BRANCH  31  34
ATOM     34  O   UNL     1       0.111  -2.751   0.108  0.00  0.00    -0.491 OA
ATOM     35  C   UNL     1       0.205  -4.172   0.228  0.00  0.00    +0.277 C 
ENDBRANCH  31  34
ENDBRANCH  21  29
ENDBRANCH   1  23
TORSDOF 8
