REMARK  Name = ZINC07901115
REMARK  7 active torsions:
REMARK  status: ('A' for Active; 'I' for Inactive)
REMARK    1  A    between atoms: C_1  and  C_2
REMARK    2  A    between atoms: C_9  and  S_12
REMARK    3  A    between atoms: S_12  and  C_13
REMARK    4  A    between atoms: C_13  and  C_14
REMARK    5  A    between atoms: C_14  and  C_16
REMARK    6  A    between atoms: N_25  and  S_26
REMARK    7  A    between atoms: S_26  and  C_29
REMARK                            x       y       z     vdW  Elec       q    Type
REMARK                         _______ _______ _______ _____ _____    ______ ____
ROOT
ATOM      1  C   UNL     1       2.491   1.124  -0.242  0.00  0.00    +0.173 C 
ATOM      2  O   UNL     1       2.520  -0.089  -0.249  0.00  0.00    -0.291 OA
ENDROOT
BRANCH   1   3
ATOM      3  C   UNL     1       1.205   1.827  -0.167  0.00  0.00    +0.019 A 
ATOM      4  C   UNL     1       1.169   3.228  -0.159  0.00  0.00    +0.013 A 
ATOM      5  C   UNL     1      -0.030   3.873  -0.086  0.00  0.00    +0.026 A 
ATOM      6  C   UNL     1      -1.219   3.145  -0.022  0.00  0.00    +0.054 A 
ATOM      7  C   UNL     1      -1.191   1.755  -0.038  0.00  0.00    -0.024 A 
ATOM      8  C   UNL     1       0.011   1.100  -0.103  0.00  0.00    +0.017 A 
ATOM      9  C   UNL     1      -2.457   0.942   0.025  0.00  0.00    +0.038 C 
ATOM     10  C   UNL     1      -3.603   1.779   0.594  0.00  0.00    +0.025 C 
ATOM     11  C   UNL     1      -3.679   3.102  -0.179  0.00  0.00    +0.131 C 
ATOM     12  N   UNL     1      -2.426   3.833   0.056  0.00  0.00    -0.207 N 
BRANCH  12  13
ATOM     13  S   UNL     1      -2.451   5.450   0.409  0.00  0.00    +0.043 S 
ATOM     14  O   UNL     1      -3.784   5.710   0.828  0.00  0.00    -0.155 OA
ATOM     15  O   UNL     1      -1.361   5.644   1.299  0.00  0.00    -0.155 OA
ATOM     16  C   UNL     1      -2.120   6.277  -1.172  0.00  0.00    +0.218 C 
ENDBRANCH  12  13
ENDBRANCH   1   3
BRANCH   1  17
ATOM     17  C   UNL     1       3.776   1.908  -0.311  0.00  0.00    +0.156 C 
BRANCH  17  18
ATOM     18  S   UNL     1       5.177   0.765  -0.395  0.00  0.00    -0.080 S 
BRANCH  18  27
ATOM     19  C   UNL     1       9.844   6.848  -0.631  0.00  0.00    +0.044 C 
ATOM     20  C   UNL     1       9.379   5.414  -0.611  0.00  0.00    -0.048 A 
ATOM     21  C   UNL     1      10.311   4.388  -0.668  0.00  0.00    +0.005 A 
ATOM     22  C   UNL     1       9.901   3.071  -0.651  0.00  0.00    +0.028 A 
ATOM     23  C   UNL     1       8.550   2.769  -0.576  0.00  0.00    +0.067 A 
ATOM     24  C   UNL     1       7.602   3.804  -0.518  0.00  0.00    +0.090 A 
ATOM     25  C   UNL     1       8.034   5.133  -0.537  0.00  0.00    +0.033 A 
ATOM     26  N   UNL     1       6.376   3.222  -0.458  0.00  0.00    -0.222 NA
ATOM     27  C   UNL     1       6.508   1.918  -0.465  0.00  0.00    +0.168 A 
ATOM     28  N   UNL     1       7.831   1.585  -0.541  0.00  0.00    -0.333 N 
ATOM     29  H   UNL     1       8.210   0.660  -0.566  0.00  0.00    +0.168 HD
ENDBRANCH  18  27
ENDBRANCH  17  18
ENDBRANCH   1  17
TORSDOF 5
