REMARK  Name = ZINC09307892
REMARK  5 active torsions:
REMARK  status: ('A' for Active; 'I' for Inactive)
REMARK    1  A    between atoms: C_1  and  O_2
REMARK    2  A    between atoms: O_2  and  C_3
REMARK    3  A    between atoms: C_8  and  N_9
REMARK    4  A    between atoms: C_10  and  C_12
REMARK    5  A    between atoms: N_30  and  C_33
REMARK                            x       y       z     vdW  Elec       q    Type
REMARK                         _______ _______ _______ _____ _____    ______ ____
ROOT
ATOM      1  C   UNL     1       4.814   4.674   0.197  0.00  0.00    +0.156 C 
ATOM      2  C   UNL     1       5.201   5.250  -1.181  0.00  0.00    +0.118 C 
ATOM      3  C   UNL     1       6.073   4.126  -1.817  0.00  0.00    +0.113 C 
ATOM      4  C   UNL     1       6.573   3.291  -0.637  0.00  0.00    +0.100 C 
ATOM      5  C   UNL     1       6.332   3.453   1.859  0.00  0.00    +0.054 C 
ATOM      6  C   UNL     1       7.657   3.275   2.025  0.00  0.00    +0.022 C 
ATOM      7  C   UNL     1       8.562   3.459   0.873  0.00  0.00    -0.019 A 
ATOM      8  C   UNL     1       8.056   3.464  -0.433  0.00  0.00    -0.021 A 
ATOM      9  C   UNL     1       8.904   3.630  -1.503  0.00  0.00    +0.006 A 
ATOM     10  C   UNL     1      10.262   3.795  -1.291  0.00  0.00    +0.000 A 
ATOM     11  C   UNL     1      10.772   3.795  -0.005  0.00  0.00    +0.001 A 
ATOM     12  C   UNL     1       9.933   3.628   1.077  0.00  0.00    +0.008 A 
ATOM     13  C   UNL     1       5.049   3.337  -2.609  0.00  0.00    +0.232 C 
ATOM     14  O   UNL     1       5.197   2.211  -3.033  0.00  0.00    -0.274 OA
ATOM     15  N   UNL     1       3.953   4.094  -2.764  0.00  0.00    -0.207 N 
ATOM     16  C   UNL     1       3.978   5.246  -2.076  0.00  0.00    +0.232 C 
ATOM     17  O   UNL     1       3.158   6.135  -2.157  0.00  0.00    -0.274 OA
ATOM     18  N   UNL     1       5.692   3.510   0.481  0.00  0.00    -0.383 NA
ATOM     19  H   UNL     1       5.061   2.700   0.473  0.00  0.00    +0.127 HD
ENDROOT
BRANCH  15  20
ATOM     20  C   UNL     1       2.872   3.714  -3.574  0.00  0.00    +0.079 A 
ATOM     21  C   UNL     1       1.884   2.881  -3.069  0.00  0.00    +0.027 A 
ATOM     22  C   UNL     1       0.819   2.511  -3.867  0.00  0.00    +0.002 A 
ATOM     23  C   UNL     1       0.741   2.962  -5.172  0.00  0.00    +0.003 A 
ATOM     24  C   UNL     1       1.726   3.788  -5.681  0.00  0.00    +0.040 A 
ATOM     25  C   UNL     1       2.792   4.166  -4.886  0.00  0.00    +0.145 A 
ATOM     26  F   UNL     1       3.755   4.973  -5.383  0.00  0.00    -0.204 F 
ENDBRANCH  15  20
BRANCH   1  28
ATOM     27  N   UNL     1       2.345   4.534   0.255  0.00  0.00    -0.281 N 
ATOM     28  C   UNL     1       3.524   3.902   0.092  0.00  0.00    +0.237 C 
ATOM     29  O   UNL     1       3.547   2.711  -0.138  0.00  0.00    -0.273 OA
ATOM     30  H   UNL     1       2.322   5.498   0.361  0.00  0.00    +0.155 HD
BRANCH  27  36
ATOM     31  C   UNL     1      -0.063   4.434   0.019  0.00  0.00    +0.141 A 
ATOM     32  C   UNL     1      -1.239   3.703   0.035  0.00  0.00    +0.049 A 
ATOM     33  C   UNL     1      -1.207   2.345   0.293  0.00  0.00    +0.024 A 
ATOM     34  C   UNL     1      -0.002   1.714   0.547  0.00  0.00    +0.043 A 
ATOM     35  C   UNL     1       1.177   2.438   0.533  0.00  0.00    +0.047 A 
ATOM     36  C   UNL     1       1.152   3.799   0.269  0.00  0.00    +0.077 A 
ATOM     37 CL   UNL     1       0.031   0.011   0.877  0.00  0.00    -0.083 Cl
BRANCH  31  39
ATOM     38  C   UNL     1      -1.374   6.353  -0.487  0.00  0.00    +0.277 C 
ATOM     39  O   UNL     1      -0.093   5.769  -0.240  0.00  0.00    -0.493 OA
ENDBRANCH  31  39
ENDBRANCH  27  36
ENDBRANCH   1  28
TORSDOF 4
