REMARK  Name = ZINC36040334
REMARK  10 active torsions:
REMARK  status: ('A' for Active; 'I' for Inactive)
REMARK    1  A    between atoms: C_1  and  C_2
REMARK    2  A    between atoms: C_2  and  C_3
REMARK    3  A    between atoms: C_2  and  C_4
REMARK    4  A    between atoms: C_2  and  C_5
REMARK    5  A    between atoms: C_8  and  C_11
REMARK    6  A    between atoms: C_14  and  C_16
REMARK    7  A    between atoms: N_18  and  N_19
REMARK    8  A    between atoms: C_20  and  C_21
REMARK    9  A    between atoms: C_24  and  O_28
REMARK   10  A    between atoms: O_28  and  C_29
REMARK                            x       y       z     vdW  Elec       q    Type
REMARK                         _______ _______ _______ _____ _____    ______ ____
ROOT
ATOM      1  C   UNL     1       2.623  -0.869  -7.279  0.00  0.00    +0.236 C 
ATOM      2  O   UNL     1       2.633  -2.059  -7.514  0.00  0.00    -0.274 OA
ATOM      3  N   UNL     1       3.036   0.006  -8.216  0.00  0.00    -0.207 N 
ATOM      4  H   UNL     1       3.028   0.958  -8.028  0.00  0.00    +0.177 HD
ENDROOT
BRANCH   1   7
ATOM      5  C   UNL     1       1.690  -1.413  -4.918  0.00  0.00    +0.032 C 
ATOM      6  C   UNL     1       3.018  -0.680  -4.719  0.00  0.00    +0.022 C 
ATOM      7  C   UNL     1       2.147  -0.370  -5.939  0.00  0.00    +0.085 C 
BRANCH   5  11
ATOM      8  C   UNL     1      -1.547  -0.364  -2.336  0.00  0.00    -0.042 A 
ATOM      9  C   UNL     1      -1.662  -1.452  -3.181  0.00  0.00    +0.004 A 
ATOM     10  C   UNL     1      -0.614  -1.791  -4.016  0.00  0.00    +0.004 A 
ATOM     11  C   UNL     1       0.548  -1.043  -4.007  0.00  0.00    -0.044 A 
ATOM     12  C   UNL     1       0.662   0.045  -3.163  0.00  0.00    +0.004 A 
ATOM     13  C   UNL     1      -0.387   0.388  -2.330  0.00  0.00    +0.004 A 
BRANCH   8  15
ATOM     14  C   UNL     1      -3.164   1.423  -1.753  0.00  0.00    +0.015 C 
ATOM     15  C   UNL     1      -2.689   0.006  -1.424  0.00  0.00    -0.013 C 
ATOM     16  C   UNL     1      -2.219  -0.050   0.031  0.00  0.00    +0.015 C 
ATOM     17  C   UNL     1      -3.842  -0.979  -1.626  0.00  0.00    +0.015 C 
ENDBRANCH   8  15
ENDBRANCH   5  11
ENDBRANCH   1   7
BRANCH   3  18
ATOM     18  N   UNL     1       3.478  -0.458  -9.462  0.00  0.00    -0.188 NA
ATOM     19  C   UNL     1       3.987   0.372 -10.320  0.00  0.00    +0.138 C 
BRANCH  19  20
ATOM     20  C   UNL     1       4.539   1.660  -9.863  0.00  0.00    -0.003 A 
ATOM     21  C   UNL     1       4.821   2.670 -10.787  0.00  0.00    +0.028 A 
ATOM     22  C   UNL     1       5.337   3.873 -10.354  0.00  0.00    +0.061 A 
ATOM     23  C   UNL     1       5.577   4.082  -9.002  0.00  0.00    +0.148 A 
ATOM     24  C   UNL     1       5.299   3.081  -8.080  0.00  0.00    +0.061 A 
ATOM     25  C   UNL     1       4.777   1.877  -8.503  0.00  0.00    +0.028 A 
ATOM     26 BR   UNL     1       5.629   3.373  -6.241  0.00  0.00    -0.046 Br
ATOM     27 BR   UNL     1       5.719   5.240 -11.604  0.00  0.00    -0.046 Br
BRANCH  23  28
ATOM     28  O   UNL     1       6.087   5.269  -8.580  0.00  0.00    -0.493 OA
ATOM     29  C   UNL     1       5.149   6.293  -8.239  0.00  0.00    +0.277 C 
ENDBRANCH  23  28
ENDBRANCH  19  20
ENDBRANCH   3  18
TORSDOF 6
