REMARK  Name = ZINC04903742
REMARK  7 active torsions:
REMARK  status: ('A' for Active; 'I' for Inactive)
REMARK    1  A    between atoms: C_1  and  C_2
REMARK    2  A    between atoms: C_5  and  N_8
REMARK    3  A    between atoms: N_8  and  C_9
REMARK    4  A    between atoms: C_10  and  C_20
REMARK    5  A    between atoms: C_14  and  C_19
REMARK    6  A    between atoms: C_16  and  C_18
REMARK    7  A    between atoms: C_23  and  C_25
REMARK                            x       y       z     vdW  Elec       q    Type
REMARK                         _______ _______ _______ _____ _____    ______ ____
ROOT
ATOM      1  C   UNL     1       1.208   1.636   0.045  0.00  0.00    +0.140 A 
ATOM      2  C   UNL     1       2.400   1.122   0.515  0.00  0.00    +0.148 A 
ATOM      3  N   UNL     1       3.211   2.157   0.812  0.00  0.00    -0.205 NA
ATOM      4  C   UNL     1       2.586   3.293   0.550  0.00  0.00    +0.237 A 
ATOM      5  N   UNL     1       1.333   2.998   0.063  0.00  0.00    -0.268 N 
ATOM      6  C   UNL     1       0.481   4.008  -0.292  0.00  0.00    +0.027 A 
ATOM      7  C   UNL     1       0.892   5.293  -0.160  0.00  0.00    +0.044 A 
ATOM      8  C   UNL     1       2.178   5.556   0.336  0.00  0.00    +0.044 A 
ATOM      9  N   UNL     1       2.974   4.572   0.678  0.00  0.00    -0.217 NA
ATOM     10  C   UNL     1       2.644   6.982   0.487  0.00  0.00    +0.066 C 
ATOM     11  C   UNL     1      -0.894   3.697  -0.823  0.00  0.00    +0.064 C 
ENDROOT
BRANCH   2  12
ATOM     12  C   UNL     1       2.728  -0.309   0.667  0.00  0.00    +0.157 A 
ATOM     13  C   UNL     1       3.925  -0.889   0.380  0.00  0.00    +0.052 A 
ATOM     14  C   UNL     1       3.792  -2.262   0.672  0.00  0.00    +0.045 A 
ATOM     15  C   UNL     1       2.535  -2.450   1.117  0.00  0.00    +0.103 A 
ATOM     16  O   UNL     1       1.897  -1.267   1.119  0.00  0.00    -0.458 OA
ATOM     17  C   UNL     1       1.945  -3.768   1.550  0.00  0.00    +0.086 C 
ENDBRANCH   2  12
BRANCH   1  18
ATOM     18  N   UNL     1       0.094   0.908  -0.374  0.00  0.00    -0.299 N 
ATOM     19  H   UNL     1      -0.601   0.678   0.261  0.00  0.00    +0.154 HD
BRANCH  18  24
ATOM     20  C   UNL     1      -0.353  -0.725  -5.786  0.00  0.00    +0.044 C 
ATOM     21  C   UNL     1      -0.234  -0.291  -4.348  0.00  0.00    -0.050 A 
ATOM     22  C   UNL     1      -1.235  -0.607  -3.446  0.00  0.00    +0.005 A 
ATOM     23  C   UNL     1      -1.129  -0.212  -2.128  0.00  0.00    +0.023 A 
ATOM     24  C   UNL     1      -0.016   0.506  -1.707  0.00  0.00    +0.032 A 
ATOM     25  C   UNL     1       0.985   0.828  -2.616  0.00  0.00    +0.023 A 
ATOM     26  C   UNL     1       0.875   0.423  -3.932  0.00  0.00    +0.005 A 
ENDBRANCH  18  24
ENDBRANCH   1  18
TORSDOF 3
