REMARK  Name = ZINC39727394
REMARK  7 active torsions:
REMARK  status: ('A' for Active; 'I' for Inactive)
REMARK    1  A    between atoms: C_1  and  C_2
REMARK    2  A    between atoms: C_4  and  N_15
REMARK    3  A    between atoms: C_5  and  C_14
REMARK    4  A    between atoms: N_7  and  C_8
REMARK    5  A    between atoms: C_16  and  C_18
REMARK    6  A    between atoms: C_18  and  N_19
REMARK    7  A    between atoms: C_22  and  N_25
REMARK                            x       y       z     vdW  Elec       q    Type
REMARK                         _______ _______ _______ _____ _____    ______ ____
ROOT
ATOM      1  C   UNL     1      -4.678  -0.864  -1.742  0.00  0.00    +0.019 C 
ENDROOT
BRANCH   1   2
ATOM      2  N   UNL     1      -5.856  -1.648  -1.346  0.00  0.00    +0.386 N 
ATOM      3  C   UNL     1      -5.503  -3.073  -1.311  0.00  0.00    -0.076 C 
ATOM      4  C   UNL     1      -6.703  -3.886  -0.821  0.00  0.00    +0.006 C 
ATOM      5  C   UNL     1      -7.881  -3.674  -1.775  0.00  0.00    +0.089 C 
ATOM      6  C   UNL     1      -8.192  -2.177  -1.861  0.00  0.00    +0.006 C 
ATOM      7  C   UNL     1      -6.937  -1.426  -2.313  0.00  0.00    -0.076 C 
ATOM      8  H   UNL     1      -6.160  -1.356  -0.429  0.00  0.00    -0.081 HD
BRANCH   5   9
ATOM      9  N   UNL     1      -9.056  -4.390  -1.271  0.00  0.00    -0.289 N 
ATOM     10  C   UNL     1      -9.740  -5.404  -1.936  0.00  0.00    +0.070 A 
ATOM     11  C   UNL     1      -9.568  -6.020  -3.167  0.00  0.00    +0.028 A 
ATOM     12  C   UNL     1     -10.432  -7.023  -3.560  0.00  0.00    +0.002 A 
ATOM     13  C   UNL     1     -11.469  -7.416  -2.732  0.00  0.00    +0.002 A 
ATOM     14  C   UNL     1     -11.649  -6.808  -1.505  0.00  0.00    +0.028 A 
ATOM     15  C   UNL     1     -10.786  -5.801  -1.100  0.00  0.00    +0.067 A 
ATOM     16  N   UNL     1     -10.705  -5.015   0.047  0.00  0.00    -0.306 N 
ATOM     17  H   UNL     1     -11.301  -5.062   0.810  0.00  0.00    +0.170 HD
ATOM     18  C   UNL     1      -9.654  -4.183  -0.083  0.00  0.00    +0.328 A 
ATOM     19  O   UNL     1      -9.302  -3.365   0.747  0.00  0.00    -0.247 OA
ENDBRANCH   5   9
ENDBRANCH   1   2
BRANCH   1  21
ATOM     20  N   UNL     1      -2.433  -0.355  -0.838  0.00  0.00    -0.288 N 
ATOM     21  C   UNL     1      -3.610  -0.993  -0.687  0.00  0.00    +0.200 C 
ATOM     22  O   UNL     1      -3.810  -1.673   0.298  0.00  0.00    -0.278 OA
ATOM     23  H   UNL     1      -2.300   0.246  -1.587  0.00  0.00    +0.155 HD
BRANCH  20  26
ATOM     24  C   UNL     1      -0.146  -2.543  -0.761  0.00  0.00    +0.036 C 
ATOM     25  C   UNL     1      -0.787  -1.888   0.464  0.00  0.00    +0.137 C 
ATOM     26  C   UNL     1      -1.402  -0.559   0.088  0.00  0.00    +0.050 C 
ATOM     27  C   UNL     1      -0.789   0.376   0.794  0.00  0.00    +0.038 C 
ATOM     28  N   UNL     1       0.188  -0.164   1.621  0.00  0.00    -0.266 N 
ATOM     29  N   UNL     1       0.239  -1.559   1.466  0.00  0.00    -0.245 N 
ATOM     30  C   UNL     1      -1.110   1.846   0.711  0.00  0.00    +0.063 C 
ATOM     31  H   UNL     1       0.754   0.348   2.220  0.00  0.00    +0.170 HD
BRANCH  29  32
ATOM     32  C   UNL     1       1.089  -2.451   2.125  0.00  0.00    +0.048 A 
ATOM     33  C   UNL     1       1.018  -3.811   1.852  0.00  0.00    +0.025 A 
ATOM     34  C   UNL     1       1.859  -4.690   2.505  0.00  0.00    +0.002 A 
ATOM     35  C   UNL     1       2.772  -4.217   3.430  0.00  0.00    +0.000 A 
ATOM     36  C   UNL     1       2.846  -2.864   3.704  0.00  0.00    +0.002 A 
ATOM     37  C   UNL     1       2.011  -1.979   3.051  0.00  0.00    +0.025 A 
ENDBRANCH  29  32
ENDBRANCH  20  26
ENDBRANCH   1  21
TORSDOF 5
