REMARK  Name = ZINC40734568
REMARK  12 active torsions:
REMARK  status: ('A' for Active; 'I' for Inactive)
REMARK    1  A    between atoms: C_1  and  C_2
REMARK    2  A    between atoms: C_5  and  N_8
REMARK    3  A    between atoms: C_9  and  C_11
REMARK    4  A    between atoms: C_11  and  O_12
REMARK    5  A    between atoms: O_12  and  C_13
REMARK    6  A    between atoms: C_14  and  C_21
REMARK    7  A    between atoms: C_18  and  O_19
REMARK    8  A    between atoms: O_19  and  C_20
REMARK    9  A    between atoms: C_21  and  N_22
REMARK   10  A    between atoms: N_22  and  C_23
REMARK   11  A    between atoms: C_27  and  C_34
REMARK   12  A    between atoms: C_30  and  C_33
REMARK                            x       y       z     vdW  Elec       q    Type
REMARK                         _______ _______ _______ _____ _____    ______ ____
ROOT
ATOM      1  C   UNL     1      -0.478  -8.439   2.503  0.00  0.00    +0.164 A 
ATOM      2  C   UNL     1      -1.777  -8.778   2.845  0.00  0.00    -0.019 A 
ATOM      3  C   UNL     1      -2.078 -10.076   3.214  0.00  0.00    +0.005 A 
ATOM      4  C   UNL     1      -1.085 -11.038   3.242  0.00  0.00    +0.004 A 
ATOM      5  C   UNL     1       0.213 -10.706   2.902  0.00  0.00    +0.049 A 
ATOM      6  C   UNL     1       0.520  -9.408   2.526  0.00  0.00    +0.162 A 
ENDROOT
BRANCH   6   7
ATOM      7  O   UNL     1       1.796  -9.081   2.186  0.00  0.00    -0.491 OA
ATOM      8  C   UNL     1       2.768 -10.127   2.232  0.00  0.00    +0.277 C 
ENDBRANCH   6   7
BRANCH   1   9
ATOM      9  O   UNL     1      -0.180  -7.162   2.140  0.00  0.00    -0.479 OA
BRANCH   9  10
ATOM     10  C   UNL     1       0.326  -6.299   3.160  0.00  0.00    +0.325 C 
BRANCH  10  12
ATOM     11  N   UNL     1       0.965  -3.920   3.390  0.00  0.00    -0.283 N 
ATOM     12  C   UNL     1       0.497  -4.909   2.603  0.00  0.00    +0.255 C 
ATOM     13  O   UNL     1       0.213  -4.681   1.446  0.00  0.00    -0.272 OA
ATOM     14  H   UNL     1       1.255  -4.117   4.294  0.00  0.00    +0.155 HD
BRANCH  11  19
ATOM     15  C   UNL     1       1.236   1.391   1.414  0.00  0.00    +0.044 C 
ATOM     16  C   UNL     1       1.164  -0.020   1.939  0.00  0.00    -0.050 A 
ATOM     17  C   UNL     1       0.151  -0.862   1.518  0.00  0.00    +0.005 A 
ATOM     18  C   UNL     1       0.082  -2.155   1.997  0.00  0.00    +0.023 A 
ATOM     19  C   UNL     1       1.032  -2.610   2.902  0.00  0.00    +0.034 A 
ATOM     20  C   UNL     1       2.049  -1.763   3.322  0.00  0.00    +0.023 A 
ATOM     21  C   UNL     1       2.115  -0.472   2.836  0.00  0.00    +0.005 A 
ENDBRANCH  11  19
ENDBRANCH  10  12
ENDBRANCH   9  10
ENDBRANCH   1   9
BRANCH   2  22
ATOM     22  C   UNL     1      -2.861  -7.732   2.817  0.00  0.00    -0.042 C 
BRANCH  22  23
ATOM     23  N   UNL     1      -3.280  -7.499   1.428  0.00  0.00    +0.386 N 
ATOM     24  H   UNL     1      -2.493  -7.166   0.891  0.00  0.00    -0.085 HD
ATOM     25  H   UNL     1      -3.618  -8.362   1.029  0.00  0.00    -0.085 HD
BRANCH  23  26
ATOM     26  C   UNL     1      -4.351  -6.494   1.401  0.00  0.00    -0.067 C 
ATOM     27  C   UNL     1      -3.838  -5.186   2.006  0.00  0.00    -0.009 C 
ATOM     28  C   UNL     1      -4.955  -4.139   1.979  0.00  0.00    -0.011 C 
ATOM     29  C   UNL     1      -5.390  -3.896   0.533  0.00  0.00    +0.010 C 
ATOM     30  C   UNL     1      -5.903  -5.205  -0.072  0.00  0.00    -0.033 C 
ATOM     31  C   UNL     1      -4.787  -6.251  -0.045  0.00  0.00    -0.006 C 
ATOM     32  C   UNL     1      -7.096  -5.710   0.742  0.00  0.00    +0.013 C 
ATOM     33  C   UNL     1      -6.660  -5.953   2.188  0.00  0.00    -0.033 C 
ATOM     34  C   UNL     1      -6.147  -4.644   2.793  0.00  0.00    +0.010 C 
ATOM     35  C   UNL     1      -5.544  -6.999   2.216  0.00  0.00    -0.006 C 
ATOM     36  C   UNL     1      -7.853  -6.458   3.002  0.00  0.00    +0.011 C 
ATOM     37  C   UNL     1      -6.339  -4.962  -1.519  0.00  0.00    +0.011 C 
ENDBRANCH  23  26
ENDBRANCH  22  23
ENDBRANCH   2  22
TORSDOF 8
