REMARK  Name = ZINC08440816
REMARK  5 active torsions:
REMARK  status: ('A' for Active; 'I' for Inactive)
REMARK    1  A    between atoms: C_1  and  N_51
REMARK    2  A    between atoms: C_12  and  C_15
REMARK    3  A    between atoms: C_18  and  O_21
REMARK    4  A    between atoms: O_21  and  C_22
REMARK    5  A    between atoms: C_22  and  C_24
REMARK                            x       y       z     vdW  Elec       q    Type
REMARK                         _______ _______ _______ _____ _____    ______ ____
ROOT
ATOM      1  C   UNL     1      10.632   4.866   8.048  0.00  0.00    -0.096 C 
ATOM      2  C   UNL     1       9.337   6.078   6.399  0.00  0.00    -0.074 C 
ATOM      3  C   UNL     1       9.437   6.764   5.034  0.00  0.00    +0.018 C 
ATOM      4  C   UNL     1       9.735   5.697   3.986  0.00  0.00    -0.027 A 
ATOM      5  C   UNL     1      10.212   4.490   4.367  0.00  0.00    -0.021 A 
ATOM      6  S   UNL     1      10.412   3.581   2.859  0.00  0.00    -0.080 S 
ATOM      7  C   UNL     1       9.880   4.776   1.754  0.00  0.00    +0.080 A 
ATOM      8  C   UNL     1       9.540   5.876   2.558  0.00  0.00    +0.068 A 
ATOM      9  C   UNL     1       9.035   7.090   1.877  0.00  0.00    +0.248 C 
ATOM     10  O   UNL     1       8.833   8.123   2.490  0.00  0.00    -0.270 OA
ATOM     11  N   UNL     1       8.806   7.005   0.550  0.00  0.00    -0.289 N 
ATOM     12  C   UNL     1       8.806   5.747  -0.189  0.00  0.00    +0.190 C 
ATOM     13  N   UNL     1       9.767   4.788   0.387  0.00  0.00    -0.316 N 
ATOM     14  C   UNL     1      10.500   4.049   5.767  0.00  0.00    -0.036 C 
ATOM     15  H   UNL     1       8.633   7.825   0.061  0.00  0.00    +0.151 HD
ATOM     16  H   UNL     1      10.293   4.196  -0.172  0.00  0.00    +0.149 HD
ATOM     17  N   UNL     1      10.545   5.258   6.625  0.00  0.00    +0.381 N 
ATOM     18  H   UNL     1      11.375   5.811   6.379  0.00  0.00    -0.082 HD
ENDROOT
BRANCH  12  19
ATOM     19  C   UNL     1       7.424   5.147  -0.142  0.00  0.00    -0.009 A 
ATOM     20  C   UNL     1       6.317   5.971  -0.055  0.00  0.00    +0.010 A 
ATOM     21  C   UNL     1       5.049   5.425  -0.012  0.00  0.00    +0.047 A 
ATOM     22  C   UNL     1       4.887   4.048  -0.056  0.00  0.00    +0.132 A 
ATOM     23  C   UNL     1       5.999   3.223  -0.139  0.00  0.00    +0.047 A 
ATOM     24  C   UNL     1       7.265   3.775  -0.186  0.00  0.00    +0.010 A 
BRANCH  22  25
ATOM     25  O   UNL     1       3.640   3.507  -0.013  0.00  0.00    -0.422 OA
BRANCH  25  26
ATOM     26  C   UNL     1       2.914   3.555  -1.147  0.00  0.00    +0.344 C 
ATOM     27  O   UNL     1       3.343   4.143  -2.120  0.00  0.00    -0.245 OA
BRANCH  26  28
ATOM     28  C   UNL     1       1.595   2.893  -1.208  0.00  0.00    +0.059 A 
ATOM     29  C   UNL     1       1.099   2.216  -0.091  0.00  0.00    +0.016 A 
ATOM     30  C   UNL     1      -0.133   1.599  -0.154  0.00  0.00    +0.021 A 
ATOM     31  C   UNL     1      -0.877   1.650  -1.321  0.00  0.00    +0.041 A 
ATOM     32  C   UNL     1      -0.390   2.320  -2.432  0.00  0.00    +0.021 A 
ATOM     33  C   UNL     1       0.840   2.941  -2.381  0.00  0.00    +0.016 A 
ATOM     34 CL   UNL     1      -2.427   0.871  -1.392  0.00  0.00    -0.084 Cl
ENDBRANCH  26  28
ENDBRANCH  25  26
ENDBRANCH  22  25
ENDBRANCH  12  19
TORSDOF 4
