REMARK  Name = ZINC10460378
REMARK  6 active torsions:
REMARK  status: ('A' for Active; 'I' for Inactive)
REMARK    1  A    between atoms: C_9  and  C_12
REMARK    2  A    between atoms: C_15  and  C_17
REMARK    3  A    between atoms: C_17  and  O_18
REMARK    4  A    between atoms: O_18  and  C_19
REMARK    5  A    between atoms: C_19  and  C_21
REMARK    6  A    between atoms: C_24  and  C_27
REMARK                            x       y       z     vdW  Elec       q    Type
REMARK                         _______ _______ _______ _____ _____    ______ ____
ROOT
ATOM      1  C   UNL     1      -7.001   4.415   0.017  0.00  0.00    +0.002 A 
ATOM      2  C   UNL     1      -8.214   3.870  -0.364  0.00  0.00    +0.004 A 
ATOM      3  C   UNL     1      -8.314   2.521  -0.647  0.00  0.00    +0.047 A 
ATOM      4  C   UNL     1      -7.197   1.706  -0.549  0.00  0.00    +0.143 A 
ATOM      5  C   UNL     1      -5.977   2.256  -0.160  0.00  0.00    +0.078 A 
ATOM      6  C   UNL     1      -5.881   3.610   0.118  0.00  0.00    +0.027 A 
ATOM      7  N   UNL     1      -4.840   1.435  -0.069  0.00  0.00    -0.261 N 
ATOM      8  C   UNL     1      -5.048  -0.024  -0.079  0.00  0.00    +0.168 C 
ATOM      9  C   UNL     1      -6.108  -0.334  -1.145  0.00  0.00    +0.276 C 
ATOM     10  O   UNL     1      -7.305   0.380  -0.826  0.00  0.00    -0.476 OA
ATOM     11  C   UNL     1      -3.604   1.962   0.030  0.00  0.00    +0.258 C 
ATOM     12  O   UNL     1      -3.463   3.164   0.113  0.00  0.00    -0.272 OA
ENDROOT
BRANCH   9  13
ATOM     13  C   UNL     1      -6.392  -1.814  -1.160  0.00  0.00    +0.253 C 
ATOM     14  O   UNL     1      -7.488  -2.225  -0.844  0.00  0.00    -0.272 OA
ATOM     15  N   UNL     1      -5.426  -2.682  -1.523  0.00  0.00    -0.326 N 
ATOM     16  H   UNL     1      -4.549  -2.353  -1.775  0.00  0.00    +0.145 HD
ATOM     17  H   UNL     1      -5.609  -3.634  -1.533  0.00  0.00    +0.145 HD
ENDBRANCH   9  13
BRANCH  11  18
ATOM     18  C   UNL     1      -2.398   1.060   0.037  0.00  0.00    +0.328 C 
BRANCH  18  19
ATOM     19  O   UNL     1      -1.190   1.866   0.032  0.00  0.00    -0.452 OA
BRANCH  19  20
ATOM     20  C   UNL     1      -0.015   1.207   0.038  0.00  0.00    +0.340 C 
ATOM     21  O   UNL     1       0.000  -0.008   0.046  0.00  0.00    -0.245 OA
BRANCH  20  22
ATOM     22  C   UNL     1       1.255   1.962   0.028  0.00  0.00    +0.059 A 
ATOM     23  C   UNL     1       1.241   3.358   0.013  0.00  0.00    +0.015 A 
ATOM     24  C   UNL     1       2.430   4.056   0.009  0.00  0.00    +0.005 A 
ATOM     25  C   UNL     1       3.636   3.376   0.008  0.00  0.00    -0.044 A 
ATOM     26  C   UNL     1       3.657   1.993   0.017  0.00  0.00    +0.005 A 
ATOM     27  C   UNL     1       2.474   1.282   0.027  0.00  0.00    +0.015 A 
BRANCH  25  28
ATOM     28  C   UNL     1       4.931   4.146  -0.002  0.00  0.00    +0.019 C 
ATOM     29  C   UNL     1       5.006   5.035   1.241  0.00  0.00    +0.008 C 
ATOM     30  C   UNL     1       6.321   5.816   1.232  0.00  0.00    +0.001 C 
ATOM     31  C   UNL     1       6.386   6.689  -0.024  0.00  0.00    +0.000 C 
ATOM     32  C   UNL     1       6.312   5.800  -1.267  0.00  0.00    +0.001 C 
ATOM     33  C   UNL     1       4.997   5.018  -1.257  0.00  0.00    +0.008 C 
ENDBRANCH  25  28
ENDBRANCH  20  22
ENDBRANCH  19  20
ENDBRANCH  18  19
ENDBRANCH  11  18
TORSDOF 6
