REMARK  Name = ZINC40327304
REMARK  8 active torsions:
REMARK  status: ('A' for Active; 'I' for Inactive)
REMARK    1  A    between atoms: C_1  and  C_2
REMARK    2  A    between atoms: C_3  and  N_21
REMARK    3  A    between atoms: C_5  and  S_9
REMARK    4  A    between atoms: S_9  and  N_12
REMARK    5  A    between atoms: N_12  and  C_13
REMARK    6  A    between atoms: C_14  and  C_20
REMARK    7  A    between atoms: N_16  and  C_19
REMARK    8  A    between atoms: C_17  and  C_18
REMARK                            x       y       z     vdW  Elec       q    Type
REMARK                         _______ _______ _______ _____ _____    ______ ____
ROOT
ATOM      1  S   UNL     1      -0.096  -4.011   0.430  0.00  0.00    +0.073 S 
ATOM      2  O   UNL     1      -0.449  -4.546   1.698  0.00  0.00    -0.150 OA
ATOM      3  O   UNL     1      -0.914  -4.171  -0.720  0.00  0.00    -0.150 OA
ENDROOT
BRANCH   1   8
ATOM      4  C   UNL     1       0.639   1.931   1.223  0.00  0.00    +0.047 C 
ATOM      5  C   UNL     1       0.456   0.449   1.024  0.00  0.00    -0.011 A 
ATOM      6  C   UNL     1       0.267  -0.063  -0.254  0.00  0.00    +0.031 A 
ATOM      7  C   UNL     1       0.099  -1.430  -0.433  0.00  0.00    +0.052 A 
ATOM      8  C   UNL     1       0.118  -2.276   0.658  0.00  0.00    +0.112 A 
ATOM      9  C   UNL     1       0.305  -1.765   1.928  0.00  0.00    +0.049 A 
ATOM     10  C   UNL     1       0.480  -0.404   2.111  0.00  0.00    +0.047 A 
ATOM     11 CL   UNL     1       0.723   0.233   3.708  0.00  0.00    -0.083 Cl
BRANCH   6  12
ATOM     12  N   UNL     1       0.247   0.795  -1.356  0.00  0.00    -0.358 N 
ATOM     13  H   UNL     1       0.365   1.750  -1.229  0.00  0.00    +0.142 HD
ATOM     14  H   UNL     1       0.116   0.437  -2.247  0.00  0.00    +0.142 HD
ENDBRANCH   6  12
ENDBRANCH   1   8
BRANCH   1  15
ATOM     15  N   UNL     1       1.387  -4.641   0.047  0.00  0.00    -0.213 N 
ATOM     16  H   UNL     1       1.543  -5.012  -0.835  0.00  0.00    +0.174 HD
BRANCH  15  17
ATOM     17  C   UNL     1       2.422  -4.637   1.002  0.00  0.00    +0.091 A 
ATOM     18  C   UNL     1       2.477  -5.422   2.163  0.00  0.00    +0.082 A 
ATOM     19  N   UNL     1       3.587  -5.143   2.797  0.00  0.00    -0.175 NA
ATOM     20  N   UNL     1       4.281  -4.171   2.065  0.00  0.00    -0.270 N 
ATOM     21  C   UNL     1       3.546  -3.878   0.960  0.00  0.00    +0.058 A 
ATOM     22  C   UNL     1       3.911  -2.888  -0.116  0.00  0.00    +0.067 C 
ATOM     23  C   UNL     1       5.571  -3.578   2.425  0.00  0.00    +0.172 C 
ATOM     24  C   UNL     1       1.435  -6.417   2.604  0.00  0.00    +0.069 C 
ENDBRANCH  15  17
ENDBRANCH   1  15
TORSDOF 4
