REMARK  Name = ZINC21627897
REMARK  11 active torsions:
REMARK  status: ('A' for Active; 'I' for Inactive)
REMARK    1  A    between atoms: C_1  and  C_2
REMARK    2  A    between atoms: C_5  and  N_8
REMARK    3  A    between atoms: C_9  and  C_32
REMARK    4  A    between atoms: C_10  and  N_14
REMARK    5  A    between atoms: C_11  and  C_13
REMARK    6  A    between atoms: C_15  and  C_17
REMARK    7  A    between atoms: C_17  and  O_18
REMARK    8  A    between atoms: O_18  and  C_19
REMARK    9  A    between atoms: C_19  and  C_21
REMARK   10  A    between atoms: C_24  and  S_27
REMARK   11  A    between atoms: S_27  and  C_28
REMARK                            x       y       z     vdW  Elec       q    Type
REMARK                         _______ _______ _______ _____ _____    ______ ____
ROOT
ATOM      1  N   UNL     1       2.230   4.362  -0.273  0.00  0.00    -0.280 N 
ATOM      2  C   UNL     1       1.231   3.474  -0.103  0.00  0.00    +0.255 C 
ATOM      3  O   UNL     1       0.123   3.860   0.205  0.00  0.00    -0.272 OA
ATOM      4  H   UNL     1       3.256   4.008  -0.455  0.00  0.00    +0.155 HD
ENDROOT
BRANCH   1   7
ATOM      5  N   UNL     1       2.175   7.902   0.102  0.00  0.00    -0.235 N 
ATOM      6  C   UNL     1       2.819   6.707   0.205  0.00  0.00    +0.063 A 
ATOM      7  C   UNL     1       1.962   5.743  -0.217  0.00  0.00    +0.078 A 
ATOM      8  C   UNL     1       0.763   6.368  -0.592  0.00  0.00    +0.082 A 
ATOM      9  N   UNL     1       0.890   7.655  -0.396  0.00  0.00    -0.170 NA
ATOM     10  C   UNL     1      -0.464   5.673  -1.126  0.00  0.00    +0.069 C 
ATOM     11  C   UNL     1       4.228   6.494   0.697  0.00  0.00    +0.068 C 
BRANCH   5  16
ATOM     12  C   UNL     1       4.319  12.980   1.454  0.00  0.00    +0.044 C 
ATOM     13  C   UNL     1       3.749  11.632   1.095  0.00  0.00    -0.050 A 
ATOM     14  C   UNL     1       4.528  10.713   0.415  0.00  0.00    +0.005 A 
ATOM     15  C   UNL     1       4.009   9.476   0.085  0.00  0.00    +0.028 A 
ATOM     16  C   UNL     1       2.704   9.156   0.436  0.00  0.00    +0.066 A 
ATOM     17  C   UNL     1       1.923  10.083   1.113  0.00  0.00    +0.028 A 
ATOM     18  C   UNL     1       2.450  11.316   1.445  0.00  0.00    +0.005 A 
ENDBRANCH   5  16
ENDBRANCH   1   7
BRANCH   2  19
ATOM     19  C   UNL     1       1.490   2.002  -0.297  0.00  0.00    +0.328 C 
BRANCH  19  20
ATOM     20  O   UNL     1       0.265   1.260  -0.059  0.00  0.00    -0.452 OA
BRANCH  20  21
ATOM     21  C   UNL     1       0.326  -0.080  -0.192  0.00  0.00    +0.340 C 
ATOM     22  O   UNL     1       1.374  -0.613  -0.498  0.00  0.00    -0.245 OA
BRANCH  21  23
ATOM     23  C   UNL     1      -0.878  -0.898   0.035  0.00  0.00    +0.059 A 
ATOM     24  C   UNL     1      -2.084  -0.286   0.393  0.00  0.00    +0.016 A 
ATOM     25  C   UNL     1      -3.200  -1.047   0.597  0.00  0.00    +0.016 A 
ATOM     26  C   UNL     1      -3.136  -2.432   0.459  0.00  0.00    +0.016 A 
ATOM     27  C   UNL     1      -1.935  -3.045   0.107  0.00  0.00    +0.016 A 
ATOM     28  C   UNL     1      -0.817  -2.289  -0.103  0.00  0.00    +0.016 A 
BRANCH  26  29
ATOM     29  S   UNL     1      -4.576  -3.410   0.729  0.00  0.00    -0.016 S 
BRANCH  29  30
ATOM     30  C   UNL     1      -5.857  -2.198   1.153  0.00  0.00    +0.448 C 
ATOM     31  F   UNL     1      -6.020  -1.302   0.091  0.00  0.00    -0.160 F 
ATOM     32  F   UNL     1      -7.065  -2.861   1.393  0.00  0.00    -0.160 F 
ATOM     33  F   UNL     1      -5.474  -1.497   2.301  0.00  0.00    -0.160 F 
ENDBRANCH  29  30
ENDBRANCH  26  29
ENDBRANCH  21  23
ENDBRANCH  20  21
ENDBRANCH  19  20
ENDBRANCH   2  19
TORSDOF 8
