REMARK  Name = ZINC37443687
REMARK  10 active torsions:
REMARK  status: ('A' for Active; 'I' for Inactive)
REMARK    1  A    between atoms: C_1  and  C_2
REMARK    2  A    between atoms: C_2  and  O_3
REMARK    3  A    between atoms: O_3  and  C_4
REMARK    4  A    between atoms: C_9  and  C_10
REMARK    5  A    between atoms: C_10  and  N_11
REMARK    6  A    between atoms: C_20  and  C_21
REMARK    7  A    between atoms: C_20  and  C_22
REMARK    8  A    between atoms: N_24  and  C_25
REMARK    9  A    between atoms: C_30  and  C_35
REMARK   10  A    between atoms: C_32  and  C_34
REMARK                            x       y       z     vdW  Elec       q    Type
REMARK                         _______ _______ _______ _____ _____    ______ ____
ROOT
ATOM      1  N   UNL     1       3.370  -0.512  -3.232  0.00  0.00    -0.276 N 
ATOM      2  C   UNL     1       3.443   0.620  -2.493  0.00  0.00    +0.264 C 
ATOM      3  O   UNL     1       2.458   1.294  -2.253  0.00  0.00    -0.268 OA
ATOM      4  C   UNL     1       4.774   0.990  -1.995  0.00  0.00    +0.109 A 
ATOM      5  C   UNL     1       5.152   1.946  -1.099  0.00  0.00    +0.079 A 
ATOM      6  C   UNL     1       6.546   1.869  -0.964  0.00  0.00    +0.153 A 
ATOM      7  C   UNL     1       6.996   0.851  -1.804  0.00  0.00    +0.088 A 
ATOM      8  N   UNL     1       5.912   0.323  -2.440  0.00  0.00    -0.331 N 
ATOM      9  C   UNL     1       5.835  -0.746  -3.441  0.00  0.00    +0.157 C 
ATOM     10  C   UNL     1       4.482  -1.452  -3.316  0.00  0.00    +0.129 C 
ATOM     11  C   UNL     1       4.488  -2.325  -2.059  0.00  0.00    +0.043 C 
ATOM     12  C   UNL     1       8.401   0.797  -1.639  0.00  0.00    +0.067 A 
ATOM     13  C   UNL     1       8.734   1.746  -0.748  0.00  0.00    +0.198 A 
ATOM     14  O   UNL     1       7.626   2.391  -0.345  0.00  0.00    -0.461 OA
ENDROOT
BRANCH  10  15
ATOM     15  C   UNL     1       4.281  -2.337  -4.519  0.00  0.00    +0.238 C 
ATOM     16  O   UNL     1       4.393  -3.540  -4.413  0.00  0.00    -0.273 OA
ATOM     17  N   UNL     1       3.978  -1.791  -5.714  0.00  0.00    -0.310 N 
ATOM     18  H   UNL     1       3.822  -0.837  -5.785  0.00  0.00    +0.149 HD
BRANCH  17  19
ATOM     19  C   UNL     1       3.883  -2.640  -6.904  0.00  0.00    +0.076 C 
ATOM     20  C   UNL     1       5.284  -2.881  -7.472  0.00  0.00    +0.022 C 
ATOM     21  C   UNL     1       5.185  -3.767  -8.715  0.00  0.00    +0.002 C 
ATOM     22  C   UNL     1       4.319  -3.073  -9.769  0.00  0.00    +0.003 C 
ATOM     23  C   UNL     1       2.919  -2.833  -9.201  0.00  0.00    -0.009 C 
ATOM     24  C   UNL     1       3.018  -1.946  -7.958  0.00  0.00    +0.009 C 
ATOM     25  C   UNL     1       3.652  -0.606  -8.336  0.00  0.00    +0.009 C 
ATOM     26  C   UNL     1       2.054  -2.139 -10.255  0.00  0.00    +0.008 C 
ENDBRANCH  17  19
ENDBRANCH  10  15
BRANCH   1  27
ATOM     27  C   UNL     1       2.135  -0.804  -3.964  0.00  0.00    +0.148 C 
BRANCH  27  33
ATOM     28  C   UNL     1       0.488  -1.288  -2.136  0.00  0.00    +0.125 A 
ATOM     29  C   UNL     1      -0.292  -2.172  -1.405  0.00  0.00    +0.046 A 
ATOM     30  C   UNL     1      -0.263  -3.522  -1.696  0.00  0.00    +0.004 A 
ATOM     31  C   UNL     1       0.543  -3.993  -2.717  0.00  0.00    +0.001 A 
ATOM     32  C   UNL     1       1.321  -3.114  -3.448  0.00  0.00    +0.009 A 
ATOM     33  C   UNL     1       1.291  -1.762  -3.163  0.00  0.00    +0.012 A 
BRANCH  28  34
ATOM     34  O   UNL     1       0.461   0.040  -1.851  0.00  0.00    -0.492 OA
BRANCH  34  36
ATOM     35  C   UNL     1      -0.287   1.974  -0.610  0.00  0.00    +0.048 C 
ATOM     36  C   UNL     1      -0.389   0.457  -0.781  0.00  0.00    +0.225 C 
ENDBRANCH  34  36
ENDBRANCH  28  34
ENDBRANCH  27  33
ENDBRANCH   1  27
TORSDOF 6
