REMARK  Name = ZINC06246403
REMARK  9 active torsions:
REMARK  status: ('A' for Active; 'I' for Inactive)
REMARK    1  A    between atoms: C_1  and  C_2
REMARK    2  A    between atoms: C_2  and  N_3
REMARK    3  A    between atoms: N_3  and  C_4
REMARK    4  A    between atoms: N_3  and  C_6
REMARK    5  A    between atoms: C_4  and  C_5
REMARK    6  A    between atoms: C_9  and  O_25
REMARK    7  A    between atoms: C_10  and  C_12
REMARK    8  A    between atoms: N_13  and  C_14
REMARK    9  A    between atoms: C_17  and  N_21
REMARK                            x       y       z     vdW  Elec       q    Type
REMARK                         _______ _______ _______ _____ _____    ______ ____
ROOT
ATOM      1  C   UNL     1      -6.112   5.902  -2.240  0.00  0.00    +0.030 A 
ATOM      2  C   UNL     1      -6.703   6.236  -1.026  0.00  0.00    +0.027 A 
ATOM      3  C   UNL     1      -6.093   5.891   0.165  0.00  0.00    +0.048 A 
ATOM      4  C   UNL     1      -4.890   5.204   0.158  0.00  0.00    +0.126 A 
ATOM      5  C   UNL     1      -4.284   4.869  -1.062  0.00  0.00    +0.036 A 
ATOM      6  C   UNL     1      -4.907   5.221  -2.264  0.00  0.00    +0.036 A 
ENDROOT
BRANCH   5   7
ATOM      7  C   UNL     1      -3.004   4.146  -1.078  0.00  0.00    +0.123 C 
ATOM      8  N   UNL     1      -2.426   3.819   0.044  0.00  0.00    -0.252 NA
BRANCH   8   9
ATOM      9  C   UNL     1      -1.235   3.146   0.030  0.00  0.00    +0.100 A 
ATOM     10  C   UNL     1      -1.218   1.748   0.017  0.00  0.00    +0.070 A 
ATOM     11  C   UNL     1      -0.013   1.076   0.008  0.00  0.00    +0.055 A 
ATOM     12  C   UNL     1       1.177   1.782   0.000  0.00  0.00    +0.129 A 
ATOM     13  C   UNL     1       1.169   3.166   0.008  0.00  0.00    +0.055 A 
ATOM     14  C   UNL     1      -0.029   3.852   0.023  0.00  0.00    +0.070 A 
ATOM     15 CL   UNL     1      -0.038   5.588   0.033  0.00  0.00    -0.081 Cl
ATOM     16 CL   UNL     1      -2.710   0.860   0.020  0.00  0.00    -0.081 Cl
BRANCH  12  17
ATOM     17  N   UNL     1       2.466   1.054  -0.015  0.00  0.00    +0.057 N 
ATOM     18  O   UNL     1       2.477  -0.164  -0.022  0.00  0.00    -0.126 OA
ATOM     19  O   UNL     1       3.515   1.673  -0.022  0.00  0.00    -0.126 OA
ENDBRANCH  12  17
ENDBRANCH   8   9
ENDBRANCH   5   7
BRANCH   4  20
ATOM     20  O   UNL     1      -4.295   4.861   1.330  0.00  0.00    -0.506 OA
ATOM     21  H   UNL     1      -3.688   5.531   1.674  0.00  0.00    +0.292 HD
ENDBRANCH   4  20
BRANCH   1  22
ATOM     22  N   UNL     1      -6.738   6.255  -3.441  0.00  0.00    -0.330 N 
BRANCH  22  24
ATOM     23  C   UNL     1      -7.747   8.483  -3.411  0.00  0.00    +0.024 C 
ATOM     24  C   UNL     1      -8.013   6.976  -3.419  0.00  0.00    +0.102 C 
ENDBRANCH  22  24
BRANCH  22  25
ATOM     25  C   UNL     1      -6.117   5.904  -4.721  0.00  0.00    +0.102 C 
ATOM     26  C   UNL     1      -6.611   4.526  -5.167  0.00  0.00    +0.024 C 
ENDBRANCH  22  25
ENDBRANCH   1  22
TORSDOF 7
