REMARK  Name = ZINC36732603
REMARK  9 active torsions:
REMARK  status: ('A' for Active; 'I' for Inactive)
REMARK    1  A    between atoms: C_1  and  C_2
REMARK    2  A    between atoms: C_5  and  C_36
REMARK    3  A    between atoms: N_8  and  S_10
REMARK    4  A    between atoms: S_10  and  C_13
REMARK    5  A    between atoms: C_16  and  C_19
REMARK    6  A    between atoms: N_21  and  C_22
REMARK    7  A    between atoms: C_22  and  C_23
REMARK    8  A    between atoms: C_23  and  C_25
REMARK    9  A    between atoms: C_23  and  N_30
REMARK                            x       y       z     vdW  Elec       q    Type
REMARK                         _______ _______ _______ _____ _____    ______ ____
ROOT
ATOM      1  C   UNL     1       3.134  -3.653  -4.720  0.00  0.00    +0.244 C 
ATOM      2  O   UNL     1       2.554  -4.395  -5.489  0.00  0.00    -0.270 OA
ATOM      3  N   UNL     1       4.290  -3.069  -5.091  0.00  0.00    -0.312 N 
ATOM      4  H   UNL     1       4.753  -2.477  -4.477  0.00  0.00    +0.149 HD
ENDROOT
BRANCH   1   8
ATOM      5  C   UNL     1       1.516  -2.904  -0.864  0.00  0.00    +0.106 A 
ATOM      6  C   UNL     1       0.854  -3.749  -1.737  0.00  0.00    +0.029 A 
ATOM      7  C   UNL     1       1.373  -3.996  -2.991  0.00  0.00    +0.015 A 
ATOM      8  C   UNL     1       2.571  -3.392  -3.378  0.00  0.00    +0.037 A 
ATOM      9  C   UNL     1       3.234  -2.541  -2.493  0.00  0.00    +0.015 A 
ATOM     10  C   UNL     1       2.701  -2.298  -1.244  0.00  0.00    +0.029 A 
BRANCH   5  11
ATOM     11  S   UNL     1       0.845  -2.594   0.735  0.00  0.00    +0.061 S 
ATOM     12  O   UNL     1       1.931  -2.194   1.560  0.00  0.00    -0.153 OA
ATOM     13  O   UNL     1       0.017  -3.704   1.050  0.00  0.00    -0.153 OA
BRANCH  11  19
ATOM     14  C   UNL     1       0.416   2.381  -0.178  0.00  0.00    +0.009 C 
ATOM     15  C   UNL     1       0.002   0.929  -0.424  0.00  0.00    +0.002 C 
ATOM     16  C   UNL     1      -1.509   0.861  -0.658  0.00  0.00    +0.009 C 
ATOM     17  C   UNL     1      -1.919  -0.587  -0.937  0.00  0.00    +0.002 C 
ATOM     18  C   UNL     1      -1.578  -1.454   0.280  0.00  0.00    +0.112 C 
ATOM     19  N   UNL     1      -0.155  -1.280   0.600  0.00  0.00    -0.176 NA
ATOM     20  C   UNL     1       0.365   0.079   0.797  0.00  0.00    +0.112 C 
ATOM     21  C   UNL     1      -1.163  -1.105  -2.161  0.00  0.00    +0.009 C 
ENDBRANCH  11  19
ENDBRANCH   5  11
ENDBRANCH   1   8
BRANCH   3  22
ATOM     22  C   UNL     1       4.849  -3.327  -6.420  0.00  0.00    +0.097 C 
BRANCH  22  23
ATOM     23  C   UNL     1       6.082  -2.449  -6.635  0.00  0.00    +0.016 C 
BRANCH  23  24
ATOM     24  N   UNL     1       5.716  -1.038  -6.454  0.00  0.00    +0.387 N 
ATOM     25  C   UNL     1       4.603  -0.704  -7.351  0.00  0.00    -0.078 C 
ATOM     26  C   UNL     1       4.164   0.742  -7.108  0.00  0.00    -0.019 C 
ATOM     27  C   UNL     1       5.343   1.681  -7.384  0.00  0.00    -0.004 C 
ATOM     28  C   UNL     1       6.523   1.276  -6.496  0.00  0.00    -0.019 C 
ATOM     29  C   UNL     1       6.875  -0.190  -6.761  0.00  0.00    -0.078 C 
ATOM     30  H   UNL     1       5.433  -0.885  -5.498  0.00  0.00    -0.081 HD
ENDBRANCH  23  24
BRANCH  23  31
ATOM     31  C   UNL     1       6.610  -2.656  -8.032  0.00  0.00    +0.093 A 
ATOM     32  C   UNL     1       7.743  -3.303  -8.357  0.00  0.00    +0.043 A 
ATOM     33  C   UNL     1       7.849  -3.260  -9.766  0.00  0.00    +0.041 A 
ATOM     34  C   UNL     1       6.775  -2.588 -10.218  0.00  0.00    +0.195 A 
ATOM     35  O   UNL     1       6.024  -2.230  -9.163  0.00  0.00    -0.469 OA
ENDBRANCH  23  31
ENDBRANCH  22  23
ENDBRANCH   3  22
TORSDOF 7
