REMARK  Name = ZINC36346721
REMARK  12 active torsions:
REMARK  status: ('A' for Active; 'I' for Inactive)
REMARK    1  A    between atoms: C_1  and  C_2
REMARK    2  A    between atoms: C_3  and  C_22
REMARK    3  A    between atoms: C_4  and  O_14
REMARK    4  A    between atoms: N_5  and  C_7
REMARK    5  A    between atoms: O_14  and  C_15
REMARK    6  A    between atoms: C_22  and  N_23
REMARK    7  A    between atoms: N_23  and  C_24
REMARK    8  A    between atoms: N_23  and  C_35
REMARK    9  A    between atoms: C_24  and  C_25
REMARK   10  A    between atoms: C_25  and  C_27
REMARK   11  A    between atoms: C_25  and  O_34
REMARK   12  A    between atoms: C_27  and  C_28
REMARK                            x       y       z     vdW  Elec       q    Type
REMARK                         _______ _______ _______ _____ _____    ______ ____
ROOT
ATOM      1  C   UNL     1      -2.094   1.177  -0.533  0.00  0.00    +0.068 C 
ATOM      2  C   UNL     1      -1.539  -0.219  -0.410  0.00  0.00    +0.065 A 
ATOM      3  C   UNL     1      -1.103  -1.022  -1.469  0.00  0.00    +0.021 A 
ATOM      4  C   UNL     1      -0.676  -2.204  -0.949  0.00  0.00    +0.225 A 
ATOM      5  N   UNL     1      -0.842  -2.140   0.399  0.00  0.00    -0.200 N 
ATOM      6  N   UNL     1      -1.378  -0.883   0.706  0.00  0.00    -0.168 NA
ENDROOT
BRANCH   5   7
ATOM      7  C   UNL     1      -0.527  -3.151   1.319  0.00  0.00    +0.069 A 
ATOM      8  C   UNL     1      -0.825  -4.475   1.026  0.00  0.00    +0.031 A 
ATOM      9  C   UNL     1      -0.513  -5.469   1.933  0.00  0.00    +0.040 A 
ATOM     10  C   UNL     1       0.095  -5.146   3.134  0.00  0.00    +0.124 A 
ATOM     11  C   UNL     1       0.393  -3.825   3.428  0.00  0.00    +0.040 A 
ATOM     12  C   UNL     1       0.089  -2.829   2.521  0.00  0.00    +0.031 A 
ATOM     13  F   UNL     1       0.399  -6.119   4.020  0.00  0.00    -0.205 F 
ENDBRANCH   5   7
BRANCH   4  14
ATOM     14  O   UNL     1      -0.177  -3.254  -1.648  0.00  0.00    -0.438 OA
BRANCH  14  15
ATOM     15  C   UNL     1      -1.056  -4.150  -2.170  0.00  0.00    +0.131 A 
ATOM     16  C   UNL     1      -2.421  -3.941  -2.035  0.00  0.00    +0.049 A 
ATOM     17  C   UNL     1      -3.314  -4.852  -2.566  0.00  0.00    +0.042 A 
ATOM     18  C   UNL     1      -2.847  -5.973  -3.232  0.00  0.00    +0.124 A 
ATOM     19  C   UNL     1      -1.485  -6.182  -3.367  0.00  0.00    +0.042 A 
ATOM     20  C   UNL     1      -0.590  -5.270  -2.842  0.00  0.00    +0.049 A 
ATOM     21  F   UNL     1      -3.721  -6.863  -3.750  0.00  0.00    -0.205 F 
ENDBRANCH  14  15
ENDBRANCH   4  14
BRANCH   3  22
ATOM     22  C   UNL     1      -1.106  -0.644  -2.928  0.00  0.00    -0.035 C 
BRANCH  22  23
ATOM     23  N   UNL     1       0.170  -0.002  -3.270  0.00  0.00    +0.386 N 
ATOM     24  H   UNL     1       0.330   0.780  -2.653  0.00  0.00    -0.081 HD
BRANCH  23  25
ATOM     25  C   UNL     1       1.262  -0.974  -3.123  0.00  0.00    -0.068 C 
ATOM     26  C   UNL     1       2.213  -0.793  -1.937  0.00  0.00    -0.017 C 
ATOM     27  C   UNL     1       2.689  -0.473  -3.356  0.00  0.00    -0.017 C 
ENDBRANCH  23  25
BRANCH  23  28
ATOM     28  C   UNL     1       0.122   0.473  -4.660  0.00  0.00    -0.046 C 
BRANCH  28  29
ATOM     29  C   UNL     1      -0.208  -0.697  -5.588  0.00  0.00    +0.102 C 
BRANCH  29  30
ATOM     30  O   UNL     1       0.877  -1.627  -5.587  0.00  0.00    -0.393 OA
ATOM     31  H   UNL     1       1.716  -1.252  -5.887  0.00  0.00    +0.210 HD
ENDBRANCH  29  30
BRANCH  29  32
ATOM     32  C   UNL     1      -0.430  -0.175  -7.008  0.00  0.00    +0.064 C 
BRANCH  32  33
ATOM     33  C   UNL     1      -0.875  -1.308  -7.897  0.00  0.00    -0.045 A 
ATOM     34  C   UNL     1       0.064  -2.070  -8.566  0.00  0.00    +0.004 A 
ATOM     35  C   UNL     1      -0.344  -3.110  -9.381  0.00  0.00    +0.000 A 
ATOM     36  C   UNL     1      -1.691  -3.387  -9.526  0.00  0.00    +0.000 A 
ATOM     37  C   UNL     1      -2.630  -2.625  -8.856  0.00  0.00    +0.000 A 
ATOM     38  C   UNL     1      -2.221  -1.588  -8.038  0.00  0.00    +0.004 A 
ENDBRANCH  32  33
ENDBRANCH  29  32
ENDBRANCH  28  29
ENDBRANCH  23  28
ENDBRANCH  22  23
ENDBRANCH   3  22
TORSDOF 11
