REMARK  Name = ZINC65009901
REMARK  6 active torsions:
REMARK  status: ('A' for Active; 'I' for Inactive)
REMARK    1  A    between atoms: C_1  and  C_2
REMARK    2  A    between atoms: C_10  and  C_11
REMARK    3  A    between atoms: C_13  and  C_16
REMARK    4  A    between atoms: N_18  and  C_19
REMARK    5  A    between atoms: C_19  and  C_20
REMARK    6  A    between atoms: C_20  and  C_21
REMARK                            x       y       z     vdW  Elec       q    Type
REMARK                         _______ _______ _______ _____ _____    ______ ____
ROOT
ATOM      1  C   UNL     1       0.083  -0.989   6.044  0.00  0.00    +0.302 C 
ATOM      2  O   UNL     1       0.108  -2.188   6.236  0.00  0.00    -0.265 OA
ATOM      3  N   UNL     1       0.080  -0.139   7.090  0.00  0.00    -0.307 N 
ATOM      4  H   UNL     1       0.060   0.819   6.937  0.00  0.00    +0.149 HD
ENDROOT
BRANCH   1   7
ATOM      5  C   UNL     1       0.032  -0.375   2.488  0.00  0.00    +0.238 A 
ATOM      6  N   UNL     1       0.059  -1.177   3.565  0.00  0.00    -0.180 NA
ATOM      7  C   UNL     1       0.058  -0.460   4.659  0.00  0.00    +0.314 A 
ATOM      8  O   UNL     1       0.030   0.839   4.313  0.00  0.00    -0.328 OA
ATOM      9  N   UNL     1       0.019   0.875   2.894  0.00  0.00    -0.052 NA
BRANCH   5  19
ATOM     10  C   UNL     1      -0.018   1.503   0.010  0.00  0.00    +0.048 C 
ATOM     11  C   UNL     1       0.002  -0.004   0.002  0.00  0.00    +0.006 A 
ATOM     12  C   UNL     1       0.009  -0.878  -1.173  0.00  0.00    +0.024 A 
ATOM     13  C   UNL     1      -0.001  -0.656  -2.551  0.00  0.00    +0.012 A 
ATOM     14  C   UNL     1       0.009  -1.721  -3.409  0.00  0.00    +0.001 A 
ATOM     15  C   UNL     1       0.029  -3.019  -2.918  0.00  0.00    +0.004 A 
ATOM     16  C   UNL     1       0.038  -3.258  -1.560  0.00  0.00    +0.047 A 
ATOM     17  C   UNL     1       0.029  -2.191  -0.670  0.00  0.00    +0.136 A 
ATOM     18  O   UNL     1       0.034  -2.110   0.676  0.00  0.00    -0.451 OA
ATOM     19  C   UNL     1       0.024  -0.824   1.079  0.00  0.00    +0.179 A 
ENDBRANCH   5  19
ENDBRANCH   1   7
BRANCH   3  20
ATOM     20  C   UNL     1       0.105  -0.661   8.458  0.00  0.00    +0.108 C 
BRANCH  20  21
ATOM     21  C   UNL     1       0.095   0.504   9.450  0.00  0.00    +0.065 C 
BRANCH  21  22
ATOM     22  C   UNL     1       0.121  -0.041  10.879  0.00  0.00    +0.175 C 
ATOM     23  N   UNL     1       1.408  -0.697  11.144  0.00  0.00    -0.363 N 
ATOM     24  C   UNL     1       1.974  -0.063  12.129  0.00  0.00    +0.060 A 
ATOM     25  C   UNL     1       3.252  -0.247  12.832  0.00  0.00    +0.030 A 
ATOM     26  C   UNL     1       3.583   0.583  13.840  0.00  0.00    +0.040 A 
ATOM     27  C   UNL     1       2.747   1.638  14.259  0.00  0.00    +0.125 A 
ATOM     28  C   UNL     1       1.553   1.893  13.680  0.00  0.00    +0.065 A 
ATOM     29  C   UNL     1       1.091   1.051  12.571  0.00  0.00    +0.063 A 
ATOM     30  N   UNL     1       0.011   1.062  11.841  0.00  0.00    -0.363 N 
ATOM     31  F   UNL     1       3.156   2.424  15.279  0.00  0.00    -0.205 F 
ATOM     32  H   UNL     1       1.769  -1.463  10.672  0.00  0.00    +0.162 HD
ATOM     33  H   UNL     1      -0.730   1.683  11.919  0.00  0.00    +0.162 HD
ENDBRANCH  21  22
ENDBRANCH  20  21
ENDBRANCH   3  20
TORSDOF 5
