REMARK  Name = ZINC13280234
REMARK  10 active torsions:
REMARK  status: ('A' for Active; 'I' for Inactive)
REMARK    1  A    between atoms: C_1  and  C_2
REMARK    2  A    between atoms: C_5  and  C_9
REMARK    3  A    between atoms: C_6  and  C_8
REMARK    4  A    between atoms: C_9  and  C_11
REMARK    5  A    between atoms: C_11  and  S_12
REMARK    6  A    between atoms: S_12  and  C_13
REMARK    7  A    between atoms: C_17  and  C_32
REMARK    8  A    between atoms: N_23  and  C_24
REMARK    9  A    between atoms: C_24  and  C_25
REMARK   10  A    between atoms: C_25  and  C_26
REMARK                            x       y       z     vdW  Elec       q    Type
REMARK                         _______ _______ _______ _____ _____    ______ ____
ROOT
ATOM      1  C   UNL     1       5.272  -3.110  -2.777  0.00  0.00    +0.173 A 
ATOM      2  N   UNL     1       6.391  -3.789  -2.726  0.00  0.00    -0.223 NA
ATOM      3  C   UNL     1       7.591  -3.192  -2.914  0.00  0.00    +0.080 A 
ATOM      4  C   UNL     1       8.784  -3.919  -2.859  0.00  0.00    +0.043 A 
ATOM      5  C   UNL     1       9.993  -3.264  -3.059  0.00  0.00    +0.065 A 
ATOM      6  C   UNL     1      10.021  -1.887  -3.313  0.00  0.00    +0.016 A 
ATOM      7  C   UNL     1       8.862  -1.166  -3.368  0.00  0.00    +0.016 A 
ATOM      8  C   UNL     1       7.637  -1.804  -3.171  0.00  0.00    +0.065 A 
ATOM      9  C   UNL     1       6.365  -1.067  -3.228  0.00  0.00    +0.262 A 
ATOM     10  O   UNL     1       6.338   0.129  -3.450  0.00  0.00    -0.267 OA
ATOM     11  N   UNL     1       5.226  -1.767  -3.019  0.00  0.00    -0.287 N 
ENDROOT
BRANCH   5  12
ATOM     12  C   UNL     1      11.259  -4.026  -3.003  0.00  0.00    +0.387 C 
ATOM     13  O   UNL     1      11.240  -5.221  -2.784  0.00  0.00    -0.241 OA
ATOM     14  O   UNL     1      12.434  -3.396  -3.196  0.00  0.00    -0.241 OA
ENDBRANCH   5  12
BRANCH   1  15
ATOM     15  S   UNL     1       3.755  -3.970  -2.520  0.00  0.00    -0.080 S 
BRANCH  15  16
ATOM     16  C   UNL     1       4.385  -5.646  -2.255  0.00  0.00    +0.157 C 
BRANCH  16  17
ATOM     17  C   UNL     1       3.230  -6.583  -2.008  0.00  0.00    +0.174 C 
ATOM     18  O   UNL     1       2.094  -6.159  -2.011  0.00  0.00    -0.291 OA
BRANCH  17  23
ATOM     19  C   UNL     1       4.214 -12.165  -1.049  0.00  0.00    +0.044 C 
ATOM     20  C   UNL     1       3.956 -10.702  -1.301  0.00  0.00    -0.050 A 
ATOM     21  C   UNL     1       5.004  -9.868  -1.651  0.00  0.00    +0.004 A 
ATOM     22  C   UNL     1       4.777  -8.528  -1.883  0.00  0.00    +0.012 A 
ATOM     23  C   UNL     1       3.482  -8.012  -1.763  0.00  0.00    +0.021 A 
ATOM     24  C   UNL     1       2.429  -8.859  -1.404  0.00  0.00    -0.040 A 
ATOM     25  C   UNL     1       2.673 -10.198  -1.180  0.00  0.00    +0.007 A 
ATOM     26  C   UNL     1       1.032  -8.312  -1.267  0.00  0.00    +0.044 C 
ENDBRANCH  17  23
ENDBRANCH  16  17
ENDBRANCH  15  16
ENDBRANCH   1  15
BRANCH  11  27
ATOM     27  C   UNL     1       3.933  -1.080  -3.060  0.00  0.00    +0.132 C 
BRANCH  27  28
ATOM     28  C   UNL     1       3.576  -0.582  -1.658  0.00  0.00    +0.057 C 
BRANCH  28  29
ATOM     29  C   UNL     1       2.245   0.125  -1.700  0.00  0.00    -0.046 A 
ATOM     30  C   UNL     1       1.078  -0.586  -1.494  0.00  0.00    +0.004 A 
ATOM     31  C   UNL     1      -0.142   0.063  -1.532  0.00  0.00    +0.000 A 
ATOM     32  C   UNL     1      -0.195   1.422  -1.778  0.00  0.00    +0.000 A 
ATOM     33  C   UNL     1       0.972   2.133  -1.984  0.00  0.00    +0.000 A 
ATOM     34  C   UNL     1       2.192   1.485  -1.946  0.00  0.00    +0.004 A 
ENDBRANCH  28  29
ENDBRANCH  27  28
ENDBRANCH  11  27
TORSDOF 8
