REMARK  Name = ZINC35747366
REMARK  15 active torsions:
REMARK  status: ('A' for Active; 'I' for Inactive)
REMARK    1  A    between atoms: C_1  and  C_2
REMARK    2  A    between atoms: C_7  and  O_8
REMARK    3  A    between atoms: O_8  and  C_9
REMARK    4  A    between atoms: C_9  and  C_10
REMARK    5  A    between atoms: C_10  and  C_12
REMARK    6  A    between atoms: C_10  and  O_38
REMARK    7  A    between atoms: C_12  and  N_13
REMARK    8  A    between atoms: N_13  and  C_14
REMARK    9  A    between atoms: N_13  and  C_19
REMARK   10  A    between atoms: C_14  and  C_15
REMARK   11  A    between atoms: C_15  and  C_16
REMARK   12  A    between atoms: C_16  and  C_17
REMARK   13  A    between atoms: C_16  and  C_18
REMARK   14  A    between atoms: C_19  and  C_20
REMARK   15  A    between atoms: C_26  and  C_31
REMARK                            x       y       z     vdW  Elec       q    Type
REMARK                         _______ _______ _______ _____ _____    ______ ____
ROOT
ATOM      1  N   UNL     1      -0.049   0.183   6.864  0.00  0.00    +0.386 N 
ATOM      2  H   UNL     1       0.629   0.915   6.718  0.00  0.00    -0.081 HD
ENDROOT
BRANCH   1   3
ATOM      3  C   UNL     1       0.153  -0.879   5.870  0.00  0.00    -0.043 C 
BRANCH   3   4
ATOM      4  C   UNL     1       0.106  -0.277   4.464  0.00  0.00    +0.135 C 
BRANCH   4   5
ATOM      5  O   UNL     1       1.208   0.617   4.292  0.00  0.00    -0.390 OA
ATOM      6  H   UNL     1       2.074   0.199   4.394  0.00  0.00    +0.210 HD
ENDBRANCH   4   5
BRANCH   4   7
ATOM      7  C   UNL     1       0.192  -1.398   3.426  0.00  0.00    +0.258 C 
BRANCH   7   8
ATOM      8  O   UNL     1       0.032  -0.848   2.117  0.00  0.00    -0.489 OA
BRANCH   8  15
ATOM      9  C   UNL     1      -0.284   0.219  -0.480  0.00  0.00    +0.047 C 
ATOM     10  C   UNL     1      -0.066  -1.250  -0.226  0.00  0.00    -0.009 A 
ATOM     11  C   UNL     1      -0.007  -2.134  -1.286  0.00  0.00    +0.007 A 
ATOM     12  C   UNL     1       0.193  -3.482  -1.054  0.00  0.00    +0.000 A 
ATOM     13  C   UNL     1       0.335  -3.949   0.239  0.00  0.00    +0.004 A 
ATOM     14  C   UNL     1       0.278  -3.070   1.303  0.00  0.00    +0.046 A 
ATOM     15  C   UNL     1       0.083  -1.716   1.072  0.00  0.00    +0.124 A 
ENDBRANCH   8  15
ENDBRANCH   7   8
ENDBRANCH   4   7
ENDBRANCH   3   4
ENDBRANCH   1   3
BRANCH   1  16
ATOM     16  C   UNL     1      -1.403   0.734   6.723  0.00  0.00    -0.078 C 
BRANCH  16  17
ATOM     17  C   UNL     1      -1.571   1.924   7.671  0.00  0.00    -0.016 C 
BRANCH  17  18
ATOM     18  C   UNL     1      -2.934   2.577   7.433  0.00  0.00    -0.019 C 
ATOM     19  C   UNL     1      -3.154   3.687   8.463  0.00  0.00    +0.007 C 
ATOM     20  C   UNL     1      -2.975   3.173   6.024  0.00  0.00    +0.007 C 
ENDBRANCH  17  18
ENDBRANCH  16  17
ENDBRANCH   1  16
BRANCH   1  21
ATOM     21  C   UNL     1       0.115  -0.373   8.214  0.00  0.00    -0.003 C 
BRANCH  21  22
ATOM     22  C   UNL     1       1.550  -0.785   8.417  0.00  0.00    +0.094 A 
ATOM     23  N   UNL     1       1.902  -1.438   9.554  0.00  0.00    -0.312 N 
ATOM     24  H   UNL     1       1.225  -1.632  10.221  0.00  0.00    +0.170 HD
ATOM     25  C   UNL     1       3.173  -1.823   9.774  0.00  0.00    +0.260 A 
ATOM     26  O   UNL     1       3.473  -2.410  10.799  0.00  0.00    -0.267 OA
ATOM     27  C   UNL     1       4.167  -1.534   8.785  0.00  0.00    +0.080 A 
ATOM     28  C   UNL     1       5.591  -1.844   8.790  0.00  0.00    +0.004 A 
ATOM     29  C   UNL     1       6.344  -1.467   7.728  0.00  0.00    +0.056 A 
ATOM     30  S   UNL     1       5.169  -0.667   6.653  0.00  0.00    -0.076 S 
ATOM     31  C   UNL     1       3.709  -0.856   7.643  0.00  0.00    +0.116 A 
ATOM     32  N   UNL     1       2.433  -0.511   7.495  0.00  0.00    -0.229 NA
BRANCH  28  33
ATOM     33  C   UNL     1       6.205  -2.558   9.935  0.00  0.00    -0.016 A 
ATOM     34  C   UNL     1       5.973  -2.119  11.238  0.00  0.00    +0.010 A 
ATOM     35  C   UNL     1       6.547  -2.787  12.301  0.00  0.00    +0.020 A 
ATOM     36  C   UNL     1       7.350  -3.892  12.075  0.00  0.00    +0.041 A 
ATOM     37  C   UNL     1       7.583  -4.332  10.783  0.00  0.00    +0.020 A 
ATOM     38  C   UNL     1       7.010  -3.674   9.714  0.00  0.00    +0.010 A 
ATOM     39 CL   UNL     1       8.068  -4.728  13.416  0.00  0.00    -0.084 Cl
ENDBRANCH  28  33
ENDBRANCH  21  22
ENDBRANCH   1  21
TORSDOF 12
