REMARK  Name = ZINC63258827
REMARK  13 active torsions:
REMARK  status: ('A' for Active; 'I' for Inactive)
REMARK    1  A    between atoms: C_1  and  C_2
REMARK    2  A    between atoms: C_2  and  C_3
REMARK    3  A    between atoms: C_6  and  C_9
REMARK    4  A    between atoms: C_9  and  C_11
REMARK    5  A    between atoms: C_11  and  O_12
REMARK    6  A    between atoms: O_12  and  C_13
REMARK    7  A    between atoms: C_13  and  C_15
REMARK    8  A    between atoms: C_15  and  C_17
REMARK    9  A    between atoms: C_15  and  N_27
REMARK   10  A    between atoms: C_17  and  C_18
REMARK   11  A    between atoms: C_28  and  O_30
REMARK   12  A    between atoms: O_30  and  C_31
REMARK   13  A    between atoms: C_31  and  C_32
REMARK                            x       y       z     vdW  Elec       q    Type
REMARK                         _______ _______ _______ _____ _____    ______ ____
ROOT
ATOM      1  C   UNL     1       3.297  -3.429   9.248  0.00  0.00    +0.189 C 
ENDROOT
BRANCH   1   2
ATOM      2  N   UNL     1       2.494  -3.674  10.449  0.00  0.00    -0.268 N 
ATOM      3  C   UNL     1       3.069  -3.625  11.666  0.00  0.00    +0.401 C 
ATOM      4  O   UNL     1       4.255  -3.378  11.768  0.00  0.00    -0.226 OA
ATOM      5  H   UNL     1       1.547  -3.871  10.367  0.00  0.00    +0.153 HD
BRANCH   3   6
ATOM      6  O   UNL     1       2.331  -3.850  12.769  0.00  0.00    -0.446 OA
BRANCH   6   7
ATOM      7  C   UNL     1       3.006  -3.783  14.027  0.00  0.00    +0.269 C 
BRANCH   7   8
ATOM      8  C   UNL     1       2.027  -4.060  15.139  0.00  0.00    -0.010 A 
ATOM      9  C   UNL     1       1.324  -3.019  15.716  0.00  0.00    +0.007 A 
ATOM     10  C   UNL     1       0.426  -3.273  16.735  0.00  0.00    +0.000 A 
ATOM     11  C   UNL     1       0.231  -4.569  17.177  0.00  0.00    +0.000 A 
ATOM     12  C   UNL     1       0.933  -5.609  16.599  0.00  0.00    +0.000 A 
ATOM     13  C   UNL     1       1.828  -5.356  15.577  0.00  0.00    +0.007 A 
ENDBRANCH   7   8
ENDBRANCH   6   7
ENDBRANCH   3   6
ENDBRANCH   1   2
BRANCH   1  14
ATOM     14  C   UNL     1       2.404  -2.937   8.138  0.00  0.00    +0.328 C 
ATOM     15  O   UNL     1       1.219  -2.804   8.330  0.00  0.00    -0.249 OA
BRANCH  14  16
ATOM     16  O   UNL     1       2.926  -2.646   6.936  0.00  0.00    -0.455 OA
BRANCH  16  17
ATOM     17  C   UNL     1       2.022  -2.184   5.931  0.00  0.00    +0.311 C 
BRANCH  17  18
ATOM     18  C   UNL     1       2.782  -1.910   4.659  0.00  0.00    +0.200 C 
ATOM     19  O   UNL     1       3.980  -2.091   4.618  0.00  0.00    -0.288 OA
BRANCH  18  23
ATOM     20  C   UNL     1       0.731  -0.503   1.223  0.00  0.00    -0.048 A 
ATOM     21  C   UNL     1       2.099  -0.709   1.172  0.00  0.00    +0.004 A 
ATOM     22  C   UNL     1       2.773  -1.166   2.285  0.00  0.00    +0.012 A 
ATOM     23  C   UNL     1       2.071  -1.421   3.467  0.00  0.00    +0.021 A 
ATOM     24  C   UNL     1       0.689  -1.211   3.510  0.00  0.00    +0.012 A 
ATOM     25  C   UNL     1       0.030  -0.749   2.391  0.00  0.00    +0.004 A 
BRANCH  20  27
ATOM     26  C   UNL     1      -0.019   1.526   0.010  0.00  0.00    +0.009 C 
ATOM     27  C   UNL     1       0.002  -0.004   0.002  0.00  0.00    +0.032 C 
ENDBRANCH  20  27
ENDBRANCH  18  23
ENDBRANCH  17  18
ENDBRANCH  16  17
ENDBRANCH  14  16
ENDBRANCH   1  14
BRANCH   1  28
ATOM     28  C   UNL     1       3.978  -4.729   8.816  0.00  0.00    +0.067 C 
BRANCH  28  29
ATOM     29  C   UNL     1       4.963  -5.156   9.874  0.00  0.00    -0.039 C 
ATOM     30  C   UNL     1       4.745  -6.034  10.881  0.00  0.00    -0.001 A 
ATOM     31  C   UNL     1       3.572  -6.822  11.276  0.00  0.00    +0.010 A 
ATOM     32  C   UNL     1       3.660  -7.632  12.356  0.00  0.00    +0.001 A 
ATOM     33  C   UNL     1       4.840  -7.736  13.105  0.00  0.00    +0.002 A 
ATOM     34  C   UNL     1       5.959  -7.044  12.803  0.00  0.00    +0.026 A 
ATOM     35  C   UNL     1       5.980  -6.162  11.688  0.00  0.00    +0.043 A 
ATOM     36  N   UNL     1       6.923  -5.394  11.200  0.00  0.00    -0.380 N 
ATOM     37  C   UNL     1       6.395  -4.695  10.023  0.00  0.00    +0.144 C 
ATOM     38  H   UNL     1       7.822  -5.305  11.555  0.00  0.00    +0.160 HD
ENDBRANCH  28  29
ENDBRANCH   1  28
TORSDOF 12
