REMARK  Name = ZINC35867059
REMARK  8 active torsions:
REMARK  status: ('A' for Active; 'I' for Inactive)
REMARK    1  A    between atoms: C_1  and  C_2
REMARK    2  A    between atoms: C_2  and  O_3
REMARK    3  A    between atoms: O_3  and  C_4
REMARK    4  A    between atoms: C_4  and  C_6
REMARK    5  A    between atoms: C_6  and  N_7
REMARK    6  A    between atoms: C_23  and  C_25
REMARK    7  A    between atoms: C_25  and  C_26
REMARK    8  A    between atoms: C_25  and  C_27
REMARK                            x       y       z     vdW  Elec       q    Type
REMARK                         _______ _______ _______ _____ _____    ______ ____
ROOT
ATOM      1  N   UNL     1      -0.683  -3.867  -3.945  0.00  0.00    -0.289 N 
ATOM      2  C   UNL     1       0.214  -4.506  -3.167  0.00  0.00    +0.303 C 
ATOM      3  O   UNL     1       1.081  -3.875  -2.595  0.00  0.00    -0.253 OA
ATOM      4  N   UNL     1       0.149  -5.845  -3.024  0.00  0.00    -0.283 N 
ATOM      5  C   UNL     1      -0.818  -6.634  -3.800  0.00  0.00    +0.128 C 
ATOM      6  C   UNL     1      -0.058  -7.722  -4.568  0.00  0.00    +0.125 C 
ATOM      7  N   UNL     1       0.837  -8.419  -3.634  0.00  0.00    -0.312 N 
ATOM      8  C   UNL     1       1.804  -7.630  -2.858  0.00  0.00    +0.125 C 
ATOM      9  C   UNL     1       1.048  -6.542  -2.093  0.00  0.00    +0.128 C 
ATOM     10  C   UNL     1       0.770  -9.793  -3.487  0.00  0.00    +0.133 A 
ATOM     11  C   UNL     1       1.479 -10.648  -4.375  0.00  0.00    +0.051 A 
ATOM     12  C   UNL     1       2.333 -10.287  -5.509  0.00  0.00    -0.025 A 
ATOM     13  C   UNL     1       2.894 -11.301  -6.198  0.00  0.00    -0.004 A 
ATOM     14  S   UNL     1       2.331 -12.777  -5.393  0.00  0.00    -0.073 S 
ATOM     15  C   UNL     1       1.337 -12.028  -4.128  0.00  0.00    +0.114 A 
ATOM     16  N   UNL     1       0.593 -12.478  -3.137  0.00  0.00    -0.224 NA
ATOM     17  C   UNL     1      -0.042 -11.636  -2.346  0.00  0.00    +0.135 A 
ATOM     18  N   UNL     1       0.051 -10.329  -2.514  0.00  0.00    -0.216 NA
ATOM     19  C   UNL     1       3.799 -11.198  -7.389  0.00  0.00    +0.043 C 
ATOM     20  C   UNL     1       3.702  -9.772  -7.949  0.00  0.00    +0.005 C 
ATOM     21  C   UNL     1       3.836  -8.779  -6.790  0.00  0.00    +0.005 C 
ATOM     22  C   UNL     1       2.587  -8.837  -5.910  0.00  0.00    +0.037 C 
ATOM     23  H   UNL     1      -1.329  -4.377  -4.458  0.00  0.00    +0.151 HD
ENDROOT
BRANCH  17  24
ATOM     24  C   UNL     1      -0.886 -12.176  -1.220  0.00  0.00    +0.051 C 
ATOM     25  C   UNL     1      -1.992 -13.065  -1.794  0.00  0.00    +0.015 C 
ATOM     26  C   UNL     1      -0.010 -12.998  -0.274  0.00  0.00    +0.015 C 
ENDBRANCH  17  24
BRANCH   1  27
ATOM     27  C   UNL     1      -0.681  -2.404  -4.014  0.00  0.00    +0.226 C 
BRANCH  27  28
ATOM     28  C   UNL     1      -1.773  -1.944  -4.946  0.00  0.00    +0.324 C 
ATOM     29  O   UNL     1      -2.480  -2.755  -5.495  0.00  0.00    -0.249 OA
BRANCH  28  30
ATOM     30  O   UNL     1      -1.960  -0.633  -5.165  0.00  0.00    -0.464 OA
BRANCH  30  32
ATOM     31  C   UNL     1      -3.072   1.255  -6.184  0.00  0.00    +0.048 C 
ATOM     32  C   UNL     1      -3.013  -0.269  -6.060  0.00  0.00    +0.229 C 
ENDBRANCH  30  32
ENDBRANCH  28  30
ENDBRANCH  27  28
ENDBRANCH   1  27
TORSDOF 5
