REMARK  Name = ZINC20916696
REMARK  9 active torsions:
REMARK  status: ('A' for Active; 'I' for Inactive)
REMARK    1  A    between atoms: C_9  and  O_34
REMARK    2  A    between atoms: C_10  and  C_11
REMARK    3  A    between atoms: N_12  and  N_13
REMARK    4  A    between atoms: C_17  and  S_20
REMARK    5  A    between atoms: N_18  and  N_19
REMARK    6  A    between atoms: S_20  and  C_21
REMARK    7  A    between atoms: C_21  and  C_22
REMARK    8  A    between atoms: C_22  and  C_23
REMARK    9  A    between atoms: N_25  and  C_26
REMARK                            x       y       z     vdW  Elec       q    Type
REMARK                         _______ _______ _______ _____ _____    ______ ____
ROOT
ATOM      1  N   UNL     1      -2.570   8.059   0.003  0.00  0.00    -0.204 N 
ATOM      2  C   UNL     1      -2.561   9.446   0.019  0.00  0.00    +0.254 A 
ATOM      3  N   UNL     1      -1.495  10.210   0.028  0.00  0.00    -0.109 NA
ATOM      4  N   UNL     1      -1.920  11.545   0.040  0.00  0.00    -0.119 NA
ATOM      5  C   UNL     1      -3.232  11.553   0.046  0.00  0.00    +0.210 A 
ATOM      6  N   UNL     1      -3.662  10.256   0.033  0.00  0.00    -0.211 N 
ATOM      7  H   UNL     1      -3.526   7.515   0.001  0.00  0.00    +0.177 HD
ENDROOT
BRANCH   6   8
ATOM      8  N   UNL     1      -4.964   9.842   0.034  0.00  0.00    -0.294 N 
ATOM      9  H   UNL     1      -5.777  10.583   0.047  0.00  0.00    +0.163 HD
ATOM     10  H   UNL     1      -5.199   8.768   0.022  0.00  0.00    +0.163 HD
ENDBRANCH   6   8
BRANCH   1  12
ATOM     11  C   UNL     1      -1.369   6.051  -0.026  0.00  0.00    +0.142 C 
ATOM     12  N   UNL     1      -1.361   7.351  -0.011  0.00  0.00    -0.187 NA
BRANCH  11  22
ATOM     13  C   UNL     1      -0.006   1.078  -0.090  0.00  0.00    +0.001 A 
ATOM     14  C   UNL     1      -1.228   1.747  -0.082  0.00  0.00    +0.001 A 
ATOM     15  C   UNL     1      -1.281   3.109  -0.061  0.00  0.00    +0.009 A 
ATOM     16  C   UNL     1      -0.091   3.847  -0.058  0.00  0.00    -0.006 A 
ATOM     17  C   UNL     1       1.153   3.170  -0.072  0.00  0.00    -0.017 A 
ATOM     18  C   UNL     1       1.169   1.765  -0.088  0.00  0.00    +0.008 A 
ATOM     19  C   UNL     1       2.346   3.913  -0.070  0.00  0.00    +0.012 A 
ATOM     20  C   UNL     1       2.319   5.273  -0.053  0.00  0.00    +0.046 A 
ATOM     21  C   UNL     1       1.121   5.983  -0.039  0.00  0.00    +0.126 A 
ATOM     22  C   UNL     1      -0.100   5.308  -0.041  0.00  0.00    +0.044 A 
BRANCH  21  23
ATOM     23  O   UNL     1       1.141   7.341  -0.023  0.00  0.00    -0.506 OA
ATOM     24  H   UNL     1       0.197   7.905  -0.012  0.00  0.00    +0.292 HD
ENDBRANCH  21  23
ENDBRANCH  11  22
ENDBRANCH   1  12
BRANCH   5  25
ATOM     25  S   UNL     1      -4.259  12.984   0.068  0.00  0.00    -0.084 S 
BRANCH  25  26
ATOM     26  C   UNL     1      -3.084  14.367   0.078  0.00  0.00    +0.086 C 
BRANCH  26  27
ATOM     27  C   UNL     1      -3.854  15.689   0.097  0.00  0.00    +0.107 C 
BRANCH  27  28
ATOM     28  C   UNL     1      -2.878  16.838   0.106  0.00  0.00    +0.218 C 
ATOM     29  O   UNL     1      -1.685  16.620   0.098  0.00  0.00    -0.275 OA
ATOM     30  N   UNL     1      -3.331  18.107   0.123  0.00  0.00    -0.284 N 
ATOM     31  H   UNL     1      -4.411  18.306   0.056  0.00  0.00    +0.155 HD
BRANCH  30  32
ATOM     32  C   UNL     1      -2.428  19.172   0.226  0.00  0.00    +0.052 A 
ATOM     33  C   UNL     1      -1.180  19.086  -0.377  0.00  0.00    +0.026 A 
ATOM     34  C   UNL     1      -0.290  20.138  -0.275  0.00  0.00    +0.022 A 
ATOM     35  C   UNL     1      -0.642  21.277   0.428  0.00  0.00    +0.042 A 
ATOM     36  C   UNL     1      -1.884  21.366   1.030  0.00  0.00    +0.041 A 
ATOM     37  C   UNL     1      -2.780  20.319   0.927  0.00  0.00    +0.064 A 
ATOM     38 CL   UNL     1      -4.342  20.433   1.677  0.00  0.00    -0.082 Cl
ATOM     39 CL   UNL     1       0.479  22.597   0.554  0.00  0.00    -0.083 Cl
ENDBRANCH  30  32
ENDBRANCH  27  28
ENDBRANCH  26  27
ENDBRANCH  25  26
ENDBRANCH   5  25
TORSDOF 9
