REMARK  Name = ZINC20058103
REMARK  5 active torsions:
REMARK  status: ('A' for Active; 'I' for Inactive)
REMARK    1  A    between atoms: C_3  and  C_8
REMARK    2  A    between atoms: C_17  and  C_25
REMARK    3  A    between atoms: C_18  and  N_24
REMARK    4  A    between atoms: C_19  and  C_20
REMARK    5  A    between atoms: C_19  and  C_22
REMARK                            x       y       z     vdW  Elec       q    Type
REMARK                         _______ _______ _______ _____ _____    ______ ____
ROOT
ATOM      1  C   UNL     1      -0.071   5.348   0.030  0.00  0.00    +0.066 C 
ATOM      2  C   UNL     1      -0.705   5.858  -1.266  0.00  0.00    +0.030 C 
ATOM      3  C   UNL     1      -0.093   5.210  -2.486  0.00  0.00    +0.009 C 
ATOM      4  C   UNL     1       0.957   6.107  -3.140  0.00  0.00    +0.005 C 
ATOM      5  C   UNL     1       0.283   7.427  -3.539  0.00  0.00    +0.027 C 
ATOM      6  C   UNL     1      -0.230   8.080  -2.281  0.00  0.00    -0.022 C 
ATOM      7  C   UNL     1      -0.647   7.356  -1.261  0.00  0.00    -0.029 C 
ATOM      8  C   UNL     1      -1.042   8.041  -0.001  0.00  0.00    +0.074 C 
ATOM      9  C   UNL     1      -1.143   7.319   1.143  0.00  0.00    +0.054 C 
ATOM     10  C   UNL     1      -0.899   5.842   1.217  0.00  0.00    +0.188 C 
ENDROOT
BRANCH   1  13
ATOM     11  C   UNL     1       1.105   1.781   0.418  0.00  0.00    +0.001 A 
ATOM     12  C   UNL     1       1.087   3.164   0.419  0.00  0.00    +0.004 A 
ATOM     13  C   UNL     1      -0.050   3.841   0.022  0.00  0.00    -0.040 A 
ATOM     14  C   UNL     1      -1.168   3.136  -0.383  0.00  0.00    +0.019 A 
ATOM     15  C   UNL     1      -1.149   1.753  -0.390  0.00  0.00    +0.018 A 
ATOM     16  C   UNL     1      -0.010   1.076   0.008  0.00  0.00    +0.015 A 
ATOM     17 BR   UNL     1      -2.678   0.788  -0.943  0.00  0.00    -0.050 Br
ENDBRANCH   1  13
BRANCH   9  18
ATOM     18  N   UNL     1      -1.485   7.975   2.293  0.00  0.00    -0.358 N 
ATOM     19  H   UNL     1      -1.576   7.419   3.237  0.00  0.00    +0.142 HD
ATOM     20  H   UNL     1      -1.670   9.059   2.273  0.00  0.00    +0.142 HD
ENDBRANCH   9  18
BRANCH  10  21
ATOM     21  C   UNL     1      -2.194   5.142   1.225  0.00  0.00    +0.091 C 
ATOM     22  N   UNL     1      -3.193   4.603   1.231  0.00  0.00    -0.194 NA
ENDBRANCH  10  21
BRANCH  10  23
ATOM     23  C   UNL     1      -0.180   5.533   2.465  0.00  0.00    +0.091 C 
ATOM     24  N   UNL     1       0.374   5.295   3.427  0.00  0.00    -0.194 NA
ENDBRANCH  10  23
BRANCH   8  25
ATOM     25  C   UNL     1      -1.312   9.447   0.004  0.00  0.00    +0.101 C 
ATOM     26  N   UNL     1      -1.526  10.562   0.008  0.00  0.00    -0.191 NA
ENDBRANCH   8  25
TORSDOF 5
