REMARK  Name = ZINC14534836
REMARK  14 active torsions:
REMARK  status: ('A' for Active; 'I' for Inactive)
REMARK    1  A    between atoms: C_1  and  C_2
REMARK    2  A    between atoms: C_2  and  C_3
REMARK    3  A    between atoms: C_2  and  C_4
REMARK    4  A    between atoms: C_4  and  N_5
REMARK    5  A    between atoms: N_8  and  C_27
REMARK    6  A    between atoms: C_16  and  C_17
REMARK    7  A    between atoms: C_16  and  N_73
REMARK    8  A    between atoms: C_21  and  O_25
REMARK    9  A    between atoms: C_22  and  O_23
REMARK   10  A    between atoms: O_23  and  C_24
REMARK   11  A    between atoms: O_25  and  C_26
REMARK   12  A    between atoms: C_27  and  C_28
REMARK   13  A    between atoms: C_31  and  O_34
REMARK   14  A    between atoms: O_34  and  C_35
REMARK                            x       y       z     vdW  Elec       q    Type
REMARK                         _______ _______ _______ _____ _____    ______ ____
ROOT
ATOM      1  N   UNL     1      -0.680   5.530  -3.780  0.00  0.00    -0.271 N 
ATOM      2  C   UNL     1      -0.955   6.081  -4.978  0.00  0.00    +0.312 C 
ATOM      3  O   UNL     1      -2.035   6.552  -5.274  0.00  0.00    -0.252 OA
ATOM      4  N   UNL     1       0.096   6.051  -5.807  0.00  0.00    -0.220 N 
ATOM      5  C   UNL     1       1.169   5.472  -5.229  0.00  0.00    +0.247 C 
ATOM      6  O   UNL     1       2.263   5.297  -5.721  0.00  0.00    -0.273 OA
ATOM      7  C   UNL     1       0.719   5.088  -3.839  0.00  0.00    +0.112 C 
ATOM      8  C   UNL     1       1.554   5.812  -2.788  0.00  0.00    +0.017 C 
ATOM      9  C   UNL     1       1.094   5.383  -1.391  0.00  0.00    -0.076 C 
ATOM     10  C   UNL     1       0.376   3.221  -2.222  0.00  0.00    -0.076 C 
ATOM     11  C   UNL     1       0.812   3.577  -3.646  0.00  0.00    +0.017 C 
ATOM     12  N   UNL     1       1.259   3.919  -1.263  0.00  0.00    +0.383 N 
ATOM     13  H   UNL     1       2.235   3.675  -1.470  0.00  0.00    -0.081 HD
ENDROOT
BRANCH   1  14
ATOM     14  C   UNL     1      -1.596   5.397  -2.645  0.00  0.00    +0.113 C 
BRANCH  14  16
ATOM     15  C   UNL     1      -2.381   3.153  -3.412  0.00  0.00    +0.009 C 
ATOM     16  C   UNL     1      -2.817   4.578  -3.067  0.00  0.00    +0.000 C 
ATOM     17  C   UNL     1      -3.827   4.538  -1.918  0.00  0.00    +0.009 C 
ENDBRANCH  14  16
ENDBRANCH   1  14
BRANCH  12  18
ATOM     18  C   UNL     1       0.941   3.495   0.116  0.00  0.00    -0.039 C 
BRANCH  18  19
ATOM     19  C   UNL     1       0.849   1.991   0.161  0.00  0.00    -0.019 A 
ATOM     20  C   UNL     1      -0.389   1.374   0.163  0.00  0.00    +0.005 A 
ATOM     21  C   UNL     1      -0.477  -0.004   0.204  0.00  0.00    +0.004 A 
ATOM     22  C   UNL     1       0.672  -0.773   0.243  0.00  0.00    +0.049 A 
ATOM     23  C   UNL     1       1.915  -0.161   0.241  0.00  0.00    +0.162 A 
ATOM     24  C   UNL     1       2.004   1.227   0.200  0.00  0.00    +0.163 A 
BRANCH  24  25
ATOM     25  O   UNL     1       3.221   1.832   0.199  0.00  0.00    -0.491 OA
ATOM     26  C   UNL     1       3.820   2.082  -1.074  0.00  0.00    +0.277 C 
ENDBRANCH  24  25
BRANCH  23  27
ATOM     27  O   UNL     1       3.046  -0.916   0.280  0.00  0.00    -0.491 OA
ATOM     28  C   UNL     1       2.878  -2.334   0.322  0.00  0.00    +0.277 C 
ENDBRANCH  23  27
ENDBRANCH  18  19
ENDBRANCH  12  18
BRANCH   4  29
ATOM     29  C   UNL     1       0.083   6.580  -7.173  0.00  0.00    +0.153 C 
BRANCH  29  30
ATOM     30  C   UNL     1       0.499   8.028  -7.155  0.00  0.00    -0.029 A 
ATOM     31  C   UNL     1      -0.455   9.019  -7.014  0.00  0.00    +0.009 A 
ATOM     32  C   UNL     1      -0.075  10.347  -6.992  0.00  0.00    +0.046 A 
ATOM     33  C   UNL     1       1.264  10.686  -7.122  0.00  0.00    +0.120 A 
ATOM     34  C   UNL     1       2.219   9.691  -7.269  0.00  0.00    +0.046 A 
ATOM     35  C   UNL     1       1.834   8.364  -7.285  0.00  0.00    +0.009 A 
BRANCH  33  36
ATOM     36  O   UNL     1       1.640  11.992  -7.105  0.00  0.00    -0.495 OA
ATOM     37  C   UNL     1       0.603  12.964  -6.950  0.00  0.00    +0.277 C 
ENDBRANCH  33  36
ENDBRANCH  29  30
ENDBRANCH   4  29
TORSDOF 9
