REMARK  Name = ZINC55475727
REMARK  7 active torsions:
REMARK  status: ('A' for Active; 'I' for Inactive)
REMARK    1  A    between atoms: C_1  and  C_2
REMARK    2  A    between atoms: C_3  and  C_24
REMARK    3  A    between atoms: C_4  and  C_23
REMARK    4  A    between atoms: C_7  and  C_8
REMARK    5  A    between atoms: N_10  and  C_11
REMARK    6  A    between atoms: N_18  and  C_20
REMARK    7  A    between atoms: C_24  and  C_26
REMARK                            x       y       z     vdW  Elec       q    Type
REMARK                         _______ _______ _______ _____ _____    ______ ____
ROOT
ATOM      1  C   UNL     1      -0.374  -0.768   2.561  0.00  0.00    +0.261 C 
ATOM      2  O   UNL     1      -0.527   0.363   2.983  0.00  0.00    -0.269 OA
ATOM      3  N   UNL     1      -0.398  -1.814   3.410  0.00  0.00    -0.307 N 
ATOM      4  H   UNL     1      -0.276  -2.715   3.073  0.00  0.00    +0.149 HD
ENDROOT
BRANCH   3   5
ATOM      5  C   UNL     1      -0.608  -1.590   4.839  0.00  0.00    +0.076 C 
ATOM      6  C   UNL     1       0.722  -1.299   5.537  0.00  0.00    -0.007 C 
ATOM      7  C   UNL     1       1.694  -2.449   5.298  0.00  0.00    +0.003 C 
ATOM      8  C   UNL     1       1.138  -3.783   5.775  0.00  0.00    +0.001 C 
ATOM      9  C   UNL     1      -0.283  -4.035   5.294  0.00  0.00    +0.003 C 
ATOM     10  C   UNL     1      -1.202  -2.839   5.494  0.00  0.00    -0.007 C 
ATOM     11  C   UNL     1      -1.447  -2.558   6.972  0.00  0.00    -0.073 C 
ATOM     12  N   UNL     1      -0.237  -2.145   7.678  0.00  0.00    +0.382 N 
ATOM     13  C   UNL     1       0.482  -1.060   7.021  0.00  0.00    -0.073 C 
ATOM     14  H   UNL     1       0.370  -2.936   7.821  0.00  0.00    -0.081 HD
BRANCH  12  15
ATOM     15  C   UNL     1      -0.630  -1.683   9.015  0.00  0.00    -0.069 C 
ATOM     16  C   UNL     1       0.109  -2.280  10.214  0.00  0.00    -0.017 C 
ATOM     17  C   UNL     1      -1.339  -2.685   9.929  0.00  0.00    -0.017 C 
ENDBRANCH  12  15
ENDBRANCH   3   5
BRANCH   1  24
ATOM     18  C   UNL     1      -0.274   1.457   0.379  0.00  0.00    +0.047 C 
ATOM     19  C   UNL     1      -0.118  -0.026   0.165  0.00  0.00    -0.010 A 
ATOM     20  C   UNL     1       0.109  -0.680  -1.070  0.00  0.00    +0.041 A 
ATOM     21  C   UNL     1       0.186  -2.038  -0.800  0.00  0.00    +0.024 A 
ATOM     22  N   UNL     1       0.018  -2.217   0.518  0.00  0.00    -0.354 N 
ATOM     23  H   UNL     1       0.028  -3.073   0.974  0.00  0.00    +0.166 HD
ATOM     24  C   UNL     1      -0.164  -0.992   1.125  0.00  0.00    +0.106 A 
ATOM     25  C   UNL     1       0.420  -3.127  -1.815  0.00  0.00    +0.064 C 
BRANCH  20  26
ATOM     26  C   UNL     1       0.237  -0.043  -2.384  0.00  0.00    +0.162 C 
ATOM     27  O   UNL     1      -0.752   0.175  -3.051  0.00  0.00    -0.292 OA
ATOM     28  C   UNL     1       1.598   0.341  -2.906  0.00  0.00    +0.091 C 
ENDBRANCH  20  26
ENDBRANCH   1  24
TORSDOF 4
