REMARK  Name = ZINC38595974
REMARK  13 active torsions:
REMARK  status: ('A' for Active; 'I' for Inactive)
REMARK    1  A    between atoms: C_1  and  C_2
REMARK    2  A    between atoms: C_2  and  C_4
REMARK    3  A    between atoms: C_2  and  N_24
REMARK    4  A    between atoms: C_4  and  C_6
REMARK    5  A    between atoms: C_4  and  N_11
REMARK    6  A    between atoms: N_14  and  C_17
REMARK    7  A    between atoms: C_17  and  C_18
REMARK    8  A    between atoms: C_25  and  C_27
REMARK    9  A    between atoms: C_27  and  C_28
REMARK   10  A    between atoms: C_31  and  S_34
REMARK   11  A    between atoms: S_34  and  C_35
REMARK   12  A    between atoms: C_35  and  C_36
REMARK   13  A    between atoms: C_35  and  C_37
REMARK                            x       y       z     vdW  Elec       q    Type
REMARK                         _______ _______ _______ _____ _____    ______ ____
ROOT
ATOM      1  C   UNL     1       1.360  -1.626   1.196  0.00  0.00    +0.113 C 
ENDROOT
BRANCH   1   2
ATOM      2  N   UNL     1       0.858  -1.308   2.539  0.00  0.00    -0.297 NA
ATOM      3  C   UNL     1       0.763   0.145   2.736  0.00  0.00    +0.066 C 
ATOM      4  C   UNL     1       0.182   0.432   4.122  0.00  0.00    -0.063 C 
ATOM      5  N   UNL     1       1.048  -0.163   5.149  0.00  0.00    +0.384 N 
ATOM      6  C   UNL     1       1.113  -1.617   4.954  0.00  0.00    -0.063 C 
ATOM      7  C   UNL     1       1.702  -1.921   3.575  0.00  0.00    +0.066 C 
ATOM      8  H   UNL     1       1.975   0.228   5.075  0.00  0.00    -0.081 HD
BRANCH   5   9
ATOM      9  C   UNL     1       0.499   0.128   6.480  0.00  0.00    -0.043 C 
BRANCH   9  10
ATOM     10  C   UNL     1       1.449  -0.375   7.536  0.00  0.00    -0.064 A 
ATOM     11  C   UNL     1       1.327  -1.665   8.017  0.00  0.00    +0.002 A 
ATOM     12  C   UNL     1       2.199  -2.127   8.986  0.00  0.00    +0.000 A 
ATOM     13  C   UNL     1       3.192  -1.299   9.473  0.00  0.00    +0.000 A 
ATOM     14  C   UNL     1       3.314  -0.009   8.992  0.00  0.00    +0.000 A 
ATOM     15  C   UNL     1       2.446   0.452   8.020  0.00  0.00    +0.002 A 
ENDBRANCH   9  10
ENDBRANCH   5   9
ENDBRANCH   1   2
BRANCH   1  16
ATOM     16  C   UNL     1       1.435  -3.122   1.028  0.00  0.00    +0.009 A 
ATOM     17  C   UNL     1       2.392  -3.866   0.422  0.00  0.00    +0.013 A 
ATOM     18  C   UNL     1       2.251  -5.240   0.388  0.00  0.00    +0.008 A 
ATOM     19  C   UNL     1       1.159  -5.803   0.961  0.00  0.00    +0.045 A 
ATOM     20  S   UNL     1       0.289  -4.373   1.582  0.00  0.00    -0.100 S 
ENDBRANCH   1  16
BRANCH   1  22
ATOM     21  C   UNL     1       0.915  -1.403  -1.253  0.00  0.00    +0.030 C 
ATOM     22  C   UNL     1       0.412  -1.042   0.146  0.00  0.00    +0.092 C 
BRANCH  22  23
ATOM     23  N   UNL     1      -0.931  -1.593   0.340  0.00  0.00    -0.311 N 
ATOM     24  C   UNL     1      -2.010  -0.906  -0.085  0.00  0.00    +0.218 C 
ATOM     25  O   UNL     1      -1.868   0.170  -0.628  0.00  0.00    -0.275 OA
ATOM     26  H   UNL     1      -1.044  -2.453   0.774  0.00  0.00    +0.149 HD
BRANCH  24  27
ATOM     27  C   UNL     1      -3.391  -1.474   0.114  0.00  0.00    +0.130 C 
BRANCH  27  28
ATOM     28  C   UNL     1      -4.413  -0.517  -0.445  0.00  0.00    -0.039 A 
ATOM     29  C   UNL     1      -4.947   0.471   0.362  0.00  0.00    +0.005 A 
ATOM     30  C   UNL     1      -5.884   1.349  -0.146  0.00  0.00    +0.015 A 
ATOM     31  C   UNL     1      -6.289   1.239  -1.471  0.00  0.00    +0.008 A 
ATOM     32  C   UNL     1      -5.749   0.245  -2.279  0.00  0.00    +0.015 A 
ATOM     33  C   UNL     1      -4.809  -0.626  -1.765  0.00  0.00    +0.005 A 
BRANCH  31  34
ATOM     34  S   UNL     1      -7.484   2.357  -2.125  0.00  0.00    -0.122 S 
BRANCH  34  35
ATOM     35  C   UNL     1      -6.503   3.786  -2.658  0.00  0.00    +0.045 C 
ATOM     36  C   UNL     1      -5.592   3.376  -3.816  0.00  0.00    +0.019 C 
ATOM     37  C   UNL     1      -7.440   4.905  -3.118  0.00  0.00    +0.019 C 
ENDBRANCH  34  35
ENDBRANCH  31  34
ENDBRANCH  27  28
ENDBRANCH  24  27
ENDBRANCH  22  23
ENDBRANCH   1  22
TORSDOF 10
