REMARK  Name = ZINC34698980
REMARK  10 active torsions:
REMARK  status: ('A' for Active; 'I' for Inactive)
REMARK    1  A    between atoms: C_1  and  C_2
REMARK    2  A    between atoms: C_2  and  C_3
REMARK    3  A    between atoms: C_2  and  C_4
REMARK    4  A    between atoms: C_4  and  N_5
REMARK    5  A    between atoms: N_5  and  C_6
REMARK    6  A    between atoms: C_6  and  C_7
REMARK    7  A    between atoms: N_10  and  C_20
REMARK    8  A    between atoms: C_12  and  C_14
REMARK    9  A    between atoms: C_20  and  C_21
REMARK   10  A    between atoms: C_30  and  C_32
REMARK                            x       y       z     vdW  Elec       q    Type
REMARK                         _______ _______ _______ _____ _____    ______ ____
ROOT
ATOM      1  C   UNL     1      -2.886  -3.255   1.710  0.00  0.00    -0.005 C 
ATOM      2  C   UNL     1      -3.864  -2.281   2.401  0.00  0.00    -0.073 C 
ATOM      3  N   UNL     1      -4.588  -3.117   3.392  0.00  0.00    +0.383 N 
ATOM      4  C   UNL     1      -3.542  -4.018   3.943  0.00  0.00    -0.070 C 
ATOM      5  C   UNL     1      -2.674  -4.399   2.723  0.00  0.00    +0.005 C 
ATOM      6  H   UNL     1      -5.312  -3.654   2.939  0.00  0.00    -0.081 HD
ENDROOT
BRANCH   5   7
ATOM      7  C   UNL     1      -1.222  -4.486   3.118  0.00  0.00    -0.046 A 
ATOM      8  C   UNL     1      -0.445  -5.537   2.668  0.00  0.00    +0.004 A 
ATOM      9  C   UNL     1       0.886  -5.617   3.031  0.00  0.00    +0.000 A 
ATOM     10  C   UNL     1       1.441  -4.646   3.844  0.00  0.00    +0.000 A 
ATOM     11  C   UNL     1       0.663  -3.595   4.293  0.00  0.00    +0.000 A 
ATOM     12  C   UNL     1      -0.667  -3.513   3.927  0.00  0.00    +0.004 A 
ENDBRANCH   5   7
BRANCH   1  13
ATOM     13  C   UNL     1      -1.558  -2.555   1.414  0.00  0.00    +0.110 C 
BRANCH  13  14
ATOM     14  N   UNL     1      -1.755  -1.563   0.354  0.00  0.00    -0.297 N 
ATOM     15  C   UNL     1      -1.597  -1.916  -0.937  0.00  0.00    +0.249 C 
ATOM     16  O   UNL     1      -1.680  -1.075  -1.811  0.00  0.00    -0.270 OA
BRANCH  15  17
ATOM     17  C   UNL     1      -1.325  -3.324  -1.290  0.00  0.00    +0.072 A 
ATOM     18  C   UNL     1      -0.208  -3.976  -0.762  0.00  0.00    +0.016 A 
ATOM     19  C   UNL     1       0.041  -5.290  -1.095  0.00  0.00    +0.001 A 
ATOM     20  C   UNL     1      -0.813  -5.966  -1.951  0.00  0.00    +0.003 A 
ATOM     21  C   UNL     1      -1.920  -5.329  -2.478  0.00  0.00    +0.039 A 
ATOM     22  C   UNL     1      -2.186  -4.013  -2.149  0.00  0.00    +0.135 A 
ATOM     23  F   UNL     1      -3.272  -3.392  -2.661  0.00  0.00    -0.205 F 
ENDBRANCH  15  17
BRANCH  14  24
ATOM     24  C   UNL     1      -2.122  -0.187   0.698  0.00  0.00    +0.111 C 
BRANCH  24  26
ATOM     25  C   UNL     1      -1.255   2.137   0.995  0.00  0.00    +0.009 C 
ATOM     26  C   UNL     1      -0.861   0.677   0.760  0.00  0.00    +0.000 C 
ATOM     27  C   UNL     1       0.030   0.198   1.907  0.00  0.00    +0.009 C 
ENDBRANCH  24  26
ENDBRANCH  14  24
ENDBRANCH  13  14
ENDBRANCH   1  13
BRANCH   3  28
ATOM     28  C   UNL     1      -5.156  -2.278   4.456  0.00  0.00    -0.043 C 
BRANCH  28  29
ATOM     29  C   UNL     1      -5.987  -3.131   5.379  0.00  0.00    -0.060 A 
ATOM     30  C   UNL     1      -7.331  -3.320   5.120  0.00  0.00    +0.005 A 
ATOM     31  C   UNL     1      -8.098  -4.103   5.964  0.00  0.00    +0.050 A 
ATOM     32  C   UNL     1      -7.519  -4.699   7.073  0.00  0.00    +0.166 A 
ATOM     33  C   UNL     1      -6.164  -4.508   7.334  0.00  0.00    +0.166 A 
ATOM     34  C   UNL     1      -5.401  -3.728   6.480  0.00  0.00    +0.051 A 
ATOM     35  O   UNL     1      -5.838  -5.191   8.470  0.00  0.00    -0.453 OA
ATOM     36  C   UNL     1      -7.090  -5.466   9.125  0.00  0.00    +0.466 C 
ATOM     37  O   UNL     1      -8.041  -5.502   8.045  0.00  0.00    -0.453 OA
ENDBRANCH  28  29
ENDBRANCH   3  28
TORSDOF 8
