REMARK  Name = ZINC28402765
REMARK  11 active torsions:
REMARK  status: ('A' for Active; 'I' for Inactive)
REMARK    1  A    between atoms: C_1  and  C_2
REMARK    2  A    between atoms: C_8  and  C_14
REMARK    3  A    between atoms: C_12  and  C_13
REMARK    4  A    between atoms: N_16  and  C_17
REMARK    5  A    between atoms: C_17  and  C_18
REMARK    6  A    between atoms: C_18  and  C_20
REMARK    7  A    between atoms: C_18  and  N_30
REMARK    8  A    between atoms: C_23  and  C_26
REMARK    9  A    between atoms: C_26  and  C_27
REMARK   10  A    between atoms: C_26  and  C_28
REMARK   11  A    between atoms: C_26  and  C_29
REMARK                            x       y       z     vdW  Elec       q    Type
REMARK                         _______ _______ _______ _____ _____    ______ ____
ROOT
ATOM      1  C   UNL     1      -2.956   0.932   1.474  0.00  0.00    +0.094 C 
ENDROOT
BRANCH   1   4
ATOM      2  C   UNL     1      -4.803   0.007   2.765  0.00  0.00    +0.279 C 
ATOM      3  O   UNL     1      -4.222   0.340   3.779  0.00  0.00    -0.267 OA
ATOM      4  N   UNL     1      -4.253   0.258   1.561  0.00  0.00    -0.310 N 
ATOM      5  H   UNL     1      -4.779  -0.043   0.643  0.00  0.00    +0.149 HD
BRANCH   2  13
ATOM      6  C   UNL     1     -11.728  -3.644   1.621  0.00  0.00    +0.044 C 
ATOM      7  C   UNL     1     -10.394  -2.945   1.657  0.00  0.00    -0.047 A 
ATOM      8  C   UNL     1      -9.826  -2.612   2.867  0.00  0.00    +0.019 A 
ATOM      9  C   UNL     1      -8.591  -1.965   2.893  0.00  0.00    +0.064 A 
ATOM     10  C   UNL     1      -7.947  -1.591   4.167  0.00  0.00    +0.193 A 
ATOM     11  O   UNL     1      -8.469  -1.832   5.241  0.00  0.00    -0.287 OA
ATOM     12  C   UNL     1      -6.641  -0.919   4.078  0.00  0.00    +0.103 A 
ATOM     13  C   UNL     1      -6.116  -0.675   2.853  0.00  0.00    +0.193 A 
ATOM     14  O   UNL     1      -6.734  -1.031   1.718  0.00  0.00    -0.450 OA
ATOM     15  C   UNL     1      -7.928  -1.655   1.692  0.00  0.00    +0.140 A 
ATOM     16  C   UNL     1      -8.521  -2.000   0.482  0.00  0.00    +0.050 A 
ATOM     17  C   UNL     1      -9.742  -2.639   0.471  0.00  0.00    -0.044 A 
ATOM     18  C   UNL     1     -10.376  -3.010  -0.845  0.00  0.00    +0.044 C 
ENDBRANCH   2  13
ENDBRANCH   1   4
BRANCH   1  19
ATOM     19  C   UNL     1      -2.502   0.978   0.013  0.00  0.00    -0.020 C 
BRANCH  19  20
ATOM     20  N   UNL     1      -3.484   1.727  -0.782  0.00  0.00    +0.385 N 
ATOM     21  C   UNL     1      -2.858   2.313  -1.974  0.00  0.00    -0.078 C 
ATOM     22  C   UNL     1      -3.934   2.959  -2.850  0.00  0.00    -0.019 C 
ATOM     23  C   UNL     1      -4.657   4.043  -2.046  0.00  0.00    -0.004 C 
ATOM     24  C   UNL     1      -5.258   3.415  -0.785  0.00  0.00    -0.019 C 
ATOM     25  C   UNL     1      -4.144   2.756   0.031  0.00  0.00    -0.078 C 
ATOM     26  H   UNL     1      -4.256   1.020  -1.121  0.00  0.00    -0.081 HD
ENDBRANCH  19  20
BRANCH  19  27
ATOM     27  C   UNL     1      -1.160   1.659  -0.074  0.00  0.00    -0.059 A 
ATOM     28  C   UNL     1      -0.032   0.925  -0.390  0.00  0.00    +0.002 A 
ATOM     29  C   UNL     1       1.198   1.550  -0.476  0.00  0.00    +0.004 A 
ATOM     30  C   UNL     1       1.300   2.909  -0.242  0.00  0.00    -0.042 A 
ATOM     31  C   UNL     1       0.173   3.642   0.079  0.00  0.00    +0.004 A 
ATOM     32  C   UNL     1      -1.056   3.016   0.166  0.00  0.00    +0.002 A 
BRANCH  30  33
ATOM     33  C   UNL     1       2.641   3.591  -0.336  0.00  0.00    -0.013 C 
ATOM     34  C   UNL     1       3.204   3.416  -1.748  0.00  0.00    +0.015 C 
ATOM     35  C   UNL     1       2.477   5.081  -0.033  0.00  0.00    +0.015 C 
ATOM     36  C   UNL     1       3.603   2.967   0.677  0.00  0.00    +0.015 C 
ENDBRANCH  30  33
ENDBRANCH  19  27
ENDBRANCH   1  19
TORSDOF 6
