REMARK  Name = ZINC02663131
REMARK  9 active torsions:
REMARK  status: ('A' for Active; 'I' for Inactive)
REMARK    1  A    between atoms: C_1  and  C_2
REMARK    2  A    between atoms: C_2  and  C_3
REMARK    3  A    between atoms: C_9  and  S_16
REMARK    4  A    between atoms: N_10  and  C_13
REMARK    5  A    between atoms: C_13  and  C_14
REMARK    6  A    between atoms: S_16  and  C_17
REMARK    7  A    between atoms: C_17  and  C_18
REMARK    8  A    between atoms: C_23  and  C_26
REMARK    9  A    between atoms: C_30  and  N_32
REMARK                            x       y       z     vdW  Elec       q    Type
REMARK                         _______ _______ _______ _____ _____    ______ ____
ROOT
ATOM      1  C   UNL     1       1.935   9.537   0.037  0.00  0.00    +0.229 C 
ATOM      2  O   UNL     1       0.803   9.971   0.050  0.00  0.00    -0.275 OA
ATOM      3  N   UNL     1       2.147   8.207   0.027  0.00  0.00    -0.264 N 
ATOM      4  C   UNL     1       1.069   7.331   0.032  0.00  0.00    +0.165 A 
ATOM      5  N   UNL     1       1.064   6.011   0.025  0.00  0.00    -0.225 NA
ATOM      6  C   UNL     1      -0.070   5.327   0.031  0.00  0.00    +0.080 A 
ATOM      7  C   UNL     1      -1.260   6.001   0.041  0.00  0.00    +0.076 A 
ATOM      8  S   UNL     1      -0.682   7.693   0.051  0.00  0.00    -0.060 S 
ATOM      9  H   UNL     1       3.053   7.860   0.016  0.00  0.00    +0.157 HD
ENDROOT
BRANCH   6  10
ATOM     10  C   UNL     1      -0.050   3.844   0.023  0.00  0.00    +0.003 A 
ATOM     11  C   UNL     1      -1.246   3.128   0.030  0.00  0.00    +0.010 A 
ATOM     12  C   UNL     1      -1.222   1.749   0.017  0.00  0.00    +0.003 A 
ATOM     13  C   UNL     1      -0.013   1.076   0.008  0.00  0.00    +0.033 A 
ATOM     14  C   UNL     1       1.177   1.781   0.000  0.00  0.00    +0.127 A 
ATOM     15  C   UNL     1       1.165   3.161   0.008  0.00  0.00    +0.042 A 
BRANCH  14  16
ATOM     16  N   UNL     1       2.467   1.054  -0.015  0.00  0.00    +0.056 N 
ATOM     17  O   UNL     1       2.479  -0.164  -0.022  0.00  0.00    -0.126 OA
ATOM     18  O   UNL     1       3.515   1.674  -0.022  0.00  0.00    -0.126 OA
ENDBRANCH  14  16
ENDBRANCH   6  10
BRANCH   1  19
ATOM     19  C   UNL     1       3.106  10.487   0.031  0.00  0.00    +0.173 C 
BRANCH  19  20
ATOM     20  S   UNL     1       2.499  12.192   0.046  0.00  0.00    -0.078 S 
BRANCH  20  27
ATOM     21  C   UNL     1       8.812  14.089  -0.001  0.00  0.00    -0.008 A 
ATOM     22  C   UNL     1       7.779  14.944   0.013  0.00  0.00    +0.026 A 
ATOM     23  C   UNL     1       6.424  14.420   0.022  0.00  0.00    +0.072 A 
ATOM     24  C   UNL     1       6.331  13.015   0.015  0.00  0.00    +0.116 A 
ATOM     25  S   UNL     1       8.026  12.489  -0.003  0.00  0.00    -0.073 S 
ATOM     26  N   UNL     1       5.162  12.387   0.022  0.00  0.00    -0.216 NA
ATOM     27  C   UNL     1       4.031  13.062   0.037  0.00  0.00    +0.173 A 
ATOM     28  N   UNL     1       4.030  14.427   0.039  0.00  0.00    -0.283 N 
ATOM     29  C   UNL     1       5.180  15.126   0.038  0.00  0.00    +0.263 A 
ATOM     30  O   UNL     1       5.162  16.345   0.045  0.00  0.00    -0.267 OA
BRANCH  21  32
ATOM     31  C   UNL     1      10.797  14.503   1.427  0.00  0.00    +0.009 C 
ATOM     32  C   UNL     1      10.286  14.405  -0.011  0.00  0.00    +0.039 C 
ENDBRANCH  21  32
BRANCH  28  33
ATOM     33  C   UNL     1       2.753  15.145   0.049  0.00  0.00    +0.154 C 
BRANCH  33  34
ATOM     34  C   UNL     1       2.325  15.389   1.473  0.00  0.00    -0.013 C 
ATOM     35  C   UNL     1       2.058  16.606   1.877  0.00  0.00    +0.005 C 
ENDBRANCH  33  34
ENDBRANCH  28  33
ENDBRANCH  20  27
ENDBRANCH  19  20
ENDBRANCH   1  19
TORSDOF 8
