REMARK  Name = ZINC19291276
REMARK  10 active torsions:
REMARK  status: ('A' for Active; 'I' for Inactive)
REMARK    1  A    between atoms: C_1  and  N_2
REMARK    2  A    between atoms: C_6  and  C_7
REMARK    3  A    between atoms: C_7  and  C_9
REMARK    4  A    between atoms: C_7  and  O_33
REMARK    5  A    between atoms: C_14  and  N_15
REMARK    6  A    between atoms: N_18  and  C_21
REMARK    7  A    between atoms: C_21  and  C_22
REMARK    8  A    between atoms: C_26  and  C_29
REMARK    9  A    between atoms: C_27  and  O_28
REMARK   10  A    between atoms: C_29  and  C_30
REMARK                            x       y       z     vdW  Elec       q    Type
REMARK                         _______ _______ _______ _____ _____    ______ ____
ROOT
ATOM      1  N   UNL     1      -7.306  -0.839   2.019  0.00  0.00    -0.331 N 
ATOM      2  C   UNL     1      -7.146  -0.546   0.587  0.00  0.00    +0.086 C 
ATOM      3  C   UNL     1      -5.656  -0.505   0.241  0.00  0.00    -0.059 C 
ATOM      4  N   UNL     1      -4.993   0.517   1.062  0.00  0.00    +0.384 N 
ATOM      5  C   UNL     1      -5.152   0.224   2.494  0.00  0.00    -0.059 C 
ATOM      6  C   UNL     1      -6.643   0.183   2.840  0.00  0.00    +0.086 C 
ATOM      7  H   UNL     1      -5.476   1.484   0.858  0.00  0.00    -0.081 HD
ENDROOT
BRANCH   1  13
ATOM      8  C   UNL     1      -9.131  -2.126   2.937  0.00  0.00    +0.012 A 
ATOM      9  C   UNL     1     -10.465  -2.236   3.277  0.00  0.00    +0.008 A 
ATOM     10  C   UNL     1     -11.332  -1.188   3.032  0.00  0.00    +0.003 A 
ATOM     11  C   UNL     1     -10.867  -0.022   2.450  0.00  0.00    +0.040 A 
ATOM     12  C   UNL     1      -9.532   0.098   2.112  0.00  0.00    +0.145 A 
ATOM     13  C   UNL     1      -8.657  -0.956   2.358  0.00  0.00    +0.071 A 
ATOM     14  F   UNL     1      -9.077   1.236   1.544  0.00  0.00    -0.204 F 
BRANCH   8  15
ATOM     15  C   UNL     1      -8.188  -3.272   3.200  0.00  0.00    +0.212 C 
BRANCH  15  21
ATOM     16  C   UNL     1      -5.400  -2.407   4.239  0.00  0.00    +0.150 C 
ATOM     17  N   UNL     1      -6.519  -2.853   5.072  0.00  0.00    -0.335 N 
ATOM     18  C   UNL     1      -6.524  -2.959   6.437  0.00  0.00    +0.106 A 
ATOM     19  C   UNL     1      -7.743  -3.409   6.789  0.00  0.00    +0.130 A 
ATOM     20  N   UNL     1      -8.466  -3.568   5.670  0.00  0.00    -0.238 NA
ATOM     21  C   UNL     1      -7.740  -3.234   4.638  0.00  0.00    +0.143 A 
ENDBRANCH  15  21
BRANCH  15  22
ATOM     22  O   UNL     1      -8.858  -4.508   2.942  0.00  0.00    -0.379 OA
ATOM     23  H   UNL     1      -9.258  -4.718   1.939  0.00  0.00    +0.211 HD
ENDBRANCH  15  22
ENDBRANCH   8  15
ENDBRANCH   1  13
BRANCH   4  24
ATOM     24  C   UNL     1      -3.573   0.640   0.706  0.00  0.00    -0.039 C 
BRANCH  24  25
ATOM     25  C   UNL     1      -3.026   1.931   1.259  0.00  0.00    -0.022 A 
ATOM     26  C   UNL     1      -2.165   1.910   2.339  0.00  0.00    +0.005 A 
ATOM     27  C   UNL     1      -1.663   3.094   2.847  0.00  0.00    +0.001 A 
ATOM     28  C   UNL     1      -2.020   4.301   2.275  0.00  0.00    +0.007 A 
ATOM     29  C   UNL     1      -2.880   4.327   1.195  0.00  0.00    -0.002 A 
ATOM     30  C   UNL     1      -3.390   3.141   0.687  0.00  0.00    +0.122 A 
BRANCH  30  31
ATOM     31  O   UNL     1      -4.240   3.164  -0.373  0.00  0.00    -0.506 OA
ATOM     32  H   UNL     1      -4.529   4.124  -0.826  0.00  0.00    +0.292 HD
ENDBRANCH  30  31
BRANCH  29  33
ATOM     33  C   UNL     1      -3.269   5.643   0.572  0.00  0.00    +0.065 C 
BRANCH  33  34
ATOM     34  C   UNL     1      -4.574   6.112   1.163  0.00  0.00    -0.030 C 
ATOM     35  C   UNL     1      -4.654   7.297   1.716  0.00  0.00    +0.004 C 
ENDBRANCH  33  34
ENDBRANCH  29  33
ENDBRANCH  24  25
ENDBRANCH   4  24
TORSDOF 9
