REMARK  Name = ZINC36304080
REMARK  15 active torsions:
REMARK  status: ('A' for Active; 'I' for Inactive)
REMARK    1  A    between atoms: C_1  and  C_2
REMARK    2  A    between atoms: C_2  and  O_3
REMARK    3  A    between atoms: O_3  and  C_4
REMARK    4  A    between atoms: C_4  and  C_5
REMARK    5  A    between atoms: C_5  and  C_7
REMARK    6  A    between atoms: C_5  and  O_37
REMARK    7  A    between atoms: C_7  and  N_8
REMARK    8  A    between atoms: N_8  and  C_9
REMARK    9  A    between atoms: N_8  and  C_15
REMARK   10  A    between atoms: C_9  and  C_10
REMARK   11  A    between atoms: C_15  and  C_16
REMARK   12  A    between atoms: C_17  and  C_36
REMARK   13  A    between atoms: N_19  and  C_30
REMARK   14  A    between atoms: C_20  and  O_21
REMARK   15  A    between atoms: O_21  and  C_22
REMARK                            x       y       z     vdW  Elec       q    Type
REMARK                         _______ _______ _______ _____ _____    ______ ____
ROOT
ATOM      1  C   UNL     1       3.251  -6.347   5.678  0.00  0.00    +0.021 A 
ATOM      2  C   UNL     1       4.463  -6.207   6.360  0.00  0.00    +0.065 A 
ATOM      3  N   UNL     1       4.227  -6.279   7.645  0.00  0.00    -0.168 NA
ATOM      4  N   UNL     1       2.851  -6.469   7.831  0.00  0.00    -0.200 N 
ATOM      5  C   UNL     1       2.267  -6.502   6.604  0.00  0.00    +0.225 A 
ATOM      6  C   UNL     1       5.814  -6.006   5.723  0.00  0.00    +0.068 C 
ENDROOT
BRANCH   4   7
ATOM      7  C   UNL     1       2.194  -6.596   9.063  0.00  0.00    +0.069 A 
ATOM      8  C   UNL     1       0.970  -5.973   9.265  0.00  0.00    +0.028 A 
ATOM      9  C   UNL     1       0.325  -6.101  10.480  0.00  0.00    +0.002 A 
ATOM     10  C   UNL     1       0.897  -6.848  11.493  0.00  0.00    +0.000 A 
ATOM     11  C   UNL     1       2.116  -7.469  11.294  0.00  0.00    +0.002 A 
ATOM     12  C   UNL     1       2.764  -7.350  10.080  0.00  0.00    +0.028 A 
ENDBRANCH   4   7
BRANCH   1  13
ATOM     13  C   UNL     1       3.067  -6.325   4.183  0.00  0.00    -0.035 C 
BRANCH  13  14
ATOM     14  N   UNL     1       2.679  -4.973   3.757  0.00  0.00    +0.389 N 
ATOM     15  H   UNL     1       1.866  -4.678   4.277  0.00  0.00    -0.081 HD
BRANCH  14  16
ATOM     16  C   UNL     1       3.787  -4.043   4.010  0.00  0.00    -0.044 C 
BRANCH  16  17
ATOM     17  C   UNL     1       3.340  -2.617   3.684  0.00  0.00    +0.124 C 
BRANCH  17  18
ATOM     18  O   UNL     1       2.304  -2.224   4.587  0.00  0.00    -0.391 OA
ATOM     19  H   UNL     1       2.568  -2.235   5.517  0.00  0.00    +0.210 HD
ENDBRANCH  17  18
BRANCH  17  20
ATOM     20  C   UNL     1       4.529  -1.664   3.828  0.00  0.00    +0.189 C 
BRANCH  20  21
ATOM     21  O   UNL     1       4.142  -0.353   3.412  0.00  0.00    -0.378 OA
BRANCH  21  23
ATOM     22  C   UNL     1       4.662   1.977   3.038  0.00  0.00    +0.034 C 
ATOM     23  C   UNL     1       5.186   0.618   3.507  0.00  0.00    +0.156 C 
ENDBRANCH  21  23
ENDBRANCH  20  21
ENDBRANCH  17  20
ENDBRANCH  16  17
ENDBRANCH  14  16
BRANCH  14  24
ATOM     24  C   UNL     1       2.365  -4.983   2.322  0.00  0.00    -0.003 C 
BRANCH  24  25
ATOM     25  C   UNL     1       1.142  -5.829   2.081  0.00  0.00    +0.089 A 
ATOM     26  C   UNL     1      -0.124  -5.381   2.016  0.00  0.00    +0.042 A 
ATOM     27  C   UNL     1      -0.946  -6.507   1.776  0.00  0.00    +0.041 A 
ATOM     28  C   UNL     1      -0.131  -7.576   1.708  0.00  0.00    +0.195 A 
ATOM     29  O   UNL     1       1.133  -7.158   1.888  0.00  0.00    -0.470 OA
ENDBRANCH  24  25
ENDBRANCH  14  24
ENDBRANCH  13  14
ENDBRANCH   1  13
BRANCH   5  30
ATOM     30  O   UNL     1       0.944  -6.664   6.349  0.00  0.00    -0.435 OA
BRANCH  30  31
ATOM     31  C   UNL     1       0.454  -7.931   6.291  0.00  0.00    +0.166 A 
ATOM     32  C   UNL     1       1.276  -9.007   6.595  0.00  0.00    +0.052 A 
ATOM     33  C   UNL     1       0.777 -10.294   6.537  0.00  0.00    +0.042 A 
ATOM     34  C   UNL     1      -0.541 -10.512   6.175  0.00  0.00    +0.126 A 
ATOM     35  C   UNL     1      -1.364  -9.440   5.871  0.00  0.00    +0.080 A 
ATOM     36  C   UNL     1      -0.870  -8.150   5.934  0.00  0.00    +0.168 A 
ATOM     37  F   UNL     1      -1.673  -7.104   5.642  0.00  0.00    -0.202 F 
ATOM     38  F   UNL     1      -1.026 -11.772   6.119  0.00  0.00    -0.205 F 
ENDBRANCH  30  31
ENDBRANCH   5  30
TORSDOF 13
