REMARK  Name = ZINC14478169
REMARK  3 active torsions:
REMARK  status: ('A' for Active; 'I' for Inactive)
REMARK    1  A    between atoms: C_4  and  N_32
REMARK    2  A    between atoms: C_5  and  C_7
REMARK    3  A    between atoms: C_20  and  C_23
REMARK                            x       y       z     vdW  Elec       q    Type
REMARK                         _______ _______ _______ _____ _____    ______ ____
ROOT
ATOM      1  C   UNL     1       0.349   0.947   1.299  0.00  0.00    +0.107 C 
ATOM      2  C   UNL     1       1.319   0.028   0.552  0.00  0.00    +0.029 C 
ATOM      3  C   UNL     1       2.668   0.783   0.398  0.00  0.00    +0.033 C 
ATOM      4  C   UNL     1       2.449   1.667  -0.814  0.00  0.00    -0.030 C 
ATOM      5  C   UNL     1       1.471   1.204  -1.550  0.00  0.00    -0.023 C 
ATOM      6  C   UNL     1       0.891  -0.049  -0.934  0.00  0.00    +0.049 C 
ATOM      7  C   UNL     1      -0.601  -0.073  -1.091  0.00  0.00    -0.019 A 
ATOM      8  C   UNL     1      -1.139  -0.293  -2.328  0.00  0.00    +0.006 A 
ATOM      9  C   UNL     1      -2.506  -0.317  -2.529  0.00  0.00    +0.001 A 
ATOM     10  C   UNL     1      -3.366  -0.118  -1.471  0.00  0.00    +0.015 A 
ATOM     11  C   UNL     1      -2.850   0.107  -0.195  0.00  0.00    +0.058 A 
ATOM     12  C   UNL     1      -1.456   0.129   0.007  0.00  0.00    +0.044 A 
ATOM     13  N   UNL     1      -0.988   0.353   1.292  0.00  0.00    -0.336 N 
ATOM     14  H   UNL     1      -1.010  -0.495   1.838  0.00  0.00    +0.147 HD
ENDROOT
BRANCH  11  15
ATOM     15  C   UNL     1      -3.763   0.322   0.942  0.00  0.00    +0.248 C 
ATOM     16  O   UNL     1      -3.381   0.934   1.921  0.00  0.00    -0.270 OA
ATOM     17  N   UNL     1      -5.021  -0.160   0.897  0.00  0.00    -0.297 N 
ATOM     18  C   UNL     1      -5.488  -0.764  -0.331  0.00  0.00    +0.108 C 
ATOM     19  C   UNL     1      -6.116   0.312  -1.241  0.00  0.00    +0.019 C 
ATOM     20  C   UNL     1      -7.402   0.761  -0.686  0.00  0.00    +0.002 C 
ATOM     21  C   UNL     1      -7.298   1.433   0.679  0.00  0.00    +0.002 C 
ATOM     22  C   UNL     1      -7.308   0.378   1.758  0.00  0.00    +0.019 C 
ATOM     23  C   UNL     1      -5.867  -0.043   2.100  0.00  0.00    +0.108 C 
ENDBRANCH  11  15
BRANCH   1  28
ATOM     24  C   UNL     1      -0.633   3.752  -1.029  0.00  0.00    +0.000 A 
ATOM     25  C   UNL     1       0.227   4.757  -0.628  0.00  0.00    +0.002 A 
ATOM     26  C   UNL     1       1.126   4.530   0.397  0.00  0.00    +0.033 A 
ATOM     27  C   UNL     1       1.162   3.298   1.024  0.00  0.00    +0.131 A 
ATOM     28  C   UNL     1       0.306   2.291   0.619  0.00  0.00    +0.003 A 
ATOM     29  C   UNL     1      -0.593   2.519  -0.406  0.00  0.00    +0.008 A 
BRANCH  27  30
ATOM     30  N   UNL     1       2.121   3.057   2.126  0.00  0.00    +0.057 N 
ATOM     31  O   UNL     1       3.267   3.458   2.035  0.00  0.00    -0.126 OA
ATOM     32  O   UNL     1       1.763   2.456   3.123  0.00  0.00    -0.126 OA
ENDBRANCH  27  30
ENDBRANCH   1  28
TORSDOF 3
