REMARK  Name = ZINC12333364
REMARK  10 active torsions:
REMARK  status: ('A' for Active; 'I' for Inactive)
REMARK    1  A    between atoms: C_1  and  C_2
REMARK    2  A    between atoms: C_2  and  C_3
REMARK    3  A    between atoms: C_3  and  C_4
REMARK    4  A    between atoms: C_3  and  C_6
REMARK    5  A    between atoms: C_4  and  C_5
REMARK    6  A    between atoms: N_8  and  C_9
REMARK    7  A    between atoms: N_8  and  C_19
REMARK    8  A    between atoms: C_9  and  C_10
REMARK    9  A    between atoms: C_19  and  C_20
REMARK   10  A    between atoms: C_28  and  N_29
REMARK                            x       y       z     vdW  Elec       q    Type
REMARK                         _______ _______ _______ _____ _____    ______ ____
ROOT
ATOM      1  C   UNL     1       3.616  -0.573   0.033  0.00  0.00    +0.146 C 
ENDROOT
BRANCH   1   2
ATOM      2  C   UNL     1       4.678  -1.027  -0.935  0.00  0.00    +0.008 A 
ATOM      3  C   UNL     1       5.941  -1.283  -0.492  0.00  0.00    +0.018 A 
ATOM      4  C   UNL     1       6.905  -1.705  -1.429  0.00  0.00    -0.001 A 
ATOM      5  C   UNL     1       8.224  -1.986  -1.040  0.00  0.00    +0.013 A 
ATOM      6  C   UNL     1       9.130  -2.393  -1.972  0.00  0.00    +0.039 A 
ATOM      7  C   UNL     1       8.764  -2.534  -3.311  0.00  0.00    +0.125 A 
ATOM      8  C   UNL     1       7.490  -2.273  -3.721  0.00  0.00    +0.064 A 
ATOM      9  C   UNL     1       6.530  -1.847  -2.788  0.00  0.00    +0.050 A 
ATOM     10  C   UNL     1       4.369  -1.186  -2.293  0.00  0.00    +0.104 A 
ATOM     11  F   UNL     1       9.684  -2.938  -4.214  0.00  0.00    -0.205 F 
ATOM     12  N   UNL     1       5.254  -1.590  -3.238  0.00  0.00    -0.343 N 
ATOM     13  H   UNL     1       4.991  -1.696  -4.225  0.00  0.00    +0.167 HD
BRANCH  10  14
ATOM     14  N   UNL     1       3.079  -0.922  -2.729  0.00  0.00    -0.312 N 
ATOM     15  C   UNL     1       2.401  -2.158  -3.149  0.00  0.00    +0.134 C 
ATOM     16  C   UNL     1       0.965  -1.830  -3.565  0.00  0.00    +0.178 C 
ATOM     17  O   UNL     1       0.988  -0.845  -4.603  0.00  0.00    -0.377 OA
ATOM     18  C   UNL     1       1.639   0.371  -4.228  0.00  0.00    +0.178 C 
ATOM     19  C   UNL     1       3.083   0.065  -3.818  0.00  0.00    +0.134 C 
ENDBRANCH  10  14
ENDBRANCH   1   2
BRANCH   1  22
ATOM     20  C   UNL     1       3.942  -1.784   2.122  0.00  0.00    +0.219 C 
ATOM     21  O   UNL     1       4.282  -1.822   3.285  0.00  0.00    -0.275 OA
ATOM     22  N   UNL     1       4.132  -0.661   1.401  0.00  0.00    -0.292 N 
BRANCH  20  23
ATOM     23  C   UNL     1       3.306  -2.991   1.482  0.00  0.00    +0.075 C 
BRANCH  23  25
ATOM     24  C   UNL     1       5.527  -4.077   1.119  0.00  0.00    +0.004 C 
ATOM     25  C   UNL     1       4.154  -4.230   1.777  0.00  0.00    +0.009 C 
ENDBRANCH  23  25
BRANCH  23  26
ATOM     26  C   UNL     1       1.899  -3.188   2.051  0.00  0.00    +0.009 C 
ATOM     27  C   UNL     1       1.014  -2.010   1.641  0.00  0.00    +0.004 C 
ENDBRANCH  23  26
ENDBRANCH  20  23
BRANCH  22  28
ATOM     28  C   UNL     1       4.856   0.471   1.985  0.00  0.00    +0.143 C 
BRANCH  28  29
ATOM     29  C   UNL     1       3.870   1.445   2.577  0.00  0.00    -0.026 A 
ATOM     30  C   UNL     1       3.288   2.410   1.776  0.00  0.00    +0.009 A 
ATOM     31  C   UNL     1       2.380   3.303   2.313  0.00  0.00    +0.050 A 
ATOM     32  C   UNL     1       2.059   3.240   3.659  0.00  0.00    +0.166 A 
ATOM     33  C   UNL     1       2.649   2.271   4.468  0.00  0.00    +0.167 A 
ATOM     34  C   UNL     1       3.554   1.376   3.921  0.00  0.00    +0.054 A 
ATOM     35  O   UNL     1       2.174   2.415   5.739  0.00  0.00    -0.453 OA
ATOM     36  C   UNL     1       1.601   3.735   5.788  0.00  0.00    +0.466 C 
ATOM     37  O   UNL     1       1.214   3.991   4.425  0.00  0.00    -0.453 OA
ENDBRANCH  28  29
ENDBRANCH  22  28
ENDBRANCH   1  22
TORSDOF 8
