REMARK  Name = ZINC09663540
REMARK  6 active torsions:
REMARK  status: ('A' for Active; 'I' for Inactive)
REMARK    1  A    between atoms: C_1  and  C_2
REMARK    2  A    between atoms: C_4  and  C_32
REMARK    3  A    between atoms: C_6  and  N_8
REMARK    4  A    between atoms: C_9  and  C_11
REMARK    5  A    between atoms: C_11  and  N_12
REMARK    6  A    between atoms: N_22  and  C_25
REMARK                            x       y       z     vdW  Elec       q    Type
REMARK                         _______ _______ _______ _____ _____    ______ ____
ROOT
ATOM      1  N   UNL     1       4.581   5.660   0.302  0.00  0.00    -0.243 N 
ATOM      2  C   UNL     1       4.269   6.281  -0.898  0.00  0.00    +0.065 A 
ATOM      3  C   UNL     1       4.231   5.569  -2.091  0.00  0.00    +0.025 A 
ATOM      4  C   UNL     1       3.912   6.216  -3.268  0.00  0.00    +0.002 A 
ATOM      5  C   UNL     1       3.624   7.569  -3.280  0.00  0.00    +0.002 A 
ATOM      6  C   UNL     1       3.656   8.290  -2.094  0.00  0.00    +0.031 A 
ATOM      7  C   UNL     1       3.971   7.645  -0.932  0.00  0.00    +0.131 A 
ATOM      8  S   UNL     1       4.040   8.471   0.636  0.00  0.00    +0.084 S 
ATOM      9  O   UNL     1       2.711   8.896   0.907  0.00  0.00    -0.149 OA
ATOM     10  O   UNL     1       5.111   9.400   0.533  0.00  0.00    -0.149 OA
ATOM     11  N   UNL     1       4.454   7.438   1.895  0.00  0.00    -0.123 N 
ATOM     12  C   UNL     1       4.668   6.152   1.528  0.00  0.00    +0.333 C 
ATOM     13  O   UNL     1       4.969   5.373   2.411  0.00  0.00    -0.250 OA
ENDROOT
BRANCH  11  14
ATOM     14  C   UNL     1       4.567   7.872   3.221  0.00  0.00    +0.061 A 
ATOM     15  C   UNL     1       3.875   8.999   3.646  0.00  0.00    +0.026 A 
ATOM     16  C   UNL     1       3.986   9.422   4.955  0.00  0.00    +0.017 A 
ATOM     17  C   UNL     1       4.792   8.731   5.842  0.00  0.00    +0.018 A 
ATOM     18  C   UNL     1       5.486   7.611   5.420  0.00  0.00    +0.017 A 
ATOM     19  C   UNL     1       5.376   7.180   4.113  0.00  0.00    +0.026 A 
ATOM     20 BR   UNL     1       4.946   9.318   7.633  0.00  0.00    -0.050 Br
ENDBRANCH  11  14
BRANCH   1  21
ATOM     21  C   UNL     1       4.867   4.227   0.196  0.00  0.00    +0.211 C 
BRANCH  21  23
ATOM     22  N   UNL     1       6.804   2.785  -0.341  0.00  0.00    -0.284 N 
ATOM     23  C   UNL     1       6.312   4.030  -0.185  0.00  0.00    +0.235 C 
ATOM     24  O   UNL     1       7.032   4.992  -0.351  0.00  0.00    -0.274 OA
ATOM     25  H   UNL     1       6.212   2.019  -0.284  0.00  0.00    +0.155 HD
BRANCH  22  31
ATOM     26  C   UNL     1      10.406   0.228  -2.499  0.00  0.00    +0.044 C 
ATOM     27  C   UNL     1       9.943   1.365  -1.625  0.00  0.00    -0.048 A 
ATOM     28  C   UNL     1      10.869   2.227  -1.067  0.00  0.00    +0.006 A 
ATOM     29  C   UNL     1      10.448   3.275  -0.268  0.00  0.00    -0.048 A 
ATOM     30  C   UNL     1       9.101   3.463  -0.026  0.00  0.00    +0.026 A 
ATOM     31  C   UNL     1       8.169   2.598  -0.585  0.00  0.00    +0.034 A 
ATOM     32  C   UNL     1       8.595   1.547  -1.387  0.00  0.00    +0.026 A 
ATOM     33  C   UNL     1      11.460   4.212   0.338  0.00  0.00    +0.044 C 
ENDBRANCH  22  31
ENDBRANCH  21  23
ENDBRANCH   1  21
TORSDOF 4
