REMARK  Name = ZINC35778633
REMARK  15 active torsions:
REMARK  status: ('A' for Active; 'I' for Inactive)
REMARK    1  A    between atoms: C_1  and  C_2
REMARK    2  A    between atoms: C_2  and  C_3
REMARK    3  A    between atoms: C_3  and  N_4
REMARK    4  A    between atoms: N_4  and  C_5
REMARK    5  A    between atoms: N_4  and  C_18
REMARK    6  A    between atoms: C_5  and  C_6
REMARK    7  A    between atoms: C_6  and  C_8
REMARK    8  A    between atoms: C_6  and  O_17
REMARK    9  A    between atoms: C_8  and  O_9
REMARK   10  A    between atoms: O_9  and  C_10
REMARK   11  A    between atoms: C_10  and  C_11
REMARK   12  A    between atoms: C_18  and  C_19
REMARK   13  A    between atoms: C_29  and  C_31
REMARK   14  A    between atoms: C_31  and  O_32
REMARK   15  A    between atoms: O_32  and  C_33
REMARK                            x       y       z     vdW  Elec       q    Type
REMARK                         _______ _______ _______ _____ _____    ______ ____
ROOT
ATOM      1  C   UNL     1       1.757  -2.487  -2.234  0.00  0.00    +0.019 C 
ENDROOT
BRANCH   1   2
ATOM      2  C   UNL     1       3.146  -1.955  -1.990  0.00  0.00    +0.200 C 
ATOM      3  O   UNL     1       3.354  -1.211  -1.056  0.00  0.00    -0.278 OA
ATOM      4  N   UNL     1       4.156  -2.307  -2.810  0.00  0.00    -0.292 N 
ATOM      5  C   UNL     1       3.914  -3.204  -3.950  0.00  0.00    +0.113 C 
ATOM      6  C   UNL     1       4.176  -2.421  -5.245  0.00  0.00    +0.061 C 
ATOM      7  C   UNL     1       5.423  -1.616  -5.074  0.00  0.00    -0.004 A 
ATOM      8  C   UNL     1       6.062  -1.300  -3.914  0.00  0.00    -0.014 A 
ATOM      9  C   UNL     1       7.213  -0.522  -4.026  0.00  0.00    +0.013 A 
ATOM     10  C   UNL     1       7.645  -0.124  -5.245  0.00  0.00    +0.046 A 
ATOM     11  S   UNL     1       6.418  -0.846  -6.324  0.00  0.00    -0.101 S 
ATOM     12  C   UNL     1       5.514  -1.794  -2.582  0.00  0.00    +0.144 C 
BRANCH  12  13
ATOM     13  C   UNL     1       6.407  -2.914  -2.042  0.00  0.00    +0.256 C 
BRANCH  13  14
ATOM     14  O   UNL     1       6.552  -3.928  -3.038  0.00  0.00    -0.490 OA
BRANCH  14  15
ATOM     15  C   UNL     1       7.321  -5.002  -2.717  0.00  0.00    +0.121 A 
ATOM     16  C   UNL     1       7.918  -5.080  -1.467  0.00  0.00    +0.045 A 
ATOM     17  C   UNL     1       8.698  -6.173  -1.143  0.00  0.00    +0.004 A 
ATOM     18  C   UNL     1       8.885  -7.188  -2.063  0.00  0.00    +0.000 A 
ATOM     19  C   UNL     1       8.291  -7.112  -3.309  0.00  0.00    +0.004 A 
ATOM     20  C   UNL     1       7.505  -6.025  -3.636  0.00  0.00    +0.045 A 
ENDBRANCH  14  15
ENDBRANCH  13  14
ENDBRANCH  12  13
ENDBRANCH   1   2
BRANCH   1  21
ATOM     21  N   UNL     1       0.844  -1.961  -1.211  0.00  0.00    +0.387 N 
ATOM     22  H   UNL     1       1.204  -2.180  -0.294  0.00  0.00    -0.081 HD
BRANCH  21  23
ATOM     23  C   UNL     1       0.733  -0.503  -1.357  0.00  0.00    -0.078 C 
BRANCH  23  25
ATOM     24  C   UNL     1      -0.102   1.591  -0.281  0.00  0.00    +0.002 C 
ATOM     25  C   UNL     1      -0.098   0.063  -0.204  0.00  0.00    -0.022 C 
ENDBRANCH  23  25
ENDBRANCH  21  23
BRANCH  21  26
ATOM     26  C   UNL     1      -0.481  -2.572  -1.376  0.00  0.00    -0.044 C 
BRANCH  26  27
ATOM     27  C   UNL     1      -0.393  -4.070  -1.078  0.00  0.00    +0.124 C 
BRANCH  27  28
ATOM     28  O   UNL     1       0.052  -4.263   0.266  0.00  0.00    -0.391 OA
ATOM     29  H   UNL     1      -0.567  -3.940   0.935  0.00  0.00    +0.210 HD
ENDBRANCH  27  28
BRANCH  27  30
ATOM     30  C   UNL     1      -1.773  -4.707  -1.255  0.00  0.00    +0.189 C 
BRANCH  30  31
ATOM     31  O   UNL     1      -1.668  -6.123  -1.091  0.00  0.00    -0.373 OA
BRANCH  31  32
ATOM     32  C   UNL     1      -2.908  -6.818  -1.237  0.00  0.00    +0.195 C 
BRANCH  32  33
ATOM     33  C   UNL     1      -2.681  -8.296  -1.045  0.00  0.00    -0.022 A 
ATOM     34  C   UNL     1      -2.365  -9.093  -2.129  0.00  0.00    +0.006 A 
ATOM     35  C   UNL     1      -2.157 -10.448  -1.953  0.00  0.00    +0.000 A 
ATOM     36  C   UNL     1      -2.264 -11.006  -0.693  0.00  0.00    +0.000 A 
ATOM     37  C   UNL     1      -2.579 -10.208   0.391  0.00  0.00    +0.000 A 
ATOM     38  C   UNL     1      -2.783  -8.852   0.216  0.00  0.00    +0.006 A 
ENDBRANCH  32  33
ENDBRANCH  31  32
ENDBRANCH  30  31
ENDBRANCH  27  30
ENDBRANCH  26  27
ENDBRANCH  21  26
ENDBRANCH   1  21
TORSDOF 14
