REMARK  Name = ZINC66688426
REMARK  11 active torsions:
REMARK  status: ('A' for Active; 'I' for Inactive)
REMARK    1  A    between atoms: C_1  and  C_2
REMARK    2  A    between atoms: C_2  and  C_3
REMARK    3  A    between atoms: C_3  and  N_4
REMARK    4  A    between atoms: N_4  and  C_5
REMARK    5  A    between atoms: C_5  and  C_6
REMARK    6  A    between atoms: C_11  and  O_12
REMARK    7  A    between atoms: N_15  and  C_16
REMARK    8  A    between atoms: C_16  and  C_18
REMARK    9  A    between atoms: C_16  and  C_28
REMARK   10  A    between atoms: C_28  and  C_29
REMARK   11  A    between atoms: C_28  and  C_30
REMARK                            x       y       z     vdW  Elec       q    Type
REMARK                         _______ _______ _______ _____ _____    ______ ____
ROOT
ATOM      1  N   UNL     1       0.738  -1.962  -1.265  0.00  0.00    -0.281 N 
ATOM      2  C   UNL     1       1.764  -2.626  -0.695  0.00  0.00    +0.303 C 
ATOM      3  O   UNL     1       1.780  -3.841  -0.701  0.00  0.00    -0.253 OA
ATOM      4  N   UNL     1       2.771  -1.941  -0.117  0.00  0.00    -0.289 N 
ATOM      5  H   UNL     1       2.757  -0.971  -0.112  0.00  0.00    +0.151 HD
ENDROOT
BRANCH   1   6
ATOM      6  C   UNL     1       0.718  -0.497  -1.257  0.00  0.00    +0.109 C 
BRANCH   6   8
ATOM      7  C   UNL     1      -0.019   1.526   0.010  0.00  0.00    +0.005 C 
ATOM      8  C   UNL     1       0.002  -0.004   0.002  0.00  0.00    +0.016 C 
ENDBRANCH   6   8
ENDBRANCH   1   6
BRANCH   1   9
ATOM      9  C   UNL     1      -0.357  -2.706  -1.893  0.00  0.00    +0.148 C 
BRANCH   9  10
ATOM     10  C   UNL     1      -0.033  -2.945  -3.345  0.00  0.00    +0.011 A 
ATOM     11  C   UNL     1      -0.588  -2.137  -4.319  0.00  0.00    +0.009 A 
ATOM     12  C   UNL     1      -0.292  -2.356  -5.652  0.00  0.00    +0.001 A 
ATOM     13  C   UNL     1       0.559  -3.383  -6.013  0.00  0.00    +0.004 A 
ATOM     14  C   UNL     1       1.116  -4.194  -5.044  0.00  0.00    +0.046 A 
ATOM     15  C   UNL     1       0.825  -3.973  -3.705  0.00  0.00    +0.122 A 
BRANCH  15  16
ATOM     16  O   UNL     1       1.377  -4.766  -2.749  0.00  0.00    -0.506 OA
ATOM     17  H   UNL     1       0.849  -5.548  -2.534  0.00  0.00    +0.292 HD
ENDBRANCH  15  16
ENDBRANCH   9  10
ENDBRANCH   1   9
BRANCH   4  18
ATOM     18  C   UNL     1       3.885  -2.662   0.503  0.00  0.00    +0.143 C 
BRANCH  18  19
ATOM     19  C   UNL     1       4.518  -1.795   1.561  0.00  0.00    +0.129 A 
ATOM     20  N   UNL     1       4.049  -0.580   1.956  0.00  0.00    -0.340 N 
ATOM     21  H   UNL     1       3.263  -0.128   1.612  0.00  0.00    +0.167 HD
ATOM     22  C   UNL     1       4.900  -0.111   2.937  0.00  0.00    +0.066 A 
ATOM     23  C   UNL     1       4.945   1.044   3.706  0.00  0.00    +0.028 A 
ATOM     24  C   UNL     1       5.958   1.212   4.626  0.00  0.00    +0.002 A 
ATOM     25  C   UNL     1       6.931   0.235   4.788  0.00  0.00    +0.002 A 
ATOM     26  C   UNL     1       6.902  -0.907   4.040  0.00  0.00    +0.030 A 
ATOM     27  C   UNL     1       5.885  -1.100   3.101  0.00  0.00    +0.089 A 
ATOM     28  N   UNL     1       5.588  -2.102   2.234  0.00  0.00    -0.231 NA
ENDBRANCH  18  19
BRANCH  18  29
ATOM     29  C   UNL     1       4.926  -3.006  -0.564  0.00  0.00    +0.011 C 
ATOM     30  C   UNL     1       6.090  -3.759   0.084  0.00  0.00    +0.009 C 
ATOM     31  C   UNL     1       4.284  -3.886  -1.638  0.00  0.00    +0.009 C 
ENDBRANCH  18  29
ENDBRANCH   4  18
TORSDOF 8
