REMARK  Name = ZINC01770068
REMARK  10 active torsions:
REMARK  status: ('A' for Active; 'I' for Inactive)
REMARK    1  A    between atoms: C_1  and  C_2
REMARK    2  A    between atoms: C_6  and  O_8
REMARK    3  A    between atoms: O_8  and  C_9
REMARK    4  A    between atoms: C_15  and  O_33
REMARK    5  A    between atoms: C_16  and  C_24
REMARK    6  A    between atoms: C_19  and  C_20
REMARK    7  A    between atoms: C_24  and  N_56
REMARK    8  A    between atoms: C_25  and  N_56
REMARK    9  A    between atoms: C_26  and  C_27
REMARK   10  A    between atoms: C_26  and  N_56
REMARK                            x       y       z     vdW  Elec       q    Type
REMARK                         _______ _______ _______ _____ _____    ______ ____
ROOT
ATOM      1  C   UNL     1      -3.567   3.067   0.053  0.00  0.00    +0.222 A 
ATOM      2  C   UNL     1      -4.185   2.691  -1.174  0.00  0.00    +0.235 A 
ATOM      3  O   UNL     1      -3.710   3.015  -2.250  0.00  0.00    -0.283 OA
ATOM      4  C   UNL     1      -5.420   1.892  -1.089  0.00  0.00    +0.068 A 
ATOM      5  C   UNL     1      -6.095   1.474  -2.237  0.00  0.00    +0.019 A 
ATOM      6  C   UNL     1      -7.240   0.739  -2.118  0.00  0.00    +0.046 A 
ATOM      7  C   UNL     1      -7.736   0.405  -0.859  0.00  0.00    +0.122 A 
ATOM      8  C   UNL     1      -7.078   0.813   0.288  0.00  0.00    +0.020 A 
ATOM      9  C   UNL     1      -5.913   1.561   0.185  0.00  0.00    +0.144 A 
ATOM     10  O   UNL     1      -5.253   1.972   1.286  0.00  0.00    -0.447 OA
ATOM     11  C   UNL     1      -4.127   2.694   1.221  0.00  0.00    +0.254 A 
ENDROOT
BRANCH  11  12
ATOM     12  C   UNL     1      -3.458   3.107   2.506  0.00  0.00    +0.454 C 
ATOM     13  F   UNL     1      -3.962   4.346   2.917  0.00  0.00    -0.163 F 
ATOM     14  F   UNL     1      -3.712   2.149   3.493  0.00  0.00    -0.163 F 
ATOM     15  F   UNL     1      -2.078   3.211   2.302  0.00  0.00    -0.163 F 
ENDBRANCH  11  12
BRANCH   7  16
ATOM     16  O   UNL     1      -8.875  -0.326  -0.758  0.00  0.00    -0.506 OA
ATOM     17  H   UNL     1      -9.682   0.206  -0.719  0.00  0.00    +0.292 HD
ENDBRANCH   7  16
BRANCH   1  18
ATOM     18  O   UNL     1      -2.421   3.802   0.046  0.00  0.00    -0.448 OA
BRANCH  18  24
ATOM     19  C   UNL     1       2.458   3.933  -0.001  0.00  0.00    +0.044 C 
ATOM     20  C   UNL     1       1.160   3.166   0.008  0.00  0.00    -0.047 A 
ATOM     21  C   UNL     1       1.176   1.783   0.000  0.00  0.00    +0.003 A 
ATOM     22  C   UNL     1      -0.013   1.076   0.008  0.00  0.00    +0.004 A 
ATOM     23  C   UNL     1      -1.219   1.750   0.017  0.00  0.00    +0.046 A 
ATOM     24  C   UNL     1      -1.237   3.137   0.031  0.00  0.00    +0.129 A 
ATOM     25  C   UNL     1      -0.042   3.844   0.023  0.00  0.00    +0.049 A 
ENDBRANCH  18  24
ENDBRANCH   1  18
BRANCH   8  26
ATOM     26  C   UNL     1      -7.625   0.448   1.644  0.00  0.00    -0.035 C 
BRANCH  26  28
ATOM     27  C   UNL     1      -9.743   1.550   1.244  0.00  0.00    -0.095 C 
ATOM     28  N   UNL     1      -8.536   1.520   2.096  0.00  0.00    +0.383 N 
ATOM     29  H   UNL     1      -8.052   2.423   2.021  0.00  0.00    -0.081 HD
BRANCH  28  30
ATOM     30  C   UNL     1      -8.919   1.297   3.506  0.00  0.00    -0.043 C 
BRANCH  30  31
ATOM     31  C   UNL     1      -9.662   2.509   4.006  0.00  0.00    -0.064 A 
ATOM     32  C   UNL     1      -8.967   3.557   4.581  0.00  0.00    +0.002 A 
ATOM     33  C   UNL     1      -9.649   4.671   5.035  0.00  0.00    +0.000 A 
ATOM     34  C   UNL     1     -11.025   4.733   4.923  0.00  0.00    +0.000 A 
ATOM     35  C   UNL     1     -11.720   3.683   4.352  0.00  0.00    +0.000 A 
ATOM     36  C   UNL     1     -11.038   2.571   3.894  0.00  0.00    +0.002 A 
ENDBRANCH  30  31
ENDBRANCH  28  30
ENDBRANCH  26  28
ENDBRANCH   8  26
TORSDOF 8
