REMARK  Name = ZINC23953879
REMARK  5 active torsions:
REMARK  status: ('A' for Active; 'I' for Inactive)
REMARK    1  A    between atoms: C_1  and  C_2
REMARK    2  A    between atoms: C_2  and  C_3
REMARK    3  A    between atoms: C_3  and  C_23
REMARK    4  A    between atoms: N_6  and  N_10
REMARK    5  A    between atoms: C_11  and  C_13
REMARK                            x       y       z     vdW  Elec       q    Type
REMARK                         _______ _______ _______ _____ _____    ______ ____
ROOT
ATOM      1  C   UNL     1       2.983   3.329  -0.621  0.00  0.00    +0.139 C 
ATOM      2  C   UNL     1       1.680   2.702  -1.077  0.00  0.00    +0.268 C 
ATOM      3  O   UNL     1       1.184   2.764  -2.181  0.00  0.00    -0.271 OA
ATOM      4  N   UNL     1       1.187   2.061   0.002  0.00  0.00    -0.137 N 
ATOM      5  C   UNL     1       1.987   2.198   1.066  0.00  0.00    +0.327 C 
ATOM      6  O   UNL     1       1.752   1.713   2.155  0.00  0.00    -0.251 OA
ATOM      7  N   UNL     1       3.082   2.931   0.794  0.00  0.00    -0.280 N 
ATOM      8  H   UNL     1       3.948   3.247   1.395  0.00  0.00    +0.152 HD
ENDROOT
BRANCH   1   9
ATOM      9  C   UNL     1       4.141   2.779  -1.413  0.00  0.00    -0.015 A 
ATOM     10  C   UNL     1       4.540   3.405  -2.579  0.00  0.00    +0.006 A 
ATOM     11  C   UNL     1       5.606   2.903  -3.302  0.00  0.00    +0.000 A 
ATOM     12  C   UNL     1       6.266   1.770  -2.865  0.00  0.00    +0.000 A 
ATOM     13  C   UNL     1       5.863   1.141  -1.702  0.00  0.00    +0.000 A 
ATOM     14  C   UNL     1       4.801   1.645  -0.976  0.00  0.00    +0.006 A 
ENDBRANCH   1   9
BRANCH   4  15
ATOM     15  N   UNL     1      -0.016   1.344   0.009  0.00  0.00    -0.219 N 
ATOM     16  C   UNL     1       0.002  -0.004   0.002  0.00  0.00    +0.267 C 
ATOM     17  O   UNL     1       1.064  -0.598  -0.011  0.00  0.00    -0.268 OA
ATOM     18  H   UNL     1      -0.976   1.881   0.021  0.00  0.00    +0.174 HD
BRANCH  16  19
ATOM     19  C   UNL     1      -1.260  -0.756   0.010  0.00  0.00    +0.077 A 
ATOM     20  C   UNL     1      -1.444  -2.103  -0.001  0.00  0.00    +0.032 A 
ATOM     21  C   UNL     1      -2.746  -2.634   0.014  0.00  0.00    +0.025 A 
ATOM     22  C   UNL     1      -3.139  -3.999   0.010  0.00  0.00    +0.132 A 
ATOM     23  C   UNL     1      -4.465  -4.344   0.020  0.00  0.00    +0.039 A 
ATOM     24  C   UNL     1      -5.465  -3.379   0.034  0.00  0.00    +0.004 A 
ATOM     25  C   UNL     1      -5.120  -2.042   0.039  0.00  0.00    +0.016 A 
ATOM     26  C   UNL     1      -3.790  -1.679   0.028  0.00  0.00    +0.023 A 
ATOM     27  S   UNL     1      -2.930  -0.126   0.029  0.00  0.00    -0.084 S 
ATOM     28  F   UNL     1      -2.196  -4.967  -0.004  0.00  0.00    -0.205 F 
ENDBRANCH  16  19
ENDBRANCH   4  15
BRANCH   1  30
ATOM     29  C   UNL     1       1.852   5.400   0.200  0.00  0.00    +0.007 C 
ATOM     30  C   UNL     1       2.920   4.852  -0.748  0.00  0.00    +0.037 C 
ENDBRANCH   1  30
TORSDOF 4
