REMARK  Name = ZINC13038035
REMARK  7 active torsions:
REMARK  status: ('A' for Active; 'I' for Inactive)
REMARK    1  A    between atoms: C_1  and  C_2
REMARK    2  A    between atoms: C_2  and  C_4
REMARK    3  A    between atoms: C_2  and  N_9
REMARK    4  A    between atoms: C_10  and  C_12
REMARK    5  A    between atoms: C_12  and  N_13
REMARK    6  A    between atoms: N_16  and  S_19
REMARK    7  A    between atoms: S_19  and  C_22
REMARK                            x       y       z     vdW  Elec       q    Type
REMARK                         _______ _______ _______ _____ _____    ______ ____
ROOT
ATOM      1  N   UNL     1      -0.152  -1.201   4.710  0.00  0.00    -0.291 NA
ATOM      2  C   UNL     1      -0.614   0.140   5.093  0.00  0.00    +0.102 C 
ATOM      3  C   UNL     1      -1.716   0.014   6.151  0.00  0.00    +0.125 C 
ATOM      4  N   UNL     1      -1.208  -0.809   7.258  0.00  0.00    -0.174 NA
ATOM      5  C   UNL     1      -0.603  -2.111   6.938  0.00  0.00    +0.125 C 
ATOM      6  C   UNL     1       0.454  -1.902   5.849  0.00  0.00    +0.102 C 
ENDROOT
BRANCH   4   7
ATOM      7  S   UNL     1      -1.314  -0.285   8.826  0.00  0.00    +0.061 S 
ATOM      8  O   UNL     1      -0.298  -0.964   9.551  0.00  0.00    -0.153 OA
ATOM      9  O   UNL     1      -1.396   1.133   8.775  0.00  0.00    -0.153 OA
BRANCH   7  10
ATOM     10  C   UNL     1      -2.855  -0.855   9.463  0.00  0.00    +0.106 A 
ATOM     11  C   UNL     1      -3.990  -0.059   9.328  0.00  0.00    +0.029 A 
ATOM     12  C   UNL     1      -5.196  -0.470   9.809  0.00  0.00    +0.010 A 
ATOM     13  C   UNL     1      -5.300  -1.715  10.451  0.00  0.00    -0.018 A 
ATOM     14  C   UNL     1      -6.527  -2.174  10.960  0.00  0.00    +0.008 A 
ATOM     15  C   UNL     1      -6.590  -3.386  11.576  0.00  0.00    +0.001 A 
ATOM     16  C   UNL     1      -5.454  -4.182  11.711  0.00  0.00    +0.001 A 
ATOM     17  C   UNL     1      -4.249  -3.771  11.230  0.00  0.00    +0.008 A 
ATOM     18  C   UNL     1      -4.145  -2.525  10.588  0.00  0.00    -0.016 A 
ATOM     19  C   UNL     1      -2.919  -2.070  10.074  0.00  0.00    +0.037 A 
ENDBRANCH   7  10
ENDBRANCH   4   7
BRANCH   1  20
ATOM     20  C   UNL     1       0.780  -1.133   3.576  0.00  0.00    +0.180 C 
BRANCH  20  22
ATOM     21  N   UNL     1       0.711  -0.489   1.189  0.00  0.00    -0.307 N 
ATOM     22  C   UNL     1       0.051  -0.633   2.355  0.00  0.00    +0.228 C 
ATOM     23  O   UNL     1      -1.129  -0.361   2.423  0.00  0.00    -0.274 OA
ATOM     24  H   UNL     1       1.654  -0.707   1.135  0.00  0.00    +0.149 HD
BRANCH  21  26
ATOM     25  C   UNL     1      -0.019   1.526   0.010  0.00  0.00    +0.033 C 
ATOM     26  C   UNL     1       0.002  -0.004   0.002  0.00  0.00    +0.107 C 
BRANCH  26  27
ATOM     27  C   UNL     1       0.707  -0.490  -1.238  0.00  0.00    +0.010 A 
ATOM     28  C   UNL     1       0.176  -0.943  -2.400  0.00  0.00    +0.013 A 
ATOM     29  C   UNL     1       1.026  -1.340  -3.415  0.00  0.00    +0.008 A 
ATOM     30  C   UNL     1       2.365  -1.266  -3.219  0.00  0.00    +0.045 A 
ATOM     31  S   UNL     1       2.459  -0.612  -1.560  0.00  0.00    -0.100 S 
ENDBRANCH  26  27
ENDBRANCH  21  26
ENDBRANCH  20  22
ENDBRANCH   1  20
TORSDOF 6
