REMARK  Name = ZINC39659212
REMARK  6 active torsions:
REMARK  status: ('A' for Active; 'I' for Inactive)
REMARK    1  A    between atoms: C_1  and  C_2
REMARK    2  A    between atoms: C_2  and  C_32
REMARK    3  A    between atoms: C_5  and  C_8
REMARK    4  A    between atoms: C_8  and  N_9
REMARK    5  A    between atoms: C_10  and  C_12
REMARK    6  A    between atoms: C_23  and  C_25
REMARK                            x       y       z     vdW  Elec       q    Type
REMARK                         _______ _______ _______ _____ _____    ______ ____
ROOT
ATOM      1  C   UNL     1       3.732  -1.019   5.779  0.00  0.00    +0.100 C 
ATOM      2  C   UNL     1       2.244  -0.824   6.146  0.00  0.00    +0.121 C 
ATOM      3  N   UNL     1       1.874  -2.058   6.878  0.00  0.00    -0.296 N 
ATOM      4  C   UNL     1       3.060  -2.361   7.714  0.00  0.00    +0.115 C 
ATOM      5  C   UNL     1       4.265  -2.026   6.812  0.00  0.00    -0.004 C 
ATOM      6  C   UNL     1       5.383  -1.395   7.637  0.00  0.00    -0.010 C 
ATOM      7  C   UNL     1       5.936  -2.433   8.618  0.00  0.00    -0.082 C 
ATOM      8  N   UNL     1       6.445  -3.590   7.872  0.00  0.00    +0.379 N 
ATOM      9  C   UNL     1       5.345  -4.247   7.155  0.00  0.00    -0.082 C 
ATOM     10  C   UNL     1       4.767  -3.285   6.113  0.00  0.00    -0.010 C 
ATOM     11  C   UNL     1       0.719  -2.749   6.801  0.00  0.00    +0.247 C 
ATOM     12  O   UNL     1      -0.117  -2.446   5.973  0.00  0.00    -0.270 OA
ATOM     13  H   UNL     1       7.140  -3.282   7.209  0.00  0.00    -0.086 HD
ATOM     14  H   UNL     1       6.864  -4.245   8.515  0.00  0.00    -0.086 HD
ENDROOT
BRANCH  11  15
ATOM     15  C   UNL     1       0.469  -3.876   7.725  0.00  0.00    +0.037 A 
ATOM     16  C   UNL     1       1.177  -3.968   8.925  0.00  0.00    +0.014 A 
ATOM     17  C   UNL     1       0.939  -5.022   9.782  0.00  0.00    +0.016 A 
ATOM     18  C   UNL     1       0.002  -5.987   9.455  0.00  0.00    +0.018 A 
ATOM     19  C   UNL     1      -0.703  -5.901   8.266  0.00  0.00    +0.016 A 
ATOM     20  C   UNL     1      -0.478  -4.849   7.403  0.00  0.00    +0.014 A 
ATOM     21 BR   UNL     1      -0.317  -7.429  10.636  0.00  0.00    -0.050 Br
ENDBRANCH  11  15
BRANCH   1  23
ATOM     22  N   UNL     1       4.996  -1.393   3.686  0.00  0.00    -0.312 N 
ATOM     23  C   UNL     1       3.860  -1.580   4.386  0.00  0.00    +0.218 C 
ATOM     24  O   UNL     1       2.940  -2.200   3.896  0.00  0.00    -0.275 OA
ATOM     25  H   UNL     1       5.731  -0.897   4.078  0.00  0.00    +0.149 HD
BRANCH  22  26
ATOM     26  C   UNL     1       5.120  -1.938   2.332  0.00  0.00    +0.138 C 
BRANCH  26  31
ATOM     27  C   UNL     1       8.976   0.218   1.119  0.00  0.00    +0.074 C 
ATOM     28  C   UNL     1       7.600  -0.035   0.498  0.00  0.00    +0.165 C 
ATOM     29  O   UNL     1       7.630  -1.252  -0.259  0.00  0.00    -0.347 OA
ATOM     30  C   UNL     1       6.665  -2.147   0.330  0.00  0.00    +0.196 C 
ATOM     31  C   UNL     1       6.497  -1.586   1.764  0.00  0.00    +0.164 C 
ATOM     32  O   UNL     1       6.617  -0.161   1.539  0.00  0.00    -0.342 OA
ATOM     33  C   UNL     1       7.229   1.130  -0.422  0.00  0.00    +0.074 C 
ENDBRANCH  26  31
ENDBRANCH  22  26
ENDBRANCH   1  23
TORSDOF 4
