REMARK  Name = ZINC14535972
REMARK  7 active torsions:
REMARK  status: ('A' for Active; 'I' for Inactive)
REMARK    1  A    between atoms: C_1  and  C_2
REMARK    2  A    between atoms: C_2  and  N_3
REMARK    3  A    between atoms: C_6  and  C_8
REMARK    4  A    between atoms: C_16  and  N_67
REMARK    5  A    between atoms: C_20  and  C_21
REMARK    6  A    between atoms: C_20  and  N_67
REMARK    7  A    between atoms: C_21  and  C_27
REMARK                            x       y       z     vdW  Elec       q    Type
REMARK                         _______ _______ _______ _____ _____    ______ ____
ROOT
ATOM      1  N   UNL     1      -0.230   0.934   0.202  0.00  0.00    -0.268 N 
ATOM      2  C   UNL     1       0.852   1.728   0.142  0.00  0.00    +0.043 A 
ATOM      3  C   UNL     1       0.423   3.004   0.309  0.00  0.00    +0.004 A 
ATOM      4  C   UNL     1      -0.971   2.925   0.469  0.00  0.00    +0.151 A 
ATOM      5  N   UNL     1      -1.289   1.644   0.393  0.00  0.00    -0.166 NA
ATOM      6  C   UNL     1       1.318   4.212   0.314  0.00  0.00    +0.023 C 
ATOM      7  C   UNL     1       2.765   3.739   0.511  0.00  0.00    -0.067 C 
ATOM      8  C   UNL     1       3.071   2.607  -0.474  0.00  0.00    -0.009 C 
ATOM      9  C   UNL     1       2.294   1.348  -0.070  0.00  0.00    +0.054 C 
ENDROOT
BRANCH   4  10
ATOM     10  C   UNL     1      -1.900   4.054   0.675  0.00  0.00    +0.267 C 
ATOM     11  O   UNL     1      -1.473   5.191   0.726  0.00  0.00    -0.268 OA
ATOM     12  N   UNL     1      -3.221   3.824   0.808  0.00  0.00    -0.296 N 
ATOM     13  C   UNL     1      -3.870   2.505   0.761  0.00  0.00    +0.108 C 
ATOM     14  C   UNL     1      -5.386   2.734   0.934  0.00  0.00    +0.020 C 
ATOM     15  C   UNL     1      -5.565   4.211   0.494  0.00  0.00    +0.020 C 
ATOM     16  C   UNL     1      -4.256   4.853   1.018  0.00  0.00    +0.108 C 
ENDBRANCH   4  10
BRANCH   7  17
ATOM     17  N   UNL     1       3.682   4.868   0.264  0.00  0.00    +0.382 N 
ATOM     18  H   UNL     1       3.243   5.737   0.589  0.00  0.00    -0.085 HD
ATOM     19  H   UNL     1       3.872   4.936  -0.742  0.00  0.00    -0.085 HD
BRANCH  17  20
ATOM     20  C   UNL     1       4.951   4.664   0.987  0.00  0.00    -0.071 C 
BRANCH  20  21
ATOM     21  C   UNL     1       5.892   5.832   0.687  0.00  0.00    -0.015 C 
ATOM     22  C   UNL     1       7.181   5.675   1.500  0.00  0.00    +0.038 C 
ATOM     23  C   UNL     1       6.840   5.739   2.994  0.00  0.00    +0.160 C 
ATOM     24  O   UNL     1       6.184   6.976   3.279  0.00  0.00    -0.380 OA
ATOM     25  C   UNL     1       4.950   7.156   2.581  0.00  0.00    +0.160 C 
ATOM     26  C   UNL     1       5.213   7.150   1.073  0.00  0.00    +0.038 C 
BRANCH  21  27
ATOM     27  C   UNL     1       6.223   5.848  -0.784  0.00  0.00    -0.043 A 
ATOM     28  C   UNL     1       5.794   4.818  -1.599  0.00  0.00    +0.004 A 
ATOM     29  C   UNL     1       6.094   4.834  -2.949  0.00  0.00    +0.000 A 
ATOM     30  C   UNL     1       6.831   5.876  -3.480  0.00  0.00    +0.000 A 
ATOM     31  C   UNL     1       7.265   6.903  -2.663  0.00  0.00    +0.000 A 
ATOM     32  C   UNL     1       6.961   6.889  -1.315  0.00  0.00    +0.004 A 
ENDBRANCH  21  27
ENDBRANCH  20  21
ENDBRANCH  17  20
ENDBRANCH   7  17
BRANCH   1  34
ATOM     33  C   UNL     1      -0.376  -0.906  -1.402  0.00  0.00    +0.029 C 
ATOM     34  C   UNL     1      -0.210  -0.524   0.070  0.00  0.00    +0.140 C 
ENDBRANCH   1  34
TORSDOF 6
