REMARK  Name = ZINC37140009
REMARK  5 active torsions:
REMARK  status: ('A' for Active; 'I' for Inactive)
REMARK    1  A    between atoms: C_4  and  O_19
REMARK    2  A    between atoms: C_5  and  C_7
REMARK    3  A    between atoms: C_7  and  N_8
REMARK    4  A    between atoms: N_8  and  C_9
REMARK    5  A    between atoms: C_14  and  N_15
REMARK                            x       y       z     vdW  Elec       q    Type
REMARK                         _______ _______ _______ _____ _____    ______ ____
ROOT
ATOM      1  N   UNL     1       0.997  -2.721   1.507  0.00  0.00    -0.338 N 
ATOM      2  H   UNL     1       1.112  -2.109   2.250  0.00  0.00    +0.146 HD
ENDROOT
BRANCH   1   3
ATOM      3  C   UNL     1       1.308  -4.075   1.663  0.00  0.00    +0.058 A 
ATOM      4  C   UNL     1       1.030  -4.975   0.642  0.00  0.00    +0.026 A 
ATOM      5  C   UNL     1       1.338  -6.312   0.798  0.00  0.00    +0.017 A 
ATOM      6  C   UNL     1       1.923  -6.755   1.972  0.00  0.00    +0.020 A 
ATOM      7  C   UNL     1       2.200  -5.861   2.990  0.00  0.00    +0.050 A 
ATOM      8  C   UNL     1       1.900  -4.522   2.836  0.00  0.00    +0.148 A 
ATOM      9 BR   UNL     1       2.342  -8.587   2.183  0.00  0.00    -0.050 Br
BRANCH   8  10
ATOM     10  N   UNL     1       2.204  -3.565   3.924  0.00  0.00    +0.058 N 
ATOM     11  O   UNL     1       2.597  -2.453   3.659  0.00  0.00    -0.126 OA
ATOM     12  O   UNL     1       2.058  -3.896   5.078  0.00  0.00    -0.126 OA
ENDBRANCH   8  10
ENDBRANCH   1   3
BRANCH   1  13
ATOM     13  C   UNL     1       0.497  -2.228   0.221  0.00  0.00    +0.140 C 
BRANCH  13  18
ATOM     14  C   UNL     1      -1.281   1.081   0.598  0.00  0.00    +0.001 A 
ATOM     15  C   UNL     1      -0.232   1.976   0.493  0.00  0.00    +0.004 A 
ATOM     16  C   UNL     1       1.055   1.513   0.300  0.00  0.00    +0.046 A 
ATOM     17  C   UNL     1       1.295   0.149   0.211  0.00  0.00    +0.122 A 
ATOM     18  C   UNL     1       0.240  -0.746   0.317  0.00  0.00    +0.011 A 
ATOM     19  C   UNL     1      -1.045  -0.278   0.510  0.00  0.00    +0.009 A 
BRANCH  17  20
ATOM     20  O   UNL     1       2.560  -0.309   0.021  0.00  0.00    -0.506 OA
ATOM     21  H   UNL     1       3.045  -0.477   0.840  0.00  0.00    +0.292 HD
ENDBRANCH  17  20
ENDBRANCH  13  18
ENDBRANCH   1  13
TORSDOF 5
