REMARK  Name = ZINC39909817
REMARK  3 active torsions:
REMARK  status: ('A' for Active; 'I' for Inactive)
REMARK    1  A    between atoms: C_7  and  C_10
REMARK    2  A    between atoms: N_14  and  C_26
REMARK    3  A    between atoms: N_16  and  C_17
REMARK                            x       y       z     vdW  Elec       q    Type
REMARK                         _______ _______ _______ _____ _____    ______ ____
ROOT
ATOM      1  C   UNL     1       1.024  -3.304   1.175  0.00  0.00    +0.026 C 
ATOM      2  C   UNL     1       1.349  -4.510   0.580  0.00  0.00    +0.078 C 
ATOM      3  C   UNL     1       0.623  -5.803   0.616  0.00  0.00    +0.263 C 
ATOM      4  O   UNL     1      -0.420  -5.931   1.229  0.00  0.00    -0.269 OA
ATOM      5  N   UNL     1       1.164  -6.809  -0.051  0.00  0.00    -0.214 N 
ATOM      6  C   UNL     1       2.347  -6.640  -0.740  0.00  0.00    +0.173 C 
ATOM      7  N   UNL     1       3.012  -7.525  -1.446  0.00  0.00    -0.225 NA
ATOM      8  S   UNL     1       2.751  -4.926  -0.447  0.00  0.00    -0.048 S 
ENDROOT
BRANCH   1  15
ATOM      9  C   UNL     1       0.755   0.949   2.719  0.00  0.00    +0.001 A 
ATOM     10  C   UNL     1       1.815   1.760   2.307  0.00  0.00    +0.002 A 
ATOM     11  C   UNL     1       2.812   1.289   1.520  0.00  0.00    +0.026 A 
ATOM     12  C   UNL     1       2.794  -0.067   1.094  0.00  0.00    +0.043 A 
ATOM     13  N   UNL     1       3.627  -0.755   0.343  0.00  0.00    -0.380 N 
ATOM     14  C   UNL     1       3.139  -2.130   0.209  0.00  0.00    +0.149 C 
ATOM     15  C   UNL     1       1.854  -2.197   1.005  0.00  0.00    -0.018 C 
ATOM     16  C   UNL     1       1.674  -0.917   1.533  0.00  0.00    +0.003 A 
ATOM     17  C   UNL     1       0.671  -0.355   2.351  0.00  0.00    +0.010 A 
ATOM     18  H   UNL     1       4.438  -0.406  -0.061  0.00  0.00    +0.160 HD
ENDBRANCH   1  15
BRANCH   7  19
ATOM     19  C   UNL     1       4.179  -7.169  -2.063  0.00  0.00    +0.068 A 
ATOM     20  C   UNL     1       4.262  -5.963  -2.765  0.00  0.00    +0.031 A 
ATOM     21  C   UNL     1       5.441  -5.610  -3.387  0.00  0.00    +0.042 A 
ATOM     22  C   UNL     1       6.543  -6.447  -3.316  0.00  0.00    +0.142 A 
ATOM     23  C   UNL     1       6.468  -7.645  -2.621  0.00  0.00    +0.078 A 
ATOM     24  C   UNL     1       5.295  -8.007  -1.991  0.00  0.00    +0.050 A 
ATOM     25 CL   UNL     1       7.853  -8.687  -2.539  0.00  0.00    -0.081 Cl
ATOM     26  F   UNL     1       7.695  -6.095  -3.928  0.00  0.00    -0.204 F 
ENDBRANCH   7  19
BRANCH   5  27
ATOM     27  C   UNL     1       0.529  -8.058  -0.056  0.00  0.00    +0.045 A 
ATOM     28  C   UNL     1      -0.401  -8.361  -1.042  0.00  0.00    +0.027 A 
ATOM     29  C   UNL     1      -1.026  -9.592  -1.047  0.00  0.00    +0.041 A 
ATOM     30  C   UNL     1      -0.726 -10.525  -0.069  0.00  0.00    +0.142 A 
ATOM     31  C   UNL     1       0.201 -10.226   0.916  0.00  0.00    +0.078 A 
ATOM     32  C   UNL     1       0.833  -8.997   0.920  0.00  0.00    +0.046 A 
ATOM     33 CL   UNL     1       0.574 -11.398   2.141  0.00  0.00    -0.081 Cl
ATOM     34  F   UNL     1      -1.339 -11.729  -0.075  0.00  0.00    -0.204 F 
ENDBRANCH   5  27
TORSDOF 3
