REMARK  Name = ZINC03355853
REMARK  7 active torsions:
REMARK  status: ('A' for Active; 'I' for Inactive)
REMARK    1  A    between atoms: C_3  and  C_25
REMARK    2  A    between atoms: C_5  and  C_11
REMARK    3  A    between atoms: C_15  and  O_17
REMARK    4  A    between atoms: O_17  and  C_18
REMARK    5  A    between atoms: C_18  and  C_19
REMARK    6  A    between atoms: N_27  and  C_28
REMARK    7  A    between atoms: C_32  and  N_34
REMARK                            x       y       z     vdW  Elec       q    Type
REMARK                         _______ _______ _______ _____ _____    ______ ____
ROOT
ATOM      1  C   UNL     1      -0.037   1.324   0.015  0.00  0.00    +0.029 C 
ATOM      2  C   UNL     1      -0.010   0.005   0.007  0.00  0.00    +0.019 C 
ATOM      3  C   UNL     1      -1.287  -0.812   0.004  0.00  0.00    +0.143 C 
ATOM      4  C   UNL     1      -1.151  -1.887   1.090  0.00  0.00    +0.122 C 
ATOM      5  N   UNL     1       0.129  -2.577   0.936  0.00  0.00    -0.291 N 
ATOM      6  C   UNL     1       1.220  -1.968   0.451  0.00  0.00    +0.304 C 
ATOM      7  O   UNL     1       2.267  -2.585   0.417  0.00  0.00    -0.253 OA
ATOM      8  N   UNL     1       1.199  -0.701  -0.005  0.00  0.00    -0.273 N 
ATOM      9  H   UNL     1       0.190  -3.510   1.194  0.00  0.00    +0.151 HD
ATOM     10  H   UNL     1       2.009  -0.281  -0.334  0.00  0.00    +0.156 HD
ENDROOT
BRANCH   4  11
ATOM     11  C   UNL     1      -1.212  -1.238   2.449  0.00  0.00    -0.023 A 
ATOM     12  C   UNL     1      -0.091  -0.614   2.967  0.00  0.00    +0.006 A 
ATOM     13  C   UNL     1      -0.143  -0.018   4.214  0.00  0.00    +0.004 A 
ATOM     14  C   UNL     1      -1.315  -0.045   4.945  0.00  0.00    +0.045 A 
ATOM     15  C   UNL     1      -2.440  -0.670   4.428  0.00  0.00    +0.121 A 
ATOM     16  C   UNL     1      -2.387  -1.262   3.174  0.00  0.00    +0.051 A 
BRANCH  15  17
ATOM     17  O   UNL     1      -3.594  -0.697   5.145  0.00  0.00    -0.487 OA
BRANCH  17  18
ATOM     18  C   UNL     1      -3.577  -0.063   6.425  0.00  0.00    +0.264 C 
BRANCH  18  19
ATOM     19  C   UNL     1      -4.934  -0.193   7.069  0.00  0.00    -0.010 A 
ATOM     20  C   UNL     1      -5.897   0.774   6.853  0.00  0.00    +0.007 A 
ATOM     21  C   UNL     1      -7.141   0.655   7.443  0.00  0.00    +0.000 A 
ATOM     22  C   UNL     1      -7.423  -0.433   8.248  0.00  0.00    +0.000 A 
ATOM     23  C   UNL     1      -6.460  -1.401   8.464  0.00  0.00    +0.000 A 
ATOM     24  C   UNL     1      -5.217  -1.283   7.870  0.00  0.00    +0.007 A 
ENDBRANCH  18  19
ENDBRANCH  17  18
ENDBRANCH  15  17
ENDBRANCH   4  11
BRANCH   3  25
ATOM     25  C   UNL     1      -1.474  -1.463  -1.341  0.00  0.00    +0.228 C 
ATOM     26  O   UNL     1      -1.532  -2.672  -1.427  0.00  0.00    -0.275 OA
ATOM     27  N   UNL     1      -1.578  -0.703  -2.450  0.00  0.00    -0.285 N 
ATOM     28  H   UNL     1      -1.599   0.264  -2.374  0.00  0.00    +0.155 HD
BRANCH  27  29
ATOM     29  C   UNL     1      -1.655  -1.309  -3.709  0.00  0.00    +0.036 A 
ATOM     30  C   UNL     1      -1.055  -0.707  -4.808  0.00  0.00    +0.023 A 
ATOM     31  C   UNL     1      -1.133  -1.307  -6.049  0.00  0.00    +0.004 A 
ATOM     32  C   UNL     1      -1.806  -2.506  -6.199  0.00  0.00    +0.033 A 
ATOM     33  C   UNL     1      -2.404  -3.107  -5.106  0.00  0.00    +0.128 A 
ATOM     34  C   UNL     1      -2.325  -2.515  -3.861  0.00  0.00    +0.056 A 
BRANCH  33  35
ATOM     35  N   UNL     1      -3.125  -4.389  -5.271  0.00  0.00    +0.056 N 
ATOM     36  O   UNL     1      -3.190  -4.911  -6.360  0.00  0.00    -0.126 OA
ATOM     37  O   UNL     1      -3.648  -4.916  -4.316  0.00  0.00    -0.126 OA
ENDBRANCH  33  35
ENDBRANCH  27  29
ENDBRANCH   3  25
TORSDOF 7
