REMARK  Name = ZINC40102277
REMARK  18 active torsions:
REMARK  status: ('A' for Active; 'I' for Inactive)
REMARK    1  A    between atoms: C_1  and  C_2
REMARK    2  A    between atoms: C_2  and  C_3
REMARK    3  A    between atoms: C_3  and  C_4
REMARK    4  A    between atoms: C_4  and  C_5
REMARK    5  A    between atoms: C_5  and  O_6
REMARK    6  A    between atoms: O_6  and  C_7
REMARK    7  A    between atoms: C_10  and  C_16
REMARK    8  A    between atoms: C_12  and  O_13
REMARK    9  A    between atoms: O_13  and  C_14
REMARK   10  A    between atoms: C_14  and  C_15
REMARK   11  A    between atoms: C_18  and  C_27
REMARK   12  A    between atoms: N_22  and  C_23
REMARK   13  A    between atoms: C_23  and  C_24
REMARK   14  A    between atoms: C_24  and  O_25
REMARK   15  A    between atoms: C_27  and  C_29
REMARK   16  A    between atoms: C_33  and  O_35
REMARK   17  A    between atoms: O_35  and  C_36
REMARK   18  A    between atoms: C_36  and  C_37
REMARK                            x       y       z     vdW  Elec       q    Type
REMARK                         _______ _______ _______ _____ _____    ______ ____
ROOT
ATOM      1  C   UNL     1       4.180  -6.119  -7.162  0.00  0.00    +0.145 C 
ATOM      2  C   UNL     1       3.562  -6.087  -8.540  0.00  0.00    +0.076 C 
ATOM      3  C   UNL     1       4.361  -5.309  -9.308  0.00  0.00    +0.249 C 
ATOM      4  C   UNL     1       5.491  -4.819  -8.492  0.00  0.00    +0.288 C 
ATOM      5  O   UNL     1       6.381  -4.097  -8.895  0.00  0.00    -0.266 OA
ATOM      6  N   UNL     1       5.390  -5.291  -7.235  0.00  0.00    -0.281 N 
ATOM      7  O   UNL     1       4.157  -5.026 -10.615  0.00  0.00    -0.282 OA
ENDROOT
BRANCH   1  11
ATOM      8  C   UNL     1       1.457  -4.487  -4.296  0.00  0.00    +0.162 A 
ATOM      9  C   UNL     1       2.077  -3.658  -5.217  0.00  0.00    +0.050 A 
ATOM     10  C   UNL     1       2.957  -4.189  -6.142  0.00  0.00    +0.009 A 
ATOM     11  C   UNL     1       3.220  -5.546  -6.151  0.00  0.00    -0.019 A 
ATOM     12  C   UNL     1       2.604  -6.378  -5.235  0.00  0.00    +0.055 A 
ATOM     13  C   UNL     1       1.726  -5.852  -4.301  0.00  0.00    +0.162 A 
BRANCH  13  14
ATOM     14  O   UNL     1       1.124  -6.669  -3.396  0.00  0.00    -0.489 OA
BRANCH  14  15
ATOM     15  C   UNL     1       1.524  -8.041  -3.393  0.00  0.00    +0.226 C 
ATOM     16  C   UNL     1       0.739  -8.799  -2.321  0.00  0.00    +0.048 C 
ENDBRANCH  14  15
ENDBRANCH  13  14
BRANCH   8  17
ATOM     17  O   UNL     1       0.592  -3.967  -3.385  0.00  0.00    -0.488 OA
BRANCH  17  18
ATOM     18  C   UNL     1       0.364  -2.557  -3.438  0.00  0.00    +0.229 C 
BRANCH  18  19
ATOM     19  C   UNL     1      -0.631  -2.159  -2.346  0.00  0.00    +0.041 C 
BRANCH  19  20
ATOM     20  C   UNL     1      -0.875  -0.650  -2.403  0.00  0.00    +0.003 C 
BRANCH  20  22
ATOM     21  C   UNL     1      -2.114   1.257  -1.367  0.00  0.00    +0.004 C 
ATOM     22  C   UNL     1      -1.869  -0.253  -1.310  0.00  0.00    -0.003 C 
ENDBRANCH  20  22
ENDBRANCH  19  20
ENDBRANCH  18  19
ENDBRANCH  17  18
ENDBRANCH   8  17
ENDBRANCH   1  11
BRANCH   2  23
ATOM     23  C   UNL     1       2.336  -6.768  -8.964  0.00  0.00    +0.195 C 
ATOM     24  O   UNL     1       1.372  -6.118  -9.325  0.00  0.00    -0.287 OA
BRANCH  23  25
ATOM     25  C   UNL     1       2.269  -8.245  -8.954  0.00  0.00    +0.026 A 
ATOM     26  C   UNL     1       3.406  -8.997  -8.650  0.00  0.00    +0.012 A 
ATOM     27  C   UNL     1       3.340 -10.374  -8.641  0.00  0.00    +0.004 A 
ATOM     28  C   UNL     1       2.150 -11.016  -8.933  0.00  0.00    +0.046 A 
ATOM     29  C   UNL     1       1.014 -10.278  -9.238  0.00  0.00    +0.122 A 
ATOM     30  C   UNL     1       1.067  -8.894  -9.244  0.00  0.00    +0.057 A 
BRANCH  29  31
ATOM     31  O   UNL     1      -0.153 -10.914  -9.524  0.00  0.00    -0.488 OA
BRANCH  31  32
ATOM     32  C   UNL     1      -0.138 -12.342  -9.494  0.00  0.00    +0.256 C 
BRANCH  32  33
ATOM     33  C   UNL     1      -1.508 -12.867  -9.835  0.00  0.00    +0.006 C 
ATOM     34  C   UNL     1      -1.638 -13.861 -10.678  0.00  0.00    +0.007 C 
ENDBRANCH  32  33
ENDBRANCH  31  32
ENDBRANCH  29  31
ENDBRANCH  23  25
ENDBRANCH   2  23
BRANCH   6  35
ATOM     35  C   UNL     1       6.320  -5.026  -6.135  0.00  0.00    +0.137 C 
BRANCH  35  36
ATOM     36  C   UNL     1       7.416  -6.094  -6.125  0.00  0.00    +0.175 C 
BRANCH  36  37
ATOM     37  O   UNL     1       8.197  -5.986  -7.316  0.00  0.00    -0.393 OA
ATOM     38  H   UNL     1       8.913  -6.634  -7.377  0.00  0.00    +0.209 HD
ENDBRANCH  36  37
ENDBRANCH  35  36
ENDBRANCH   6  35
TORSDOF 16
