REMARK  Name = ZINC13197503
REMARK  11 active torsions:
REMARK  status: ('A' for Active; 'I' for Inactive)
REMARK    1  A    between atoms: C_1  and  C_2
REMARK    2  A    between atoms: C_5  and  C_8
REMARK    3  A    between atoms: C_11  and  S_17
REMARK    4  A    between atoms: N_12  and  C_13
REMARK    5  A    between atoms: C_13  and  C_14
REMARK    6  A    between atoms: C_14  and  C_15
REMARK    7  A    between atoms: S_17  and  C_18
REMARK    8  A    between atoms: C_18  and  C_19
REMARK    9  A    between atoms: N_24  and  C_25
REMARK   10  A    between atoms: C_25  and  C_26
REMARK   11  A    between atoms: C_26  and  C_27
REMARK                            x       y       z     vdW  Elec       q    Type
REMARK                         _______ _______ _______ _____ _____    ______ ____
ROOT
ATOM      1  C   UNL     1       0.003  -0.004  -0.001  0.00  0.00    +0.165 A 
ATOM      2  N   UNL     1       1.054  -0.771   0.170  0.00  0.00    -0.128 NA
ATOM      3  N   UNL     1       0.710  -2.007   0.107  0.00  0.00    -0.122 NA
ATOM      4  C   UNL     1      -0.583  -2.106  -0.108  0.00  0.00    +0.192 A 
ATOM      5  N   UNL     1      -1.079  -0.836  -0.179  0.00  0.00    -0.302 N 
ENDROOT
BRANCH   1  10
ATOM      6  C   UNL     1      -0.074   5.750   0.017  0.00  0.00    +0.044 C 
ATOM      7  C   UNL     1      -0.053   4.243   0.012  0.00  0.00    -0.050 A 
ATOM      8  C   UNL     1       1.008   3.567   0.586  0.00  0.00    +0.004 A 
ATOM      9  C   UNL     1       1.032   2.187   0.586  0.00  0.00    +0.012 A 
ATOM     10  C   UNL     1      -0.017   1.474   0.003  0.00  0.00    +0.019 A 
ATOM     11  C   UNL     1      -1.082   2.163  -0.580  0.00  0.00    +0.012 A 
ATOM     12  C   UNL     1      -1.096   3.542  -0.567  0.00  0.00    +0.004 A 
ENDBRANCH   1  10
BRANCH   5  13
ATOM     13  C   UNL     1      -2.472  -0.441  -0.401  0.00  0.00    +0.137 C 
BRANCH  13  14
ATOM     14  C   UNL     1      -2.762  -0.413  -1.903  0.00  0.00    +0.147 C 
BRANCH  14  15
ATOM     15  C   UNL     1      -4.195  -0.007  -2.131  0.00  0.00    +0.358 C 
ATOM     16  O   UNL     1      -4.911   0.236  -1.189  0.00  0.00    -0.246 OA
ATOM     17  O   UNL     1      -4.676   0.086  -3.381  0.00  0.00    -0.246 OA
ENDBRANCH  14  15
ENDBRANCH  13  14
ENDBRANCH   5  13
BRANCH   4  18
ATOM     18  S   UNL     1      -1.505  -3.599  -0.267  0.00  0.00    -0.077 S 
BRANCH  18  19
ATOM     19  C   UNL     1      -0.179  -4.812  -0.054  0.00  0.00    +0.173 C 
BRANCH  19  20
ATOM     20  C   UNL     1      -0.750  -6.203  -0.155  0.00  0.00    +0.231 C 
ATOM     21  O   UNL     1      -1.936  -6.359  -0.352  0.00  0.00    -0.274 OA
ATOM     22  N   UNL     1       0.058  -7.274  -0.026  0.00  0.00    -0.240 N 
ATOM     23  C   UNL     1      -0.453  -8.518  -0.117  0.00  0.00    +0.306 C 
ATOM     24  O   UNL     1      -1.641  -8.674  -0.314  0.00  0.00    -0.252 OA
ATOM     25  N   UNL     1       0.356  -9.589   0.012  0.00  0.00    -0.299 N 
ATOM     26  H   UNL     1       1.007  -7.149   0.131  0.00  0.00    +0.159 HD
ATOM     27  H   UNL     1       1.305  -9.464   0.170  0.00  0.00    +0.150 HD
BRANCH  25  28
ATOM     28  C   UNL     1      -0.199 -10.941  -0.086  0.00  0.00    +0.111 C 
BRANCH  28  29
ATOM     29  C   UNL     1       0.922 -11.967   0.094  0.00  0.00    +0.061 C 
BRANCH  29  30
ATOM     30  C   UNL     1       0.351 -13.358  -0.007  0.00  0.00    -0.009 A 
ATOM     31  C   UNL     1       0.194 -14.139  -1.103  0.00  0.00    +0.011 A 
ATOM     32  C   UNL     1      -0.356 -15.398  -0.957  0.00  0.00    +0.008 A 
ATOM     33  C   UNL     1      -0.732 -15.811   0.278  0.00  0.00    +0.045 A 
ATOM     34  S   UNL     1      -0.302 -14.402   1.286  0.00  0.00    -0.102 S 
ENDBRANCH  29  30
ENDBRANCH  28  29
ENDBRANCH  25  28
ENDBRANCH  19  20
ENDBRANCH  18  19
ENDBRANCH   4  18
TORSDOF 10
