REMARK  Name = ZINC21277255
REMARK  10 active torsions:
REMARK  status: ('A' for Active; 'I' for Inactive)
REMARK    1  A    between atoms: C_1  and  C_2
REMARK    2  A    between atoms: C_2  and  C_3
REMARK    3  A    between atoms: C_3  and  C_4
REMARK    4  A    between atoms: C_4  and  C_6
REMARK    5  A    between atoms: C_4  and  N_12
REMARK    6  A    between atoms: C_13  and  C_15
REMARK    7  A    between atoms: C_15  and  S_16
REMARK    8  A    between atoms: S_16  and  C_17
REMARK    9  A    between atoms: N_30  and  C_31
REMARK   10  A    between atoms: C_36  and  C_37
REMARK                            x       y       z     vdW  Elec       q    Type
REMARK                         _______ _______ _______ _____ _____    ______ ____
ROOT
ATOM      1  C   UNL     1       2.048   0.583  -0.015  0.00  0.00    +0.198 A 
ATOM      2  N   UNL     1       1.214  -0.430  -0.012  0.00  0.00    -0.120 NA
ATOM      3  N   UNL     1       0.002  -0.004   0.002  0.00  0.00    -0.109 NA
ATOM      4  C   UNL     1      -0.016   1.308   0.009  0.00  0.00    +0.245 A 
ATOM      5  N   UNL     1       1.290   1.723  -0.001  0.00  0.00    -0.255 N 
ATOM      6  C   UNL     1       1.609   3.075   0.003  0.00  0.00    +0.064 A 
ATOM      7  C   UNL     1       2.928   3.504  -0.007  0.00  0.00    +0.027 A 
ATOM      8  C   UNL     1       3.212   4.855  -0.002  0.00  0.00    +0.002 A 
ATOM      9  C   UNL     1       2.189   5.791   0.012  0.00  0.00    +0.001 A 
ATOM     10  C   UNL     1       0.872   5.383   0.021  0.00  0.00    +0.015 A 
ATOM     11  C   UNL     1       0.572   4.022   0.017  0.00  0.00    +0.064 A 
ATOM     12  C   UNL     1      -0.823   3.546   0.028  0.00  0.00    +0.268 A 
ATOM     13  O   UNL     1      -1.746   4.339   0.040  0.00  0.00    -0.267 OA
ATOM     14  N   UNL     1      -1.061   2.218   0.019  0.00  0.00    -0.245 N 
ENDROOT
BRANCH  14  15
ATOM     15  C   UNL     1      -2.381   1.754   0.023  0.00  0.00    +0.056 A 
ATOM     16  C   UNL     1      -3.032   1.516   1.226  0.00  0.00    +0.026 A 
ATOM     17  C   UNL     1      -4.335   1.057   1.226  0.00  0.00    +0.002 A 
ATOM     18  C   UNL     1      -4.991   0.835   0.030  0.00  0.00    +0.000 A 
ATOM     19  C   UNL     1      -4.346   1.070  -1.170  0.00  0.00    +0.005 A 
ATOM     20  C   UNL     1      -3.045   1.534  -1.177  0.00  0.00    -0.026 A 
ATOM     21  C   UNL     1      -2.345   1.798  -2.486  0.00  0.00    +0.046 C 
ENDBRANCH  14  15
BRANCH   1  22
ATOM     22  S   UNL     1       3.808   0.493  -0.031  0.00  0.00    -0.076 S 
BRANCH  22  23
ATOM     23  C   UNL     1       4.156  -1.287  -0.045  0.00  0.00    +0.173 C 
BRANCH  23  25
ATOM     24  N   UNL     1       6.143  -2.760  -0.071  0.00  0.00    -0.308 N 
ATOM     25  C   UNL     1       5.647  -1.507  -0.060  0.00  0.00    +0.224 C 
ATOM     26  O   UNL     1       6.400  -0.556  -0.061  0.00  0.00    -0.275 OA
ATOM     27  H   UNL     1       5.460  -3.622  -0.070  0.00  0.00    +0.149 HD
BRANCH  24  28
ATOM     28  C   UNL     1       7.592  -2.974  -0.086  0.00  0.00    +0.103 C 
BRANCH  28  29
ATOM     29  C   UNL     1       7.907  -4.324   0.504  0.00  0.00    -0.027 A 
ATOM     30  C   UNL     1       7.099  -5.409   0.217  0.00  0.00    +0.005 A 
ATOM     31  C   UNL     1       7.390  -6.649   0.755  0.00  0.00    +0.000 A 
ATOM     32  C   UNL     1       8.483  -6.802   1.587  0.00  0.00    +0.000 A 
ATOM     33  C   UNL     1       9.288  -5.716   1.878  0.00  0.00    +0.000 A 
ATOM     34  C   UNL     1       9.000  -4.477   1.336  0.00  0.00    +0.005 A 
ENDBRANCH  28  29
BRANCH  28  35
ATOM     35  C   UNL     1       8.102  -2.916  -1.528  0.00  0.00    +0.027 C 
BRANCH  35  37
ATOM     36  C   UNL     1       8.404  -1.448  -3.527  0.00  0.00    +0.004 C 
ATOM     37  C   UNL     1       7.895  -1.506  -2.085  0.00  0.00    -0.001 C 
ENDBRANCH  35  37
ENDBRANCH  28  35
ENDBRANCH  24  28
ENDBRANCH  23  25
ENDBRANCH  22  23
ENDBRANCH   1  22
TORSDOF 8
