REMARK  Name = ZINC39951539
REMARK  11 active torsions:
REMARK  status: ('A' for Active; 'I' for Inactive)
REMARK    1  A    between atoms: C_1  and  C_2
REMARK    2  A    between atoms: C_2  and  C_3
REMARK    3  A    between atoms: C_3  and  C_4
REMARK    4  A    between atoms: C_4  and  N_5
REMARK    5  A    between atoms: C_7  and  C_39
REMARK    6  A    between atoms: C_12  and  C_15
REMARK    7  A    between atoms: C_16  and  C_18
REMARK    8  A    between atoms: C_24  and  C_25
REMARK    9  A    between atoms: C_24  and  C_32
REMARK   10  A    between atoms: C_25  and  C_26
REMARK   11  A    between atoms: C_32  and  C_33
REMARK                            x       y       z     vdW  Elec       q    Type
REMARK                         _______ _______ _______ _____ _____    ______ ____
ROOT
ATOM      1  C   UNL     1       0.975  -3.032   8.893  0.00  0.00    +0.130 C 
ATOM      2  C   UNL     1       0.900  -2.011  10.057  0.00  0.00    +0.137 C 
ATOM      3  C   UNL     1       1.505  -2.806  11.211  0.00  0.00    +0.309 C 
ATOM      4  O   UNL     1       1.161  -2.804  12.369  0.00  0.00    -0.251 OA
ATOM      5  O   UNL     1       2.514  -3.514  10.649  0.00  0.00    -0.457 OA
ATOM      6  C   UNL     1       2.051  -4.026   9.383  0.00  0.00    +0.133 C 
ENDROOT
BRANCH   1  18
ATOM      7  N   UNL     1      -0.606  -3.652   3.544  0.00  0.00    +0.380 N 
ATOM      8  C   UNL     1      -0.113  -5.027   3.597  0.00  0.00    -0.072 C 
ATOM      9  C   UNL     1       1.140  -5.185   4.435  0.00  0.00    -0.045 C 
ATOM     10  C   UNL     1       0.851  -5.274   5.921  0.00  0.00    +0.024 C 
ATOM     11  C   UNL     1       0.195  -4.029   6.476  0.00  0.00    +0.108 C 
ATOM     12  N   UNL     1       0.978  -2.828   6.419  0.00  0.00    -0.301 N 
ATOM     13  C   UNL     1       1.368  -2.050   5.278  0.00  0.00    +0.112 C 
ATOM     14  C   UNL     1       1.634  -2.755   3.984  0.00  0.00    -0.031 C 
ATOM     15  C   UNL     1       2.204  -4.145   4.139  0.00  0.00    +0.011 C 
ATOM     16  C   UNL     1       0.434  -2.746   3.046  0.00  0.00    -0.071 C 
ATOM     17  C   UNL     1       2.720  -1.939   3.275  0.00  0.00    +0.011 C 
ATOM     18  C   UNL     1       1.411  -2.358   7.618  0.00  0.00    +0.223 C 
ATOM     19  O   UNL     1       2.147  -1.395   7.661  0.00  0.00    -0.275 OA
ATOM     20  C   UNL     1       1.751  -6.541   4.043  0.00  0.00    +0.009 C 
ATOM     21  H   UNL     1      -0.912  -3.343   4.452  0.00  0.00    -0.082 HD
BRANCH   7  22
ATOM     22  C   UNL     1      -1.764  -3.594   2.629  0.00  0.00    -0.079 C 
BRANCH  22  23
ATOM     23  C   UNL     1      -2.378  -2.193   2.674  0.00  0.00    -0.019 C 
BRANCH  23  25
ATOM     24  C   UNL     1      -4.192  -0.732   1.770  0.00  0.00    +0.004 C 
ATOM     25  C   UNL     1      -3.578  -2.132   1.726  0.00  0.00    -0.005 C 
ENDBRANCH  23  25
ENDBRANCH  22  23
ENDBRANCH   7  22
ENDBRANCH   1  18
BRANCH   6  26
ATOM     26  C   UNL     1       1.439  -5.417   9.565  0.00  0.00    +0.084 C 
BRANCH  26  27
ATOM     27  C   UNL     1       2.477  -6.353  10.128  0.00  0.00    -0.044 A 
ATOM     28  C   UNL     1       3.205  -7.168   9.281  0.00  0.00    +0.004 A 
ATOM     29  C   UNL     1       4.157  -8.026   9.797  0.00  0.00    +0.000 A 
ATOM     30  C   UNL     1       4.382  -8.070  11.160  0.00  0.00    +0.000 A 
ATOM     31  C   UNL     1       3.655  -7.255  12.007  0.00  0.00    +0.000 A 
ATOM     32  C   UNL     1       2.706  -6.393  11.490  0.00  0.00    +0.004 A 
ENDBRANCH  26  27
ENDBRANCH   6  26
BRANCH   6  33
ATOM     33  C   UNL     1       3.207  -4.086   8.382  0.00  0.00    +0.084 C 
BRANCH  33  34
ATOM     34  C   UNL     1       4.242  -3.054   8.748  0.00  0.00    -0.044 A 
ATOM     35  C   UNL     1       4.397  -1.924   7.968  0.00  0.00    +0.004 A 
ATOM     36  C   UNL     1       5.347  -0.977   8.303  0.00  0.00    +0.000 A 
ATOM     37  C   UNL     1       6.141  -1.160   9.420  0.00  0.00    +0.000 A 
ATOM     38  C   UNL     1       5.985  -2.289  10.201  0.00  0.00    +0.000 A 
ATOM     39  C   UNL     1       5.032  -3.234   9.868  0.00  0.00    +0.004 A 
ENDBRANCH  33  34
ENDBRANCH   6  33
TORSDOF 8
