REMARK  Name = ZINC39970759
REMARK  12 active torsions:
REMARK  status: ('A' for Active; 'I' for Inactive)
REMARK    1  A    between atoms: C_1  and  C_2
REMARK    2  A    between atoms: C_7  and  C_35
REMARK    3  A    between atoms: N_9  and  S_10
REMARK    4  A    between atoms: S_10  and  C_13
REMARK    5  A    between atoms: C_16  and  N_19
REMARK    6  A    between atoms: N_19  and  C_20
REMARK    7  A    between atoms: C_20  and  N_22
REMARK    8  A    between atoms: N_22  and  C_23
REMARK    9  A    between atoms: C_23  and  C_24
REMARK   10  A    between atoms: C_24  and  C_25
REMARK   11  A    between atoms: C_28  and  S_31
REMARK   12  A    between atoms: S_31  and  N_34
REMARK                            x       y       z     vdW  Elec       q    Type
REMARK                         _______ _______ _______ _____ _____    ______ ____
ROOT
ATOM      1  N   UNL     1      -2.639   1.343   6.727  0.00  0.00    -0.297 N 
ATOM      2  H   UNL     1      -2.332   1.534   7.627  0.00  0.00    +0.154 HD
ENDROOT
BRANCH   1   6
ATOM      3  C   UNL     1       0.121   0.820   3.651  0.00  0.00    +0.106 A 
ATOM      4  C   UNL     1      -1.039   1.537   3.422  0.00  0.00    +0.030 A 
ATOM      5  C   UNL     1      -1.956   1.712   4.440  0.00  0.00    +0.025 A 
ATOM      6  C   UNL     1      -1.712   1.167   5.694  0.00  0.00    +0.033 A 
ATOM      7  C   UNL     1      -0.546   0.447   5.920  0.00  0.00    +0.025 A 
ATOM      8  C   UNL     1       0.364   0.271   4.896  0.00  0.00    +0.030 A 
BRANCH   3   9
ATOM      9  S   UNL     1       1.289   0.599   2.350  0.00  0.00    +0.061 S 
ATOM     10  O   UNL     1       2.501   0.175   2.959  0.00  0.00    -0.153 OA
ATOM     11  O   UNL     1       1.212   1.759   1.533  0.00  0.00    -0.153 OA
BRANCH   9  18
ATOM     12  C   UNL     1       1.901  -2.067   3.079  0.00  0.00    +0.026 C 
ATOM     13  C   UNL     1       0.998  -2.054   1.843  0.00  0.00    +0.077 C 
ATOM     14  C   UNL     1       1.685  -2.806   0.699  0.00  0.00    +0.020 C 
ATOM     15  C   UNL     1       0.843  -2.671  -0.572  0.00  0.00    +0.003 C 
ATOM     16  C   UNL     1       0.734  -1.195  -0.960  0.00  0.00    +0.020 C 
ATOM     17  C   UNL     1       0.037  -0.425   0.166  0.00  0.00    +0.077 C 
ATOM     18  N   UNL     1       0.757  -0.667   1.424  0.00  0.00    -0.171 NA
ATOM     19  C   UNL     1      -1.408  -0.909   0.300  0.00  0.00    +0.026 C 
ENDBRANCH   9  18
ENDBRANCH   3   9
ENDBRANCH   1   6
BRANCH   1  20
ATOM     20  C   UNL     1      -3.959   1.248   6.471  0.00  0.00    +0.135 C 
ATOM     21  S   UNL     1      -4.498   0.776   4.917  0.00  0.00    -0.019 S 
BRANCH  20  22
ATOM     22  N   UNL     1      -4.854   1.524   7.440  0.00  0.00    -0.326 N 
ATOM     23  H   UNL     1      -4.549   1.792   8.321  0.00  0.00    +0.148 HD
BRANCH  22  24
ATOM     24  C   UNL     1      -6.289   1.420   7.162  0.00  0.00    +0.108 C 
BRANCH  24  25
ATOM     25  C   UNL     1      -7.080   1.784   8.421  0.00  0.00    +0.054 C 
BRANCH  25  26
ATOM     26  C   UNL     1      -8.555   1.677   8.135  0.00  0.00    -0.046 A 
ATOM     27  C   UNL     1      -9.248   2.774   7.657  0.00  0.00    +0.005 A 
ATOM     28  C   UNL     1     -10.602   2.676   7.395  0.00  0.00    +0.029 A 
ATOM     29  C   UNL     1     -11.263   1.481   7.611  0.00  0.00    +0.105 A 
ATOM     30  C   UNL     1     -10.570   0.384   8.089  0.00  0.00    +0.029 A 
ATOM     31  C   UNL     1      -9.216   0.481   8.347  0.00  0.00    +0.005 A 
BRANCH  29  32
ATOM     32  S   UNL     1     -12.989   1.356   7.279  0.00  0.00    +0.056 S 
ATOM     33  O   UNL     1     -13.481   0.291   8.080  0.00  0.00    -0.153 OA
ATOM     34  O   UNL     1     -13.514   2.675   7.358  0.00  0.00    -0.153 OA
BRANCH  32  35
ATOM     35  N   UNL     1     -13.150   0.877   5.702  0.00  0.00    -0.204 NA
ATOM     36  H   UNL     1     -12.361   0.723   5.159  0.00  0.00    +0.144 HD
ATOM     37  H   UNL     1     -14.033   0.749   5.322  0.00  0.00    +0.144 HD
ENDBRANCH  32  35
ENDBRANCH  29  32
ENDBRANCH  25  26
ENDBRANCH  24  25
ENDBRANCH  22  24
ENDBRANCH  20  22
ENDBRANCH   1  20
TORSDOF 10
