REMARK  Name = ZINC35361843
REMARK  13 active torsions:
REMARK  status: ('A' for Active; 'I' for Inactive)
REMARK    1  A    between atoms: CD1_1  and  CG_2
REMARK    2  A    between atoms: CG_2  and  CD2_3
REMARK    3  A    between atoms: CG_2  and  CB_4
REMARK    4  A    between atoms: CB_4  and  CA_5
REMARK    5  A    between atoms: CA_5  and  C_7
REMARK    6  A    between atoms: CA_5  and  N_10
REMARK    7  A    between atoms: C_11  and  C_13
REMARK    8  A    between atoms: C_13  and  C_14
REMARK    9  A    between atoms: C_14  and  C_15
REMARK   10  A    between atoms: C_15  and  O_17
REMARK   11  A    between atoms: O_17  and  C_18
REMARK   12  A    between atoms: C_24  and  C_41
REMARK   13  A    between atoms: C_39  and  C_40
REMARK                            x       y       z     vdW  Elec       q    Type
REMARK                         _______ _______ _______ _____ _____    ______ ____
ROOT
ATOM      1  C   UNK A   0      -2.679   6.856  -5.974  0.00  0.00    +0.183 C 
ATOM      2  C   UNK A   0      -4.174   7.262  -6.023  0.00  0.00    +0.045 C 
ATOM      3  C   UNK A   0      -4.450   7.738  -7.479  0.00  0.00    +0.008 C 
ATOM      4  C   UNK A   0      -3.292   7.089  -8.257  0.00  0.00    +0.002 C 
ATOM      5  C   UNK A   0      -2.102   7.367  -7.312  0.00  0.00    +0.008 C 
ATOM      6  C   UNK A   0      -0.879   6.633  -7.795  0.00  0.00    +0.011 C 
ATOM      7  C   UNK A   0      -0.679   6.799  -9.302  0.00  0.00    +0.005 C 
ATOM      8  C   UNK A   0      -1.580   7.849  -9.930  0.00  0.00    +0.002 C 
ATOM      9  C   UNK A   0      -3.056   7.591  -9.650  0.00  0.00    -0.003 C 
ATOM     10  C   UNK A   0      -3.911   8.808  -9.987  0.00  0.00    +0.008 C 
ATOM     11  C   UNK A   0      -3.375   9.503 -11.241  0.00  0.00    +0.032 C 
ATOM     12  C   UNK A   0      -2.606   8.496 -12.065  0.00  0.00    -0.060 C 
ATOM     13  C   UNK A   0      -3.012   8.168 -13.285  0.00  0.00    +0.046 C 
ATOM     14  C   UNK A   0      -2.283   7.189 -14.088  0.00  0.00    +0.156 C 
ATOM     15  O   UNK A   0      -2.645   6.947 -15.221  0.00  0.00    -0.293 OA
ATOM     16  C   UNK A   0      -1.085   6.477 -13.514  0.00  0.00    +0.080 C 
ATOM     17  C   UNK A   0      -1.178   6.463 -11.986  0.00  0.00    +0.019 C 
ATOM     18  C   UNK A   0      -1.370   7.878 -11.455  0.00  0.00    -0.007 C 
ATOM     19  C   UNK A   0      -0.150   8.741 -11.776  0.00  0.00    +0.016 C 
ATOM     20  C   UNK A   0      -1.821   8.860  -7.136  0.00  0.00    +0.015 C 
ENDROOT
BRANCH   1  21
ATOM     21  O   UNK A   0      -2.550   5.439  -5.891  0.00  0.00    -0.461 OA
BRANCH  21  22
ATOM     22  C   UNK A   0      -2.432   4.910  -4.663  0.00  0.00    +0.308 C 
ATOM     23  O   UNK A   0      -2.438   5.629  -3.692  0.00  0.00    -0.251 OA
BRANCH  22  24
ATOM     24  C   UNK A   0      -2.292   3.419  -4.496  0.00  0.00    +0.130 C 
BRANCH  24  25
ATOM     25  C   UNK A   0      -2.175   3.081  -3.008  0.00  0.00    +0.107 C 
BRANCH  25  27
ATOM     26  N   LEU A   1      -1.916   1.058  -1.608  0.00  0.00    -0.302 N 
ATOM     27  C   UNK A   0      -2.035   1.590  -2.841  0.00  0.00    +0.214 C 
ATOM     28  O   UNK A   0      -2.029   0.868  -3.816  0.00  0.00    -0.276 OA
ATOM     29  H   LEU A   1      -1.921   1.635  -0.829  0.00  0.00    +0.150 HD
BRANCH  26  30
ATOM     30  CA  LEU A   1      -1.780  -0.392  -1.446  0.00  0.00    +0.186 C 
BRANCH  30  31
ATOM     31  C   LEU A   1      -3.146  -1.026  -1.431  0.00  0.00    +0.376 C 
ATOM     32  O   LEU A   1      -4.143  -0.327  -1.361  0.00  0.00    -0.244 OA
ATOM     33  OXT LEU A   1      -3.256  -2.239  -1.488  0.00  0.00    -0.244 OA
ENDBRANCH  30  31
BRANCH  30  34
ATOM     34  CB  LEU A   1      -1.063  -0.692  -0.128  0.00  0.00    +0.037 C 
BRANCH  34  36
ATOM     35  CD1 LEU A   1       1.030  -0.310   1.182  0.00  0.00    +0.007 C 
ATOM     36  CG  LEU A   1       0.360  -0.134  -0.182  0.00  0.00    -0.015 C 
ATOM     37  CD2 LEU A   1       1.163  -0.886  -1.246  0.00  0.00    +0.007 C 
ENDBRANCH  34  36
ENDBRANCH  30  34
ENDBRANCH  26  30
ENDBRANCH  25  27
ENDBRANCH  24  25
ENDBRANCH  22  24
ENDBRANCH  21  22
ENDBRANCH   1  21
TORSDOF 9
