REMARK  Name = ZINC12551693
REMARK  5 active torsions:
REMARK  status: ('A' for Active; 'I' for Inactive)
REMARK    1  A    between atoms: C_1  and  C_2
REMARK    2  A    between atoms: C_7  and  C_8
REMARK    3  A    between atoms: C_7  and  N_59
REMARK    4  A    between atoms: C_22  and  C_25
REMARK    5  A    between atoms: C_29  and  C_31
REMARK                            x       y       z     vdW  Elec       q    Type
REMARK                         _______ _______ _______ _____ _____    ______ ____
ROOT
ATOM      1  C   UNL     1       1.504   1.762   0.009  0.00  0.00    +0.116 A 
ATOM      2  N   UNL     1       2.094   1.998  -1.148  0.00  0.00    -0.213 NA
ATOM      3  C   UNL     1       3.228   2.673  -1.236  0.00  0.00    +0.188 A 
ATOM      4  C   UNL     1       3.832   3.160  -0.047  0.00  0.00    +0.057 A 
ATOM      5  C   UNL     1       5.080   3.926   0.097  0.00  0.00    -0.024 A 
ATOM      6  C   UNL     1       5.438   4.274   1.344  0.00  0.00    -0.004 A 
ATOM      7  S   UNL     1       4.164   3.613   2.394  0.00  0.00    -0.073 S 
ATOM      8  C   UNL     1       3.146   2.870   1.149  0.00  0.00    +0.114 A 
ATOM      9  N   UNL     1       2.016   2.194   1.146  0.00  0.00    -0.227 NA
ATOM     10  C   UNL     1       6.725   5.056   1.369  0.00  0.00    +0.043 C 
ATOM     11  C   UNL     1       6.918   5.531  -0.088  0.00  0.00    +0.010 C 
ATOM     12  C   UNL     1       6.140   4.457  -0.873  0.00  0.00    +0.037 C 
ATOM     13  N   UNL     1       3.822   2.903  -2.478  0.00  0.00    -0.110 N 
ATOM     14  N   UNL     1       3.268   2.605  -3.734  0.00  0.00    -0.124 NA
ATOM     15  C   UNL     1       4.165   2.987  -4.624  0.00  0.00    +0.205 A 
ATOM     16  N   UNL     1       5.207   3.489  -3.951  0.00  0.00    -0.107 NA
ATOM     17  N   UNL     1       4.978   3.433  -2.687  0.00  0.00    -0.039 NA
ENDROOT
BRANCH  15  18
ATOM     18  C   UNL     1       4.041   2.879  -6.099  0.00  0.00    +0.023 A 
ATOM     19  C   UNL     1       2.892   2.331  -6.666  0.00  0.00    +0.012 A 
ATOM     20  C   UNL     1       2.781   2.234  -8.038  0.00  0.00    +0.001 A 
ATOM     21  C   UNL     1       3.808   2.680  -8.850  0.00  0.00    +0.012 A 
ATOM     22  C   UNL     1       4.950   3.225  -8.293  0.00  0.00    +0.055 A 
ATOM     23  C   UNL     1       5.070   3.331  -6.922  0.00  0.00    +0.024 A 
BRANCH  22  24
ATOM     24  C   UNL     1       6.065   3.709  -9.185  0.00  0.00    +0.417 C 
ATOM     25  F   UNL     1       5.714   3.503 -10.523  0.00  0.00    -0.166 F 
ATOM     26  F   UNL     1       6.280   5.073  -8.964  0.00  0.00    -0.166 F 
ATOM     27  F   UNL     1       7.235   2.999  -8.895  0.00  0.00    -0.166 F 
ENDBRANCH  22  24
ENDBRANCH  15  18
BRANCH   1  28
ATOM     28  C   UNL     1       0.213   0.985   0.032  0.00  0.00    -0.001 C 
BRANCH  28  35
ATOM     29  C   UNL     1       1.021  -4.500   1.423  0.00  0.00    +0.007 C 
ATOM     30  C   UNL     1       0.653  -3.015   1.476  0.00  0.00    -0.018 C 
ATOM     31  C   UNL     1      -0.400  -2.711   0.406  0.00  0.00    -0.016 C 
ATOM     32  C   UNL     1      -0.719  -1.215   0.423  0.00  0.00    -0.078 C 
ATOM     33  C   UNL     1       1.515  -0.688   1.200  0.00  0.00    -0.078 C 
ATOM     34  C   UNL     1       1.901  -2.169   1.207  0.00  0.00    -0.016 C 
ATOM     35  N   UNL     1       0.517  -0.457   0.134  0.00  0.00    +0.384 N 
ATOM     36  H   UNL     1       0.904  -0.780  -0.760  0.00  0.00    -0.081 HD
ENDBRANCH  28  35
ENDBRANCH   1  28
TORSDOF 4
