REMARK  Name = ZINC08400382
REMARK  8 active torsions:
REMARK  status: ('A' for Active; 'I' for Inactive)
REMARK    1  A    between atoms: C_1  and  C_2
REMARK    2  A    between atoms: C_5  and  S_8
REMARK    3  A    between atoms: S_8  and  N_11
REMARK    4  A    between atoms: N_11  and  C_12
REMARK    5  A    between atoms: N_11  and  C_25
REMARK    6  A    between atoms: C_12  and  C_13
REMARK    7  A    between atoms: N_15  and  N_16
REMARK    8  A    between atoms: C_17  and  C_18
REMARK                            x       y       z     vdW  Elec       q    Type
REMARK                         _______ _______ _______ _____ _____    ______ ____
ROOT
ATOM      1  N   UNL     1       1.651  -4.999  -0.034  0.00  0.00    -0.192 N 
ENDROOT
BRANCH   1   2
ATOM      2  C   UNL     1       2.313  -5.190  -1.246  0.00  0.00    +0.078 A 
ATOM      3  C   UNL     1       2.388  -6.447  -1.806  0.00  0.00    +0.027 A 
ATOM      4  C   UNL     1       3.045  -6.652  -3.016  0.00  0.00    +0.003 A 
ATOM      5  C   UNL     1       3.631  -5.616  -3.678  0.00  0.00    +0.010 A 
ATOM      6  C   UNL     1       3.576  -4.320  -3.141  0.00  0.00    +0.002 A 
ATOM      7  C   UNL     1       2.906  -4.096  -1.913  0.00  0.00    +0.093 A 
ATOM      8  N   UNL     1       2.848  -2.864  -1.402  0.00  0.00    -0.253 NA
ATOM      9  C   UNL     1       3.397  -1.844  -2.016  0.00  0.00    +0.111 A 
ATOM     10  C   UNL     1       4.066  -1.993  -3.229  0.00  0.00    +0.020 A 
ATOM     11  C   UNL     1       4.172  -3.228  -3.801  0.00  0.00    +0.011 A 
ENDBRANCH   1   2
BRANCH   1  12
ATOM     12  S   UNL     1       0.063  -4.530  -0.023  0.00  0.00    +0.075 S 
ATOM     13  O   UNL     1      -0.476  -4.950   1.223  0.00  0.00    -0.150 OA
ATOM     14  O   UNL     1      -0.490  -4.937  -1.267  0.00  0.00    -0.150 OA
BRANCH  12  19
ATOM     15  C   UNL     1      -0.018   1.503   0.010  0.00  0.00    +0.044 C 
ATOM     16  C   UNL     1       0.002  -0.004   0.002  0.00  0.00    -0.050 A 
ATOM     17  C   UNL     1       0.006  -0.689  -1.199  0.00  0.00    +0.005 A 
ATOM     18  C   UNL     1       0.025  -2.071  -1.206  0.00  0.00    +0.029 A 
ATOM     19  C   UNL     1       0.040  -2.768  -0.013  0.00  0.00    +0.109 A 
ATOM     20  C   UNL     1       0.037  -2.084   1.188  0.00  0.00    +0.029 A 
ATOM     21  C   UNL     1       0.023  -0.702   1.195  0.00  0.00    +0.005 A 
ENDBRANCH  12  19
ENDBRANCH   1  12
BRANCH   1  22
ATOM     22  C   UNL     1       2.360  -5.214   1.229  0.00  0.00    +0.229 C 
BRANCH  22  23
ATOM     23  C   UNL     1       2.305  -6.675   1.595  0.00  0.00    +0.251 C 
ATOM     24  O   UNL     1       1.730  -7.460   0.871  0.00  0.00    -0.272 OA
ATOM     25  N   UNL     1       2.895  -7.109   2.726  0.00  0.00    -0.206 N 
ATOM     26  H   UNL     1       3.355  -6.481   3.305  0.00  0.00    +0.177 HD
BRANCH  25  27
ATOM     27  N   UNL     1       2.844  -8.467   3.066  0.00  0.00    -0.188 NA
ATOM     28  C   UNL     1       3.412  -8.886   4.155  0.00  0.00    +0.138 C 
BRANCH  28  29
ATOM     29  C   UNL     1       3.358 -10.315   4.513  0.00  0.00    -0.004 A 
ATOM     30  C   UNL     1       2.701 -11.223   3.678  0.00  0.00    +0.009 A 
ATOM     31  C   UNL     1       2.654 -12.559   4.019  0.00  0.00    +0.002 A 
ATOM     32  C   UNL     1       3.255 -13.002   5.183  0.00  0.00    +0.020 A 
ATOM     33  C   UNL     1       3.908 -12.108   6.015  0.00  0.00    +0.042 A 
ATOM     34  C   UNL     1       3.968 -10.769   5.684  0.00  0.00    +0.029 A 
ATOM     35 CL   UNL     1       4.659 -12.674   7.475  0.00  0.00    -0.084 Cl
ENDBRANCH  28  29
ENDBRANCH  25  27
ENDBRANCH  22  23
ENDBRANCH   1  22
TORSDOF 7
