REMARK  Name = ZINC21918983
REMARK  8 active torsions:
REMARK  status: ('A' for Active; 'I' for Inactive)
REMARK    1  A    between atoms: C_1  and  C_2
REMARK    2  A    between atoms: C_2  and  C_3
REMARK    3  A    between atoms: N_16  and  C_19
REMARK    4  A    between atoms: N_24  and  C_25
REMARK    5  A    between atoms: C_30  and  C_31
REMARK    6  A    between atoms: C_31  and  O_33
REMARK    7  A    between atoms: O_33  and  C_34
REMARK    8  A    between atoms: C_34  and  C_35
REMARK                            x       y       z     vdW  Elec       q    Type
REMARK                         _______ _______ _______ _____ _____    ______ ____
ROOT
ATOM      1  C   UNL     1      -2.175  -4.260   0.034  0.00  0.00    +0.125 C 
ATOM      2  C   UNL     1      -3.335  -4.796   0.818  0.00  0.00    +0.045 A 
ATOM      3  C   UNL     1      -3.351  -5.375   2.028  0.00  0.00    +0.025 A 
ATOM      4  C   UNL     1      -4.684  -5.753   2.298  0.00  0.00    +0.020 A 
ATOM      5  C   UNL     1      -5.438  -5.372   1.242  0.00  0.00    +0.092 A 
ATOM      6  N   UNL     1      -4.628  -4.760   0.348  0.00  0.00    -0.312 N 
ATOM      7  C   UNL     1      -4.902  -4.113  -0.851  0.00  0.00    +0.090 A 
ATOM      8  C   UNL     1      -4.393  -2.899  -1.195  0.00  0.00    +0.004 A 
ATOM      9  C   UNL     1      -4.747  -2.402  -2.464  0.00  0.00    -0.034 A 
ATOM     10  C   UNL     1      -5.588  -3.151  -3.227  0.00  0.00    -0.021 A 
ATOM     11  S   UNL     1      -5.907  -4.581  -2.227  0.00  0.00    -0.077 S 
ATOM     12  C   UNL     1      -6.105  -2.817  -4.587  0.00  0.00    -0.036 C 
ATOM     13  N   UNL     1      -5.839  -1.387  -4.840  0.00  0.00    +0.381 N 
ATOM     14  C   UNL     1      -4.444  -1.055  -4.519  0.00  0.00    -0.074 C 
ATOM     15  C   UNL     1      -4.231  -1.070  -3.003  0.00  0.00    +0.018 C 
ATOM     16  C   UNL     1      -6.159  -1.030  -6.229  0.00  0.00    -0.096 C 
ATOM     17  C   UNL     1      -3.512  -2.142  -0.222  0.00  0.00    +0.148 C 
ATOM     18  N   UNL     1      -2.196  -2.779  -0.039  0.00  0.00    -0.272 N 
ATOM     19  C   UNL     1      -1.066  -2.051   0.062  0.00  0.00    +0.307 C 
ATOM     20  O   UNL     1       0.004  -2.607   0.217  0.00  0.00    -0.252 OA
ATOM     21  N   UNL     1      -1.123  -0.706  -0.009  0.00  0.00    -0.269 N 
ATOM     22  H   UNL     1      -2.097  -0.199  -0.060  0.00  0.00    +0.156 HD
ATOM     23  H   UNL     1      -6.490  -0.791  -4.185  0.00  0.00    -0.082 HD
ENDROOT
BRANCH  21  24
ATOM     24  C   UNL     1       0.053   0.040  -0.017  0.00  0.00    +0.049 A 
ATOM     25  C   UNL     1       1.187  -0.450  -0.651  0.00  0.00    +0.024 A 
ATOM     26  C   UNL     1       2.350   0.292  -0.658  0.00  0.00    +0.002 A 
ATOM     27  C   UNL     1       2.398   1.529  -0.035  0.00  0.00    +0.001 A 
ATOM     28  C   UNL     1       1.283   2.032   0.600  0.00  0.00    +0.017 A 
ATOM     29  C   UNL     1       0.097   1.292   0.615  0.00  0.00    +0.080 A 
BRANCH  29  30
ATOM     30  C   UNL     1      -1.101   1.827   1.286  0.00  0.00    +0.341 C 
ATOM     31  O   UNL     1      -2.155   1.226   1.218  0.00  0.00    -0.245 OA
BRANCH  30  32
ATOM     32  O   UNL     1      -1.028   2.982   1.977  0.00  0.00    -0.461 OA
BRANCH  32  33
ATOM     33  C   UNL     1      -2.247   3.449   2.612  0.00  0.00    +0.229 C 
ATOM     34  C   UNL     1      -1.970   4.764   3.342  0.00  0.00    +0.048 C 
ENDBRANCH  32  33
ENDBRANCH  30  32
ENDBRANCH  29  30
ENDBRANCH  21  24
BRANCH   1  36
ATOM     35  C   UNL     1      -0.955  -4.438  -2.139  0.00  0.00    +0.006 C 
ATOM     36  C   UNL     1      -2.228  -4.830  -1.385  0.00  0.00    +0.025 C 
ENDBRANCH   1  36
TORSDOF 5
