REMARK  Name = ZINC06832122
REMARK  2 active torsions:
REMARK  status: ('A' for Active; 'I' for Inactive)
REMARK    1  A    between atoms: C_4  and  N_7
REMARK    2  A    between atoms: C_10  and  C_13
REMARK                            x       y       z     vdW  Elec       q    Type
REMARK                         _______ _______ _______ _____ _____    ______ ____
ROOT
ATOM      1  N   UNL     1      -2.427   1.042   0.020  0.00  0.00    -0.294 N 
ATOM      2  C   UNL     1      -3.632   1.717   0.134  0.00  0.00    +0.163 A 
ATOM      3  N   UNL     1      -4.856   1.230   0.239  0.00  0.00    -0.225 NA
ATOM      4  C   UNL     1      -5.907   2.030   0.344  0.00  0.00    +0.080 A 
ATOM      5  C   UNL     1      -5.723   3.384   0.332  0.00  0.00    +0.076 A 
ATOM      6  S   UNL     1      -3.945   3.476   0.169  0.00  0.00    -0.060 S 
ATOM      7  H   UNL     1      -2.418   0.077  -0.078  0.00  0.00    +0.154 HD
ENDROOT
BRANCH   4   8
ATOM      8  C   UNL     1      -7.271   1.461   0.467  0.00  0.00    +0.003 A 
ATOM      9  C   UNL     1      -8.382   2.304   0.466  0.00  0.00    +0.014 A 
ATOM     10  C   UNL     1      -9.652   1.777   0.579  0.00  0.00    +0.048 A 
ATOM     11  C   UNL     1      -9.827   0.408   0.694  0.00  0.00    +0.142 A 
ATOM     12  C   UNL     1      -8.720  -0.441   0.697  0.00  0.00    +0.076 A 
ATOM     13  C   UNL     1      -7.445   0.083   0.578  0.00  0.00    +0.037 A 
ATOM     14  N   UNL     1      -8.916  -1.824   0.816  0.00  0.00    -0.280 N 
ATOM     15  C   UNL     1     -10.151  -2.331   0.607  0.00  0.00    +0.255 C 
ATOM     16  O   UNL     1     -10.350  -3.520   0.733  0.00  0.00    -0.272 OA
ATOM     17  C   UNL     1     -11.280  -1.411   0.217  0.00  0.00    +0.325 C 
ATOM     18  O   UNL     1     -11.075  -0.123   0.804  0.00  0.00    -0.481 OA
ATOM     19  H   UNL     1      -8.176  -2.409   1.044  0.00  0.00    +0.155 HD
ENDBRANCH   4   8
BRANCH   1  23
ATOM     20  C   UNL     1       1.158   3.161   0.092  0.00  0.00    +0.000 A 
ATOM     21  C   UNL     1       1.048   2.017  -0.677  0.00  0.00    +0.002 A 
ATOM     22  C   UNL     1      -0.138   1.310  -0.700  0.00  0.00    +0.023 A 
ATOM     23  C   UNL     1      -1.223   1.752   0.045  0.00  0.00    +0.033 A 
ATOM     24  C   UNL     1      -1.109   2.900   0.820  0.00  0.00    +0.023 A 
ATOM     25  C   UNL     1       0.081   3.602   0.840  0.00  0.00    +0.002 A 
ENDBRANCH   1  23
TORSDOF 2
