REMARK  Name = ZINC60042941
REMARK  7 active torsions:
REMARK  status: ('A' for Active; 'I' for Inactive)
REMARK    1  A    between atoms: C_4  and  C_7
REMARK    2  A    between atoms: C_8  and  C_29
REMARK    3  A    between atoms: N_10  and  C_14
REMARK    4  A    between atoms: C_14  and  C_15
REMARK    5  A    between atoms: C_15  and  C_17
REMARK    6  A    between atoms: C_15  and  O_28
REMARK    7  A    between atoms: C_17  and  N_18
REMARK                            x       y       z     vdW  Elec       q    Type
REMARK                         _______ _______ _______ _____ _____    ______ ____
ROOT
ATOM      1  C   UNL     1       3.715  -0.685   0.161  0.00  0.00    +0.104 A 
ATOM      2  C   UNL     1       3.748  -2.149   0.057  0.00  0.00    +0.117 A 
ATOM      3  N   UNL     1       4.907  -2.741  -0.141  0.00  0.00    -0.165 NA
ATOM      4  N   UNL     1       5.987  -2.051  -0.242  0.00  0.00    -0.210 N 
ATOM      5  C   UNL     1       5.991  -0.711  -0.151  0.00  0.00    +0.365 A 
ATOM      6  O   UNL     1       7.046  -0.109  -0.254  0.00  0.00    -0.243 OA
ATOM      7  N   UNL     1       4.861  -0.025   0.043  0.00  0.00    -0.190 NA
ENDROOT
BRANCH   1  11
ATOM      8  C   UNL     1       0.056   1.379   0.798  0.00  0.00    +0.000 A 
ATOM      9  C   UNL     1       0.993   1.893  -0.080  0.00  0.00    +0.001 A 
ATOM     10  C   UNL     1       2.183   1.228  -0.292  0.00  0.00    +0.010 A 
ATOM     11  C   UNL     1       2.441   0.034   0.383  0.00  0.00    +0.003 A 
ATOM     12  C   UNL     1       1.492  -0.479   1.269  0.00  0.00    +0.010 A 
ATOM     13  C   UNL     1       0.306   0.195   1.471  0.00  0.00    +0.001 A 
ENDBRANCH   1  11
BRANCH   2  14
ATOM     14  C   UNL     1       2.502  -2.944   0.173  0.00  0.00    +0.004 A 
ATOM     15  C   UNL     1       1.348  -2.537  -0.494  0.00  0.00    +0.010 A 
ATOM     16  C   UNL     1       0.191  -3.281  -0.382  0.00  0.00    +0.001 A 
ATOM     17  C   UNL     1       0.175  -4.428   0.391  0.00  0.00    +0.000 A 
ATOM     18  C   UNL     1       1.318  -4.836   1.056  0.00  0.00    +0.001 A 
ATOM     19  C   UNL     1       2.482  -4.104   0.946  0.00  0.00    +0.010 A 
ENDBRANCH   2  14
BRANCH   4  20
ATOM     20  C   UNL     1       7.255  -2.750  -0.462  0.00  0.00    +0.178 C 
BRANCH  20  21
ATOM     21  C   UNL     1       7.564  -2.786  -1.960  0.00  0.00    +0.120 C 
BRANCH  21  22
ATOM     22  O   UNL     1       6.516  -3.474  -2.646  0.00  0.00    -0.392 OA
ATOM     23  H   UNL     1       6.391  -4.389  -2.358  0.00  0.00    +0.210 HD
ENDBRANCH  21  22
BRANCH  21  24
ATOM     24  C   UNL     1       8.889  -3.516  -2.191  0.00  0.00    -0.045 C 
BRANCH  24  25
ATOM     25  N   UNL     1       9.245  -3.447  -3.614  0.00  0.00    +0.384 N 
ATOM     26  C   UNL     1      10.460  -4.239  -3.856  0.00  0.00    -0.074 C 
ATOM     27  C   UNL     1      10.639  -4.410  -5.365  0.00  0.00    +0.017 C 
ATOM     28  C   UNL     1      10.550  -3.067  -6.044  0.00  0.00    -0.048 A 
ATOM     29  C   UNL     1      11.020  -2.946  -7.343  0.00  0.00    +0.004 A 
ATOM     30  C   UNL     1      10.952  -1.733  -7.998  0.00  0.00    +0.000 A 
ATOM     31  C   UNL     1      10.412  -0.633  -7.356  0.00  0.00    +0.000 A 
ATOM     32  C   UNL     1       9.945  -0.753  -6.062  0.00  0.00    +0.002 A 
ATOM     33  C   UNL     1      10.014  -1.971  -5.402  0.00  0.00    -0.061 A 
ATOM     34  C   UNL     1       9.501  -2.054  -3.989  0.00  0.00    -0.043 C 
ATOM     35  H   UNL     1       8.486  -3.813  -4.170  0.00  0.00    -0.081 HD
ENDBRANCH  24  25
ENDBRANCH  21  24
ENDBRANCH  20  21
ENDBRANCH   4  20
TORSDOF 7
