REMARK  Name = ZINC40316941
REMARK  12 active torsions:
REMARK  status: ('A' for Active; 'I' for Inactive)
REMARK    1  A    between atoms: C_1  and  C_2
REMARK    2  A    between atoms: C_2  and  C_3
REMARK    3  A    between atoms: C_2  and  C_4
REMARK    4  A    between atoms: C_7  and  C_10
REMARK    5  A    between atoms: C_10  and  N_11
REMARK    6  A    between atoms: N_11  and  C_12
REMARK    7  A    between atoms: N_11  and  C_25
REMARK    8  A    between atoms: C_12  and  C_13
REMARK    9  A    between atoms: C_13  and  C_15
REMARK   10  A    between atoms: C_13  and  O_24
REMARK   11  A    between atoms: C_15  and  O_16
REMARK   12  A    between atoms: O_16  and  C_17
REMARK                            x       y       z     vdW  Elec       q    Type
REMARK                         _______ _______ _______ _____ _____    ______ ____
ROOT
ATOM      1  N   UNL     1      -6.143  -1.219  -0.787  0.00  0.00    +0.387 N 
ATOM      2  H   UNL     1      -5.721  -1.061  -1.690  0.00  0.00    -0.081 HD
ENDROOT
BRANCH   1   3
ATOM      3  C   UNL     1      -5.710  -0.170   0.146  0.00  0.00    -0.045 C 
ATOM      4  C   UNL     1      -4.224   0.150  -0.085  0.00  0.00    +0.009 C 
ATOM      5  C   UNL     1      -3.680   1.006   1.084  0.00  0.00    +0.164 C 
ATOM      6  S   UNL     1      -4.748   0.493   2.491  0.00  0.00    -0.033 S 
ATOM      7  O   UNL     1      -5.496   1.616   2.937  0.00  0.00    -0.174 OA
ATOM      8  O   UNL     1      -3.965  -0.240   3.423  0.00  0.00    -0.174 OA
ATOM      9  C   UNL     1      -5.876  -0.667   1.610  0.00  0.00    +0.151 C 
ENDBRANCH   1   3
BRANCH   1  10
ATOM     10  C   UNL     1      -5.725  -2.531  -0.275  0.00  0.00    -0.042 C 
BRANCH  10  14
ATOM     11  C   UNL     1      -1.469  -2.846  -0.460  0.00  0.00    -0.045 A 
ATOM     12  C   UNL     1      -2.085  -2.497   0.727  0.00  0.00    +0.004 A 
ATOM     13  C   UNL     1      -3.463  -2.395   0.787  0.00  0.00    +0.002 A 
ATOM     14  C   UNL     1      -4.224  -2.642  -0.341  0.00  0.00    -0.064 A 
ATOM     15  C   UNL     1      -3.607  -2.990  -1.528  0.00  0.00    +0.002 A 
ATOM     16  C   UNL     1      -2.230  -3.088  -1.589  0.00  0.00    +0.004 A 
BRANCH  11  18
ATOM     17  C   UNL     1       0.660  -1.611  -0.159  0.00  0.00    +0.012 C 
ATOM     18  C   UNL     1       0.032  -2.958  -0.525  0.00  0.00    +0.013 C 
ATOM     19  C   UNL     1       0.508  -4.027   0.461  0.00  0.00    +0.012 C 
ENDBRANCH  11  18
ENDBRANCH  10  14
ENDBRANCH   1  10
BRANCH   1  20
ATOM     20  C   UNL     1      -7.605  -1.187  -0.916  0.00  0.00    -0.043 C 
BRANCH  20  21
ATOM     21  C   UNL     1      -8.013  -0.011  -1.807  0.00  0.00    +0.135 C 
BRANCH  21  22
ATOM     22  O   UNL     1      -7.726   1.217  -1.136  0.00  0.00    -0.390 OA
ATOM     23  H   UNL     1      -8.153   1.302  -0.272  0.00  0.00    +0.210 HD
ENDBRANCH  21  22
BRANCH  21  24
ATOM     24  C   UNL     1      -9.511  -0.092  -2.105  0.00  0.00    +0.258 C 
BRANCH  24  25
ATOM     25  O   UNL     1      -9.869   0.936  -3.030  0.00  0.00    -0.488 OA
BRANCH  25  26
ATOM     26  C   UNL     1     -11.175   1.004  -3.402  0.00  0.00    +0.135 A 
ATOM     27  C   UNL     1     -12.093   0.103  -2.883  0.00  0.00    +0.047 A 
ATOM     28  C   UNL     1     -13.419   0.174  -3.263  0.00  0.00    +0.004 A 
ATOM     29  C   UNL     1     -13.832   1.143  -4.160  0.00  0.00    +0.001 A 
ATOM     30  C   UNL     1     -12.920   2.042  -4.678  0.00  0.00    +0.019 A 
ATOM     31  C   UNL     1     -11.593   1.979  -4.297  0.00  0.00    +0.059 A 
ATOM     32 BR   UNL     1     -10.346   3.215  -5.000  0.00  0.00    -0.047 Br
ENDBRANCH  25  26
ENDBRANCH  24  25
ENDBRANCH  21  24
ENDBRANCH  20  21
ENDBRANCH   1  20
TORSDOF 10
