REMARK  Name = ZINC59153292
REMARK  9 active torsions:
REMARK  status: ('A' for Active; 'I' for Inactive)
REMARK    1  A    between atoms: C_1  and  C_2
REMARK    2  A    between atoms: C_4  and  C_23
REMARK    3  A    between atoms: C_5  and  O_9
REMARK    4  A    between atoms: C_6  and  C_8
REMARK    5  A    between atoms: O_9  and  C_10
REMARK    6  A    between atoms: C_10  and  C_11
REMARK    7  A    between atoms: N_13  and  N_14
REMARK    8  A    between atoms: C_15  and  C_16
REMARK    9  A    between atoms: C_20  and  O_22
REMARK                            x       y       z     vdW  Elec       q    Type
REMARK                         _______ _______ _______ _____ _____    ______ ____
ROOT
ATOM      1  C   UNL     1       1.160  -6.258  -0.038  0.00  0.00    +0.270 C 
ATOM      2  O   UNL     1       0.045  -6.736  -0.035  0.00  0.00    -0.270 OA
ATOM      3  N   UNL     1       2.239  -7.065  -0.048  0.00  0.00    -0.204 N 
ATOM      4  H   UNL     1       3.131  -6.683  -0.051  0.00  0.00    +0.177 HD
ENDROOT
BRANCH   3   5
ATOM      5  N   UNL     1       2.074  -8.456  -0.055  0.00  0.00    -0.188 NA
ATOM      6  C   UNL     1       3.113  -9.233  -0.064  0.00  0.00    +0.138 C 
BRANCH   6   7
ATOM      7  C   UNL     1       2.938 -10.698  -0.071  0.00  0.00    -0.002 A 
ATOM      8  C   UNL     1       1.655 -11.251  -0.073  0.00  0.00    +0.010 A 
ATOM      9  C   UNL     1       1.497 -12.621  -0.080  0.00  0.00    +0.004 A 
ATOM     10  C   UNL     1       2.604 -13.450  -0.084  0.00  0.00    +0.045 A 
ATOM     11  C   UNL     1       3.882 -12.910  -0.082  0.00  0.00    +0.117 A 
ATOM     12  C   UNL     1       4.054 -11.536  -0.082  0.00  0.00    +0.054 A 
BRANCH  11  13
ATOM     13  O   UNL     1       4.966 -13.730  -0.086  0.00  0.00    -0.507 OA
ATOM     14  H   UNL     1       5.280 -13.963  -0.970  0.00  0.00    +0.292 HD
ENDBRANCH  11  13
ENDBRANCH   6   7
ENDBRANCH   3   5
BRANCH   1  15
ATOM     15  C   UNL     1       1.338  -4.761  -0.031  0.00  0.00    +0.326 C 
BRANCH  15  16
ATOM     16  O   UNL     1       0.057  -4.129  -0.021  0.00  0.00    -0.482 OA
BRANCH  16  21
ATOM     17  C   UNL     1      -0.018   1.503   0.010  0.00  0.00    +0.044 C 
ATOM     18  C   UNL     1       0.002  -0.004   0.002  0.00  0.00    -0.050 A 
ATOM     19  C   UNL     1       0.006  -0.688  -1.200  0.00  0.00    +0.010 A 
ATOM     20  C   UNL     1       0.024  -2.069  -1.210  0.00  0.00    -0.008 A 
ATOM     21  C   UNL     1       0.039  -2.770  -0.013  0.00  0.00    +0.127 A 
ATOM     22  C   UNL     1       0.036  -2.082   1.191  0.00  0.00    -0.008 A 
ATOM     23  C   UNL     1       0.023  -0.701   1.196  0.00  0.00    +0.010 A 
ATOM     24  C   UNL     1       0.052  -2.841   2.493  0.00  0.00    +0.047 C 
ATOM     25  C   UNL     1       0.027  -2.813  -2.520  0.00  0.00    +0.047 C 
ENDBRANCH  16  21
ENDBRANCH  15  16
ENDBRANCH   1  15
TORSDOF 6
