REMARK  Name = ZINC43746309
REMARK  6 active torsions:
REMARK  status: ('A' for Active; 'I' for Inactive)
REMARK    1  A    between atoms: C_1  and  C_2
REMARK    2  A    between atoms: C_7  and  C_37
REMARK    3  A    between atoms: C_20  and  C_22
REMARK    4  A    between atoms: C_22  and  N_23
REMARK    5  A    between atoms: C_26  and  C_29
REMARK    6  A    between atoms: C_26  and  O_36
REMARK                            x       y       z     vdW  Elec       q    Type
REMARK                         _______ _______ _______ _____ _____    ______ ____
ROOT
ATOM      1  C   UNL     1      -0.019   1.526   0.010  0.00  0.00    +0.010 C 
ATOM      2  C   UNL     1       0.002  -0.004   0.002  0.00  0.00    +0.021 C 
ATOM      3  C   UNL     1       0.710  -0.493  -1.258  0.00  0.00    +0.006 C 
ATOM      4  C   UNL     1       0.807  -2.019  -1.226  0.00  0.00    +0.001 C 
ATOM      5  C   UNL     1       1.688  -2.449  -0.059  0.00  0.00    +0.010 C 
ATOM      6  C   UNL     1       1.118  -1.974   1.267  0.00  0.00    +0.003 C 
ATOM      7  C   UNL     1       0.738  -0.509   1.250  0.00  0.00    +0.104 C 
ATOM      8  C   UNL     1       1.595   0.504   1.994  0.00  0.00    +0.159 C 
ATOM      9  O   UNL     1       0.323   0.079   2.493  0.00  0.00    -0.363 OA
ATOM     10  C   UNL     1       2.812   0.085   2.809  0.00  0.00    +0.073 C 
ATOM     11  C   UNL     1       3.220  -1.366   2.491  0.00  0.00    +0.183 C 
ATOM     12  C   UNL     1       2.074  -2.299   2.401  0.00  0.00    +0.054 C 
ATOM     13  O   UNL     1       3.881  -1.264   1.222  0.00  0.00    -0.461 OA
ATOM     14  C   UNL     1       4.646  -0.150   1.248  0.00  0.00    +0.309 C 
ATOM     15  O   UNL     1       5.649   0.026   0.599  0.00  0.00    -0.251 OA
ATOM     16  C   UNL     1       4.036   0.858   2.234  0.00  0.00    +0.090 C 
ATOM     17  C   UNL     1      -0.167  -2.766   1.518  0.00  0.00    +0.014 C 
ENDROOT
BRANCH  16  18
ATOM     18  C   UNL     1       5.027   1.198   3.348  0.00  0.00    -0.064 C 
BRANCH  18  19
ATOM     19  N   UNL     1       6.110   2.028   2.803  0.00  0.00    +0.380 N 
ATOM     20  C   UNL     1       5.562   3.313   2.354  0.00  0.00    -0.076 C 
ATOM     21  C   UNL     1       6.671   4.149   1.711  0.00  0.00    +0.021 C 
ATOM     22  C   UNL     1       7.777   4.396   2.741  0.00  0.00    +0.088 C 
ATOM     23  C   UNL     1       8.291   3.049   3.257  0.00  0.00    +0.021 C 
ATOM     24  C   UNL     1       7.122   2.254   3.842  0.00  0.00    -0.076 C 
ATOM     25  H   UNL     1       6.534   1.554   2.020  0.00  0.00    -0.082 HD
BRANCH  22  26
ATOM     26  C   UNL     1       8.908   5.152   2.092  0.00  0.00    -0.016 A 
ATOM     27  C   UNL     1       9.163   4.992   0.743  0.00  0.00    +0.008 A 
ATOM     28  C   UNL     1      10.200   5.685   0.148  0.00  0.00    +0.020 A 
ATOM     29  C   UNL     1      10.984   6.539   0.903  0.00  0.00    +0.041 A 
ATOM     30  C   UNL     1      10.729   6.699   2.253  0.00  0.00    +0.020 A 
ATOM     31  C   UNL     1       9.688   6.010   2.846  0.00  0.00    +0.008 A 
ATOM     32 CL   UNL     1      12.287   7.409   0.157  0.00  0.00    -0.084 Cl
ENDBRANCH  22  26
BRANCH  22  33
ATOM     33  O   UNL     1       7.254   5.158   3.831  0.00  0.00    -0.384 OA
ATOM     34  H   UNL     1       7.902   5.352   4.522  0.00  0.00    +0.211 HD
ENDBRANCH  22  33
ENDBRANCH  18  19
ENDBRANCH  16  18
TORSDOF 4
