REMARK  Name = ZINC14550887
REMARK  6 active torsions:
REMARK  status: ('A' for Active; 'I' for Inactive)
REMARK    1  A    between atoms: C_1  and  N_2
REMARK    2  A    between atoms: N_2  and  C_3
REMARK    3  A    between atoms: C_3  and  C_4
REMARK    4  A    between atoms: C_10  and  C_12
REMARK    5  A    between atoms: C_19  and  C_28
REMARK    6  A    between atoms: C_31  and  N_34
REMARK                            x       y       z     vdW  Elec       q    Type
REMARK                         _______ _______ _______ _____ _____    ______ ____
ROOT
ATOM      1  C   UNL     1       4.536  -2.229  -4.963  0.00  0.00    +0.058 A 
ATOM      2  C   UNL     1       5.377  -1.635  -5.904  0.00  0.00    +0.015 A 
ATOM      3  C   UNL     1       5.624  -2.276  -7.098  0.00  0.00    +0.001 A 
ATOM      4  C   UNL     1       5.034  -3.498  -7.367  0.00  0.00    +0.006 A 
ATOM      5  C   UNL     1       4.191  -4.103  -6.446  0.00  0.00    -0.019 A 
ATOM      6  C   UNL     1       3.936  -3.472  -5.240  0.00  0.00    +0.044 A 
ATOM      7  N   UNL     1       3.098  -4.019  -4.281  0.00  0.00    -0.336 N 
ATOM      8  C   UNL     1       3.022  -5.477  -4.374  0.00  0.00    +0.105 C 
ATOM      9  C   UNL     1       2.537  -5.873  -5.771  0.00  0.00    +0.029 C 
ATOM     10  C   UNL     1       3.591  -5.429  -6.808  0.00  0.00    +0.049 C 
ATOM     11  C   UNL     1       4.637  -6.519  -6.759  0.00  0.00    -0.023 C 
ATOM     12  C   UNL     1       4.132  -7.617  -6.253  0.00  0.00    -0.030 C 
ATOM     13  C   UNL     1       2.672  -7.417  -5.900  0.00  0.00    +0.033 C 
ATOM     14  H   UNL     1       3.372  -3.729  -3.354  0.00  0.00    +0.147 HD
ENDROOT
BRANCH   8  15
ATOM     15  C   UNL     1       4.387  -6.068  -4.130  0.00  0.00    -0.027 A 
ATOM     16  C   UNL     1       4.508  -7.388  -3.738  0.00  0.00    +0.008 A 
ATOM     17  C   UNL     1       5.760  -7.931  -3.518  0.00  0.00    +0.033 A 
ATOM     18  C   UNL     1       6.890  -7.151  -3.681  0.00  0.00    +0.126 A 
ATOM     19  C   UNL     1       6.768  -5.830  -4.068  0.00  0.00    +0.033 A 
ATOM     20  C   UNL     1       5.517  -5.288  -4.292  0.00  0.00    +0.008 A 
BRANCH  18  21
ATOM     21  N   UNL     1       8.231  -7.732  -3.441  0.00  0.00    +0.056 N 
ATOM     22  O   UNL     1       9.226  -7.045  -3.585  0.00  0.00    -0.126 OA
ATOM     23  O   UNL     1       8.338  -8.896  -3.100  0.00  0.00    -0.126 OA
ENDBRANCH  18  21
ENDBRANCH   8  15
BRANCH   1  26
ATOM     24  C   UNL     1       3.634   0.443  -4.927  0.00  0.00    +0.132 C 
ATOM     25  N   UNL     1       3.891  -0.258  -3.667  0.00  0.00    -0.296 N 
ATOM     26  C   UNL     1       4.270  -1.552  -3.680  0.00  0.00    +0.248 C 
ATOM     27  O   UNL     1       4.393  -2.160  -2.635  0.00  0.00    -0.270 OA
BRANCH  25  28
ATOM     28  C   UNL     1       3.737   0.447  -2.392  0.00  0.00    +0.142 C 
BRANCH  28  29
ATOM     29  C   UNL     1       2.322   0.289  -1.899  0.00  0.00    -0.030 A 
ATOM     30  C   UNL     1       1.989  -0.777  -1.085  0.00  0.00    +0.005 A 
ATOM     31  C   UNL     1       0.691  -0.922  -0.632  0.00  0.00    +0.000 A 
ATOM     32  C   UNL     1      -0.274  -0.000  -0.993  0.00  0.00    +0.000 A 
ATOM     33  C   UNL     1       0.059   1.066  -1.807  0.00  0.00    +0.000 A 
ATOM     34  C   UNL     1       1.358   1.211  -2.260  0.00  0.00    +0.005 A 
ENDBRANCH  28  29
ENDBRANCH  25  28
ENDBRANCH   1  26
TORSDOF 5
