REMARK  Name = ZINC01424260
REMARK  10 active torsions:
REMARK  status: ('A' for Active; 'I' for Inactive)
REMARK    1  A    between atoms: C_1  and  C_2
REMARK    2  A    between atoms: C_2  and  O_3
REMARK    3  A    between atoms: O_3  and  C_4
REMARK    4  A    between atoms: C_4  and  C_6
REMARK    5  A    between atoms: C_10  and  N_11
REMARK    6  A    between atoms: C_12  and  C_14
REMARK    7  A    between atoms: C_15  and  C_37
REMARK    8  A    between atoms: C_19  and  C_21
REMARK    9  A    between atoms: C_33  and  C_35
REMARK   10  A    between atoms: C_33  and  C_36
REMARK                            x       y       z     vdW  Elec       q    Type
REMARK                         _______ _______ _______ _____ _____    ______ ____
ROOT
ATOM      1  C   UNL     1      -3.297  -2.799   4.877  0.00  0.00    +0.043 C 
ATOM      2  C   UNL     1      -4.156  -2.934   5.901  0.00  0.00    +0.014 C 
ATOM      3  N   UNL     1      -3.768  -2.629   7.176  0.00  0.00    -0.321 N 
ATOM      4  C   UNL     1      -2.680  -1.829   7.402  0.00  0.00    +0.016 C 
ATOM      5  C   UNL     1      -1.755  -1.641   6.436  0.00  0.00    +0.024 C 
ATOM      6  C   UNL     1      -1.891  -2.325   5.097  0.00  0.00    +0.090 C 
ATOM      7  C   UNL     1      -0.643  -0.809   6.649  0.00  0.00    +0.162 C 
ATOM      8  O   UNL     1       0.175  -0.668   5.761  0.00  0.00    -0.292 OA
ATOM      9  C   UNL     1      -0.445  -0.090   7.956  0.00  0.00    +0.086 C 
ATOM     10  C   UNL     1      -1.814   0.170   8.594  0.00  0.00    -0.023 C 
ATOM     11  C   UNL     1      -2.539  -1.168   8.751  0.00  0.00    +0.058 C 
ATOM     12  C   UNL     1      -1.626   0.817   9.967  0.00  0.00    +0.011 C 
ATOM     13  C   UNL     1      -2.633   1.096   7.692  0.00  0.00    +0.011 C 
ATOM     14  C   UNL     1      -5.557  -3.426   5.643  0.00  0.00    +0.061 C 
ATOM     15  H   UNL     1      -4.267  -2.983   7.929  0.00  0.00    +0.152 HD
ENDROOT
BRANCH   6  16
ATOM     16  C   UNL     1      -0.957  -3.507   5.043  0.00  0.00    -0.032 A 
ATOM     17  C   UNL     1      -1.113  -4.551   5.936  0.00  0.00    +0.008 A 
ATOM     18  C   UNL     1      -0.259  -5.637   5.890  0.00  0.00    +0.050 A 
ATOM     19  C   UNL     1       0.756  -5.681   4.948  0.00  0.00    +0.166 A 
ATOM     20  C   UNL     1       0.913  -4.630   4.048  0.00  0.00    +0.167 A 
ATOM     21  C   UNL     1       0.050  -3.547   4.097  0.00  0.00    +0.054 A 
ATOM     22  O   UNL     1       1.971  -4.908   3.232  0.00  0.00    -0.453 OA
ATOM     23  C   UNL     1       2.712  -5.945   3.902  0.00  0.00    +0.466 C 
ATOM     24  O   UNL     1       1.716  -6.619   4.695  0.00  0.00    -0.453 OA
ENDBRANCH   6  16
BRANCH   1  26
ATOM     25  N   UNL     1      -3.871  -4.402   3.194  0.00  0.00    -0.275 N 
ATOM     26  C   UNL     1      -3.727  -3.114   3.565  0.00  0.00    +0.247 C 
ATOM     27  O   UNL     1      -3.965  -2.222   2.771  0.00  0.00    -0.270 OA
ATOM     28  H   UNL     1      -3.680  -5.112   3.826  0.00  0.00    +0.156 HD
BRANCH  25  33
ATOM     29  C   UNL     1      -4.492  -5.966   1.358  0.00  0.00    +0.091 A 
ATOM     30  C   UNL     1      -4.945  -6.019  -0.022  0.00  0.00    -0.021 A 
ATOM     31  C   UNL     1      -5.106  -4.808  -0.597  0.00  0.00    -0.004 A 
ATOM     32  S   UNL     1      -4.669  -3.649   0.666  0.00  0.00    -0.077 S 
ATOM     33  C   UNL     1      -4.290  -4.710   1.911  0.00  0.00    +0.087 A 
ATOM     34  C   UNL     1      -5.557  -4.531  -1.998  0.00  0.00    +0.043 C 
ATOM     35  C   UNL     1      -5.447  -5.832  -2.806  0.00  0.00    +0.005 C 
ATOM     36  C   UNL     1      -6.090  -6.968  -2.006  0.00  0.00    +0.005 C 
ATOM     37  C   UNL     1      -5.224  -7.303  -0.789  0.00  0.00    +0.037 C 
BRANCH  29  38
ATOM     38  C   UNL     1      -4.265  -7.187   2.134  0.00  0.00    +0.342 C 
ATOM     39  O   UNL     1      -5.173  -7.675   2.780  0.00  0.00    -0.245 OA
BRANCH  38  40
ATOM     40  O   UNL     1      -3.049  -7.771   2.133  0.00  0.00    -0.461 OA
BRANCH  40  42
ATOM     41  C   UNL     1      -1.464  -9.473   2.788  0.00  0.00    +0.048 C 
ATOM     42  C   UNL     1      -2.899  -8.959   2.912  0.00  0.00    +0.229 C 
ENDBRANCH  40  42
ENDBRANCH  38  40
ENDBRANCH  29  38
ENDBRANCH  25  33
ENDBRANCH   1  26
TORSDOF 6
