REMARK  Name = ZINC02469685
REMARK  4 active torsions:
REMARK  status: ('A' for Active; 'I' for Inactive)
REMARK    1  A    between atoms: C_4  and  C_7
REMARK    2  A    between atoms: C_10  and  C_13
REMARK    3  A    between atoms: C_10  and  O_20
REMARK    4  A    between atoms: C_13  and  O_19
REMARK                            x       y       z     vdW  Elec       q    Type
REMARK                         _______ _______ _______ _____ _____    ______ ____
ROOT
ATOM      1  C   UNL     1       2.648  -0.260   0.755  0.00  0.00    +0.116 C 
ATOM      2  C   UNL     1       2.101   1.109   1.236  0.00  0.00    +0.095 C 
ATOM      3  C   UNL     1       1.286   1.562  -0.002  0.00  0.00    +0.217 C 
ATOM      4  O   UNL     1       2.052   1.086  -1.123  0.00  0.00    -0.261 OA
ATOM      5  N   UNL     1       2.888  -0.038  -0.689  0.00  0.00    -0.190 NA
ATOM      6  H   UNL     1       2.682  -0.869  -1.222  0.00  0.00    +0.155 HD
ENDROOT
BRANCH   1  10
ATOM      7  C   UNL     1       6.294  -1.220   2.763  0.00  0.00    +0.000 A 
ATOM      8  C   UNL     1       5.105  -1.785   3.183  0.00  0.00    +0.000 A 
ATOM      9  C   UNL     1       3.925  -1.474   2.533  0.00  0.00    +0.005 A 
ATOM     10  C   UNL     1       3.934  -0.599   1.464  0.00  0.00    -0.028 A 
ATOM     11  C   UNL     1       5.124  -0.037   1.041  0.00  0.00    +0.005 A 
ATOM     12  C   UNL     1       6.304  -0.344   1.693  0.00  0.00    +0.000 A 
ENDBRANCH   1  10
BRANCH   3  13
ATOM     13  C   UNL     1       1.170   3.087  -0.038  0.00  0.00    +0.121 C 
ATOM     14  C   UNL     1       0.423   3.571   1.206  0.00  0.00    +0.040 C 
ATOM     15  C   UNL     1       0.307   5.096   1.170  0.00  0.00    +0.003 C 
ATOM     16  C   UNL     1      -0.462   5.520  -0.083  0.00  0.00    +0.000 C 
ATOM     17  C   UNL     1       0.285   5.035  -1.327  0.00  0.00    +0.003 C 
ATOM     18  C   UNL     1       0.402   3.510  -1.291  0.00  0.00    +0.040 C 
BRANCH  13  19
ATOM     19  O   UNL     1       2.477   3.664  -0.063  0.00  0.00    -0.383 OA
ATOM     20  H   UNL     1       2.480   4.630  -0.086  0.00  0.00    +0.210 HD
ENDBRANCH  13  19
ENDBRANCH   3  13
BRANCH   3  21
ATOM     21  O   UNL     1      -0.011   0.963   0.007  0.00  0.00    -0.361 OA
ATOM     22  H   UNL     1       0.002  -0.004   0.002  0.00  0.00    +0.213 HD
ENDBRANCH   3  21
TORSDOF 4
