REMARK  Name = ZINC35574766
REMARK  8 active torsions:
REMARK  status: ('A' for Active; 'I' for Inactive)
REMARK    1  A    between atoms: C_1  and  C_2
REMARK    2  A    between atoms: C_2  and  C_3
REMARK    3  A    between atoms: C_3  and  C_4
REMARK    4  A    between atoms: C_4  and  C_5
REMARK    5  A    between atoms: C_8  and  C_11
REMARK    6  A    between atoms: N_13  and  C_14
REMARK    7  A    between atoms: C_17  and  C_20
REMARK    8  A    between atoms: N_22  and  C_27
REMARK                            x       y       z     vdW  Elec       q    Type
REMARK                         _______ _______ _______ _____ _____    ______ ____
ROOT
ATOM      1  C   UNL     1       5.402  -4.473  -7.158  0.00  0.00    +0.034 A 
ATOM      2  C   UNL     1       4.645  -4.590  -8.316  0.00  0.00    +0.023 A 
ATOM      3  C   UNL     1       5.253  -4.947  -9.504  0.00  0.00    +0.008 A 
ATOM      4  C   UNL     1       6.614  -5.188  -9.540  0.00  0.00    -0.017 A 
ATOM      5  C   UNL     1       7.371  -5.073  -8.388  0.00  0.00    +0.008 A 
ATOM      6  C   UNL     1       6.770  -4.710  -7.199  0.00  0.00    +0.023 A 
ENDROOT
BRANCH   4   7
ATOM      7  C   UNL     1       7.275  -5.578 -10.837  0.00  0.00    +0.170 C 
ATOM      8  N   UNL     1       8.696  -5.184 -10.848  0.00  0.00    -0.254 N 
ATOM      9  C   UNL     1       9.609  -6.061 -11.243  0.00  0.00    +0.231 C 
ATOM     10  O   UNL     1      10.787  -5.773 -11.271  0.00  0.00    -0.274 OA
ATOM     11  C   UNL     1       9.125  -7.441 -11.661  0.00  0.00    +0.167 C 
ATOM     12  S   UNL     1       7.406  -7.412 -10.989  0.00  0.00    -0.124 S 
BRANCH   8  13
ATOM     13  C   UNL     1       9.077  -3.897 -10.446  0.00  0.00    +0.041 A 
ATOM     14  C   UNL     1      10.021  -3.735  -9.440  0.00  0.00    +0.027 A 
ATOM     15  C   UNL     1      10.398  -2.466  -9.042  0.00  0.00    +0.051 A 
ATOM     16  C   UNL     1       9.836  -1.353  -9.646  0.00  0.00    +0.166 A 
ATOM     17  C   UNL     1       8.889  -1.512 -10.655  0.00  0.00    +0.168 A 
ATOM     18  C   UNL     1       8.516  -2.784 -11.057  0.00  0.00    +0.073 A 
ATOM     19  O   UNL     1       8.493  -0.277 -11.081  0.00  0.00    -0.453 OA
ATOM     20  C   UNL     1       8.901   0.636 -10.045  0.00  0.00    +0.466 C 
ATOM     21  O   UNL     1      10.033  -0.017  -9.440  0.00  0.00    -0.453 OA
ENDBRANCH   8  13
ENDBRANCH   4   7
BRANCH   1  24
ATOM     22  C   UNL     1       5.447  -3.334  -5.070  0.00  0.00    +0.248 C 
ATOM     23  O   UNL     1       6.601  -3.016  -5.281  0.00  0.00    -0.270 OA
ATOM     24  N   UNL     1       4.789  -4.111  -5.954  0.00  0.00    -0.282 N 
ATOM     25  H   UNL     1       3.891  -4.419  -5.755  0.00  0.00    +0.155 HD
BRANCH  22  29
ATOM     26  C   UNL     1       3.486  -1.999  -1.547  0.00  0.00    -0.047 A 
ATOM     27  C   UNL     1       4.800  -1.635  -1.784  0.00  0.00    +0.004 A 
ATOM     28  C   UNL     1       5.442  -2.066  -2.926  0.00  0.00    +0.013 A 
ATOM     29  C   UNL     1       4.764  -2.870  -3.844  0.00  0.00    +0.037 A 
ATOM     30  C   UNL     1       3.439  -3.233  -3.598  0.00  0.00    +0.013 A 
ATOM     31  C   UNL     1       2.810  -2.801  -2.449  0.00  0.00    +0.004 A 
BRANCH  26  32
ATOM     32  C   UNL     1       2.790  -1.525  -0.297  0.00  0.00    +0.035 C 
BRANCH  32  33
ATOM     33  C   UNL     1       3.013  -2.540   0.827  0.00  0.00    +0.004 C 
BRANCH  33  35
ATOM     34  C   UNL     1       2.529  -3.073   3.219  0.00  0.00    +0.004 C 
ATOM     35  C   UNL     1       2.306  -2.058   2.096  0.00  0.00    -0.003 C 
ENDBRANCH  33  35
ENDBRANCH  32  33
ENDBRANCH  26  32
ENDBRANCH  22  29
ENDBRANCH   1  24
TORSDOF 7
