REMARK  Name = ZINC49550005
REMARK  4 active torsions:
REMARK  status: ('A' for Active; 'I' for Inactive)
REMARK    1  A    between atoms: C_6  and  C_7
REMARK    2  A    between atoms: C_7  and  N_8
REMARK    3  A    between atoms: C_13  and  C_19
REMARK    4  A    between atoms: C_22  and  O_25
REMARK                            x       y       z     vdW  Elec       q    Type
REMARK                         _______ _______ _______ _____ _____    ______ ____
ROOT
ATOM      1  N   UNL     1      -1.726  -1.017  -1.368  0.00  0.00    -0.246 N 
ATOM      2  C   UNL     1      -2.509  -0.215  -2.102  0.00  0.00    +0.127 A 
ATOM      3  C   UNL     1      -2.676  -0.804  -3.328  0.00  0.00    +0.020 A 
ATOM      4  C   UNL     1      -1.967  -1.996  -3.329  0.00  0.00    +0.140 A 
ATOM      5  N   UNL     1      -1.390  -2.129  -2.158  0.00  0.00    -0.177 NA
ATOM      6  C   UNL     1      -3.510  -0.177  -4.415  0.00  0.00    +0.063 C 
ATOM      7  C   UNL     1      -4.605   0.667  -3.756  0.00  0.00    +0.109 C 
ATOM      8  C   UNL     1      -4.061   1.478  -2.616  0.00  0.00    +0.219 C 
ATOM      9  O   UNL     1      -4.501   2.593  -2.428  0.00  0.00    -0.275 OA
ATOM     10  N   UNL     1      -3.100   1.010  -1.791  0.00  0.00    -0.270 N 
ATOM     11  H   UNL     1      -2.828   1.510  -1.006  0.00  0.00    +0.156 HD
ENDROOT
BRANCH   6  12
ATOM     12  C   UNL     1      -2.642   0.701  -5.279  0.00  0.00    -0.039 A 
ATOM     13  C   UNL     1      -1.964   1.768  -4.718  0.00  0.00    +0.008 A 
ATOM     14  C   UNL     1      -1.168   2.575  -5.507  0.00  0.00    +0.045 A 
ATOM     15  C   UNL     1      -1.048   2.314  -6.864  0.00  0.00    +0.117 A 
ATOM     16  C   UNL     1      -1.729   1.243  -7.425  0.00  0.00    +0.045 A 
ATOM     17  C   UNL     1      -2.520   0.436  -6.630  0.00  0.00    +0.008 A 
BRANCH  15  18
ATOM     18  O   UNL     1      -0.266   3.106  -7.644  0.00  0.00    -0.507 OA
ATOM     19  H   UNL     1       0.653   2.811  -7.707  0.00  0.00    +0.292 HD
ENDBRANCH  15  18
ENDBRANCH   6  12
BRANCH   1  20
ATOM     20  C   UNL     1      -1.293  -0.775   0.011  0.00  0.00    +0.180 C 
BRANCH  20  26
ATOM     21  C   UNL     1      -0.017   1.378   0.010  0.00  0.00    +0.007 A 
ATOM     22  C   UNL     1       1.171   2.086   0.002  0.00  0.00    +0.020 A 
ATOM     23  C   UNL     1       2.378   1.410  -0.013  0.00  0.00    +0.041 A 
ATOM     24  C   UNL     1       2.396   0.027  -0.021  0.00  0.00    +0.020 A 
ATOM     25  C   UNL     1       1.208  -0.679  -0.013  0.00  0.00    +0.007 A 
ATOM     26  C   UNL     1       0.002  -0.004   0.002  0.00  0.00    -0.026 A 
ATOM     27 CL   UNL     1       3.870   2.298  -0.023  0.00  0.00    -0.084 Cl
ENDBRANCH  20  26
ENDBRANCH   1  20
TORSDOF 4
