REMARK  Name = ZINC21274776
REMARK  11 active torsions:
REMARK  status: ('A' for Active; 'I' for Inactive)
REMARK    1  A    between atoms: C_4  and  C_7
REMARK    2  A    between atoms: C_7  and  C_8
REMARK    3  A    between atoms: C_13  and  N_14
REMARK    4  A    between atoms: C_15  and  C_17
REMARK    5  A    between atoms: C_17  and  N_18
REMARK    6  A    between atoms: N_18  and  C_19
REMARK    7  A    between atoms: C_21  and  N_29
REMARK    8  A    between atoms: C_24  and  N_25
REMARK    9  A    between atoms: N_25  and  C_26
REMARK   10  A    between atoms: C_26  and  C_27
REMARK   11  A    between atoms: C_27  and  O_28
REMARK                            x       y       z     vdW  Elec       q    Type
REMARK                         _______ _______ _______ _____ _____    ______ ____
ROOT
ATOM      1  C   UNL     1       2.434   4.236   0.019  0.00  0.00    +0.198 C 
ENDROOT
BRANCH   1   3
ATOM      2  N   UNL     1       3.163   6.599   0.007  0.00  0.00    -0.284 N 
ATOM      3  C   UNL     1       2.146   5.715   0.018  0.00  0.00    +0.234 C 
ATOM      4  O   UNL     1       0.999   6.110   0.027  0.00  0.00    -0.274 OA
ATOM      5  H   UNL     1       4.202   6.244   0.074  0.00  0.00    +0.155 HD
BRANCH   2  11
ATOM      6  C   UNL     1       3.767   8.800  -0.784  0.00  0.00    -0.022 A 
ATOM      7  C   UNL     1       3.499  10.152  -0.881  0.00  0.00    +0.006 A 
ATOM      8  C   UNL     1       2.373  10.680  -0.278  0.00  0.00    +0.000 A 
ATOM      9  C   UNL     1       1.508   9.857   0.420  0.00  0.00    +0.002 A 
ATOM     10  C   UNL     1       1.767   8.504   0.517  0.00  0.00    +0.023 A 
ATOM     11  C   UNL     1       2.898   7.970  -0.088  0.00  0.00    +0.037 A 
BRANCH   6  12
ATOM     12  C   UNL     1       4.998   8.226  -1.436  0.00  0.00    +0.072 C 
BRANCH  12  16
ATOM     13  C   UNL     1       3.991   6.724  -5.306  0.00  0.00    +0.000 A 
ATOM     14  C   UNL     1       4.399   8.036  -5.159  0.00  0.00    +0.000 A 
ATOM     15  C   UNL     1       4.724   8.523  -3.906  0.00  0.00    +0.004 A 
ATOM     16  C   UNL     1       4.643   7.696  -2.801  0.00  0.00    -0.043 A 
ATOM     17  C   UNL     1       4.240   6.382  -2.949  0.00  0.00    +0.004 A 
ATOM     18  C   UNL     1       3.909   5.897  -4.201  0.00  0.00    +0.000 A 
ENDBRANCH  12  16
ENDBRANCH   6  12
ENDBRANCH   2  11
ENDBRANCH   1   3
BRANCH   1  19
ATOM     19  N   UNL     1       1.171   3.493   0.032  0.00  0.00    -0.334 N 
ATOM     20  H   UNL     1       0.214   4.035   0.039  0.00  0.00    +0.147 HD
BRANCH  19  21
ATOM     21  C   UNL     1       1.183   2.093   0.035  0.00  0.00    +0.051 A 
ATOM     22  C   UNL     1       2.388   1.407   0.025  0.00  0.00    +0.057 A 
ATOM     23  C   UNL     1       2.397   0.025   0.029  0.00  0.00    +0.128 A 
ATOM     24  C   UNL     1       1.207  -0.678   0.041  0.00  0.00    +0.034 A 
ATOM     25  C   UNL     1       0.000  -0.003   0.050  0.00  0.00    +0.027 A 
ATOM     26  C   UNL     1      -0.018   1.383   0.047  0.00  0.00    +0.048 A 
BRANCH  23  27
ATOM     27  N   UNL     1       3.685  -0.705   0.019  0.00  0.00    +0.056 N 
ATOM     28  O   UNL     1       3.695  -1.923   0.022  0.00  0.00    -0.126 OA
ATOM     29  O   UNL     1       4.734  -0.087   0.008  0.00  0.00    -0.126 OA
ENDBRANCH  23  27
BRANCH  26  30
ATOM     30  N   UNL     1      -1.239   2.070   0.050  0.00  0.00    -0.340 N 
ATOM     31  H   UNL     1      -1.252   3.169   0.048  0.00  0.00    +0.146 HD
BRANCH  30  32
ATOM     32  C   UNL     1      -2.499   1.322   0.057  0.00  0.00    +0.129 C 
BRANCH  32  33
ATOM     33  C   UNL     1      -3.673   2.303   0.059  0.00  0.00    +0.174 C 
BRANCH  33  34
ATOM     34  O   UNL     1      -3.679   3.043  -1.164  0.00  0.00    -0.393 OA
ATOM     35  H   UNL     1      -4.455   3.801  -1.345  0.00  0.00    +0.209 HD
ENDBRANCH  33  34
ENDBRANCH  32  33
ENDBRANCH  30  32
ENDBRANCH  26  30
ENDBRANCH  19  21
ENDBRANCH   1  19
TORSDOF 11
