REMARK  Name = ZINC08948543
REMARK  10 active torsions:
REMARK  status: ('A' for Active; 'I' for Inactive)
REMARK    1  A    between atoms: C_1  and  C_2
REMARK    2  A    between atoms: C_8  and  N_10
REMARK    3  A    between atoms: C_14  and  C_16
REMARK    4  A    between atoms: C_16  and  N_17
REMARK    5  A    between atoms: C_20  and  C_24
REMARK    6  A    between atoms: C_20  and  C_25
REMARK    7  A    between atoms: C_28  and  C_31
REMARK    8  A    between atoms: C_31  and  C_32
REMARK    9  A    between atoms: C_31  and  C_33
REMARK   10  A    between atoms: C_31  and  C_34
REMARK                            x       y       z     vdW  Elec       q    Type
REMARK                         _______ _______ _______ _____ _____    ______ ____
ROOT
ATOM      1  N   UNL     1      -1.476  -1.259  -1.205  0.00  0.00    -0.215 N 
ATOM      2  C   UNL     1      -1.408  -0.556  -0.058  0.00  0.00    +0.251 C 
ATOM      3  O   UNL     1      -2.292  -0.398   0.757  0.00  0.00    -0.272 OA
ATOM      4  C   UNL     1       0.002  -0.004   0.002  0.00  0.00    +0.135 C 
ATOM      5  N   UNL     1       0.627  -0.507  -1.234  0.00  0.00    -0.281 N 
ATOM      6  C   UNL     1      -0.317  -1.228  -1.872  0.00  0.00    +0.310 C 
ATOM      7  O   UNL     1      -0.134  -1.789  -2.935  0.00  0.00    -0.252 OA
ATOM      8  C   UNL     1      -0.019   1.526   0.010  0.00  0.00    +0.047 C 
ATOM      9  H   UNL     1       1.537  -0.349  -1.528  0.00  0.00    +0.152 HD
ENDROOT
BRANCH   4  10
ATOM     10  C   UNL     1       0.726  -0.530   1.214  0.00  0.00    -0.015 A 
ATOM     11  C   UNL     1       0.026  -0.796   2.376  0.00  0.00    +0.006 A 
ATOM     12  C   UNL     1       0.690  -1.282   3.487  0.00  0.00    +0.004 A 
ATOM     13  C   UNL     1       2.055  -1.493   3.439  0.00  0.00    -0.042 A 
ATOM     14  C   UNL     1       2.756  -1.222   2.279  0.00  0.00    +0.004 A 
ATOM     15  C   UNL     1       2.092  -0.740   1.167  0.00  0.00    +0.006 A 
BRANCH  13  16
ATOM     16  C   UNL     1       2.780  -2.018   4.652  0.00  0.00    -0.013 C 
ATOM     17  C   UNL     1       3.842  -1.007   5.089  0.00  0.00    +0.015 C 
ATOM     18  C   UNL     1       1.780  -2.232   5.790  0.00  0.00    +0.015 C 
ATOM     19  C   UNL     1       3.453  -3.348   4.307  0.00  0.00    +0.015 C 
ENDBRANCH  13  16
ENDBRANCH   4  10
BRANCH   1  20
ATOM     20  C   UNL     1      -2.672  -1.970  -1.666  0.00  0.00    +0.214 C 
BRANCH  20  25
ATOM     21  N   UNL     1      -6.571  -1.104  -4.341  0.00  0.00    -0.296 N 
ATOM     22  C   UNL     1      -5.415  -0.663  -3.805  0.00  0.00    +0.306 C 
ATOM     23  O   UNL     1      -5.050   0.479  -4.005  0.00  0.00    -0.252 OA
ATOM     24  N   UNL     1      -4.666  -1.488  -3.048  0.00  0.00    -0.239 N 
ATOM     25  C   UNL     1      -3.510  -1.047  -2.512  0.00  0.00    +0.238 C 
ATOM     26  O   UNL     1      -3.145   0.091  -2.712  0.00  0.00    -0.274 OA
ATOM     27  H   UNL     1      -6.863  -2.015  -4.181  0.00  0.00    +0.151 HD
ATOM     28  H   UNL     1      -4.958  -2.399  -2.888  0.00  0.00    +0.159 HD
BRANCH  21  35
ATOM     29  C   UNL     1      -7.335  -1.871  -7.027  0.00  0.00    +0.009 C 
ATOM     30  C   UNL     1      -8.243  -1.034  -6.124  0.00  0.00    +0.006 C 
ATOM     31  C   UNL     1      -9.158  -1.961  -5.321  0.00  0.00    +0.005 C 
ATOM     32  C   UNL     1     -10.066  -1.125  -4.418  0.00  0.00    +0.000 C 
ATOM     33  C   UNL     1      -9.209  -0.298  -3.458  0.00  0.00    +0.002 C 
ATOM     34  C   UNL     1      -8.294   0.630  -4.261  0.00  0.00    +0.022 C 
ATOM     35  C   UNL     1      -7.386  -0.207  -5.164  0.00  0.00    +0.077 C 
ENDBRANCH  21  35
ENDBRANCH  20  25
ENDBRANCH   1  20
TORSDOF 5
