REMARK  Name = ZINC36309733
REMARK  15 active torsions:
REMARK  status: ('A' for Active; 'I' for Inactive)
REMARK    1  A    between atoms: C_1  and  C_2
REMARK    2  A    between atoms: C_2  and  C_3
REMARK    3  A    between atoms: C_2  and  C_4
REMARK    4  A    between atoms: C_4  and  N_5
REMARK    5  A    between atoms: N_5  and  C_6
REMARK    6  A    between atoms: N_5  and  C_14
REMARK    7  A    between atoms: C_6  and  C_7
REMARK    8  A    between atoms: C_7  and  C_9
REMARK    9  A    between atoms: C_7  and  O_13
REMARK   10  A    between atoms: C_9  and  C_10
REMARK   11  A    between atoms: C_10  and  C_11
REMARK   12  A    between atoms: C_14  and  C_15
REMARK   13  A    between atoms: C_25  and  C_27
REMARK   14  A    between atoms: C_27  and  O_28
REMARK   15  A    between atoms: O_28  and  C_29
REMARK                            x       y       z     vdW  Elec       q    Type
REMARK                         _______ _______ _______ _____ _____    ______ ____
ROOT
ATOM      1  C   UNL     1       2.115   0.980   2.746  0.00  0.00    +0.200 C 
ATOM      2  O   UNL     1       2.060   1.575   1.691  0.00  0.00    -0.278 OA
ATOM      3  N   UNL     1       3.203   1.100   3.532  0.00  0.00    -0.292 N 
ATOM      4  C   UNL     1       3.283   0.378   4.811  0.00  0.00    +0.113 C 
ATOM      5  C   UNL     1       4.429  -0.642   4.718  0.00  0.00    +0.061 C 
ATOM      6  C   UNL     1       5.600   0.013   4.061  0.00  0.00    -0.004 A 
ATOM      7  C   UNL     1       5.616   1.163   3.333  0.00  0.00    -0.014 A 
ATOM      8  C   UNL     1       6.848   1.558   2.815  0.00  0.00    +0.013 A 
ATOM      9  C   UNL     1       7.951   0.812   3.049  0.00  0.00    +0.046 A 
ATOM     10  S   UNL     1       7.291  -0.521   4.039  0.00  0.00    -0.101 S 
ATOM     11  C   UNL     1       4.329   1.950   3.121  0.00  0.00    +0.144 C 
ENDROOT
BRANCH   1  12
ATOM     12  C   UNL     1       0.966   0.105   3.178  0.00  0.00    +0.019 C 
BRANCH  12  13
ATOM     13  N   UNL     1      -0.089   0.142   2.157  0.00  0.00    +0.387 N 
ATOM     14  H   UNL     1      -0.330   1.101   1.957  0.00  0.00    -0.081 HD
BRANCH  13  15
ATOM     15  C   UNL     1       0.394  -0.506   0.930  0.00  0.00    -0.075 C 
BRANCH  15  17
ATOM     16  C   UNL     1      -0.859   1.092  -0.525  0.00  0.00    +0.005 C 
ATOM     17  C   UNL     1      -0.668  -0.383  -0.164  0.00  0.00    -0.034 C 
ATOM     18  C   UNL     1      -0.215  -1.156  -1.404  0.00  0.00    +0.005 C 
ENDBRANCH  15  17
ENDBRANCH  13  15
BRANCH  13  19
ATOM     19  C   UNL     1      -1.275  -0.568   2.652  0.00  0.00    -0.046 C 
BRANCH  19  20
ATOM     20  C   UNL     1      -1.896   0.219   3.807  0.00  0.00    +0.098 C 
BRANCH  20  21
ATOM     21  O   UNL     1      -1.040   0.144   4.949  0.00  0.00    -0.394 OA
ATOM     22  H   UNL     1      -0.887  -0.756   5.268  0.00  0.00    +0.210 HD
ENDBRANCH  20  21
BRANCH  20  23
ATOM     23  C   UNL     1      -3.262  -0.375   4.154  0.00  0.00    +0.033 C 
BRANCH  23  24
ATOM     24  C   UNL     1      -3.937   0.486   5.223  0.00  0.00    +0.029 C 
BRANCH  24  25
ATOM     25  C   UNL     1      -5.283  -0.100   5.564  0.00  0.00    -0.034 C 
ATOM     26  C   UNL     1      -5.574  -0.393   6.808  0.00  0.00    +0.004 C 
ENDBRANCH  24  25
ENDBRANCH  23  24
ENDBRANCH  20  23
ENDBRANCH  19  20
ENDBRANCH  13  19
ENDBRANCH  12  13
ENDBRANCH   1  12
BRANCH  11  27
ATOM     27  C   UNL     1       4.357   3.220   3.973  0.00  0.00    +0.256 C 
BRANCH  27  28
ATOM     28  O   UNL     1       4.626   2.876   5.333  0.00  0.00    -0.490 OA
BRANCH  28  29
ATOM     29  C   UNL     1       4.685   3.897   6.229  0.00  0.00    +0.121 A 
ATOM     30  C   UNL     1       4.483   5.203   5.806  0.00  0.00    +0.048 A 
ATOM     31  C   UNL     1       4.543   6.240   6.717  0.00  0.00    +0.042 A 
ATOM     32  C   UNL     1       4.806   5.976   8.051  0.00  0.00    +0.124 A 
ATOM     33  C   UNL     1       5.008   4.674   8.473  0.00  0.00    +0.042 A 
ATOM     34  C   UNL     1       4.942   3.634   7.566  0.00  0.00    +0.048 A 
ATOM     35  F   UNL     1       4.865   6.992   8.940  0.00  0.00    -0.205 F 
ENDBRANCH  28  29
ENDBRANCH  27  28
ENDBRANCH  11  27
TORSDOF 13
