REMARK  Name = ZINC47065376
REMARK  6 active torsions:
REMARK  status: ('A' for Active; 'I' for Inactive)
REMARK    1  A    between atoms: C_1  and  C_2
REMARK    2  A    between atoms: C_2  and  C_26
REMARK    3  A    between atoms: C_4  and  N_10
REMARK    4  A    between atoms: C_6  and  C_8
REMARK    5  A    between atoms: C_6  and  C_9
REMARK    6  A    between atoms: C_11  and  C_13
REMARK                            x       y       z     vdW  Elec       q    Type
REMARK                         _______ _______ _______ _____ _____    ______ ____
ROOT
ATOM      1  N   UNL     1      -3.540  -0.922   1.007  0.00  0.00    -0.309 N 
ATOM      2  C   UNL     1      -4.546  -0.473   1.784  0.00  0.00    +0.244 C 
ATOM      3  O   UNL     1      -4.333   0.386   2.617  0.00  0.00    -0.270 OA
ATOM      4  H   UNL     1      -3.710  -1.608   0.342  0.00  0.00    +0.149 HD
ENDROOT
BRANCH   2   5
ATOM      5  C   UNL     1      -5.910  -1.027   1.623  0.00  0.00    +0.039 A 
ATOM      6  C   UNL     1      -6.147  -2.023   0.663  0.00  0.00    +0.014 A 
ATOM      7  C   UNL     1      -7.392  -2.549   0.496  0.00  0.00    +0.016 A 
ATOM      8  C   UNL     1      -8.455  -2.093   1.290  0.00  0.00    +0.065 A 
ATOM      9  C   UNL     1      -8.229  -1.086   2.265  0.00  0.00    +0.080 A 
ATOM     10  C   UNL     1      -6.939  -0.562   2.426  0.00  0.00    +0.041 A 
ATOM     11  N   UNL     1      -9.256  -0.662   3.016  0.00  0.00    -0.223 NA
ATOM     12  C   UNL     1     -10.467  -1.171   2.856  0.00  0.00    +0.180 A 
ATOM     13  N   UNL     1     -10.733  -2.126   1.948  0.00  0.00    -0.301 N 
ATOM     14  H   UNL     1     -11.636  -2.470   1.866  0.00  0.00    +0.171 HD
ATOM     15  C   UNL     1      -9.759  -2.612   1.148  0.00  0.00    +0.260 A 
ATOM     16  O   UNL     1     -10.026  -3.567   0.240  0.00  0.00    -0.267 OA
ATOM     17  S   UNL     1     -11.742  -0.593   3.841  0.00  0.00    -0.011 S 
ENDBRANCH   2   5
BRANCH   1  21
ATOM     18  C   UNL     1      -0.019   1.528   0.010  0.00  0.00    -0.010 C 
ATOM     19  C   UNL     1       0.002  -0.004   0.002  0.00  0.00    -0.072 C 
ATOM     20  C   UNL     1      -1.419  -0.538  -0.145  0.00  0.00    +0.009 C 
ATOM     21  C   UNL     1      -2.188  -0.373   1.166  0.00  0.00    +0.071 C 
ATOM     22  C   UNL     1      -1.451  -1.155   2.253  0.00  0.00    +0.009 C 
ATOM     23  C   UNL     1      -0.030  -0.627   2.418  0.00  0.00    -0.072 C 
ATOM     24  N   UNL     1       0.697  -0.529   1.164  0.00  0.00    +0.386 N 
ATOM     25  C   UNL     1       0.730  -1.621   3.326  0.00  0.00    -0.010 C 
ATOM     26  C   UNL     1      -0.059   0.719   3.151  0.00  0.00    -0.010 C 
ATOM     27  C   UNL     1       0.791  -0.440  -1.254  0.00  0.00    -0.010 C 
ATOM     28  H   UNL     1       1.056  -1.460   0.929  0.00  0.00    -0.084 HD
ATOM     29  H   UNL     1       1.534   0.040   1.322  0.00  0.00    -0.084 HD
ENDBRANCH   1  21
TORSDOF 2
