REMARK  Name = ZINC23448960
REMARK  10 active torsions:
REMARK  status: ('A' for Active; 'I' for Inactive)
REMARK    1  A    between atoms: C_1  and  C_2
REMARK    2  A    between atoms: C_5  and  C_9
REMARK    3  A    between atoms: C_6  and  C_8
REMARK    4  A    between atoms: C_12  and  C_23
REMARK    5  A    between atoms: N_13  and  C_14
REMARK    6  A    between atoms: C_17  and  C_20
REMARK    7  A    between atoms: C_20  and  C_21
REMARK    8  A    between atoms: C_23  and  C_24
REMARK    9  A    between atoms: C_24  and  C_25
REMARK   10  A    between atoms: C_30  and  N_33
REMARK                            x       y       z     vdW  Elec       q    Type
REMARK                         _______ _______ _______ _____ _____    ______ ____
ROOT
ATOM      1  C   UNL     1       0.264   3.253  -0.406  0.00  0.00    +0.054 A 
ATOM      2  C   UNL     1       0.508   1.974  -0.005  0.00  0.00    +0.028 A 
ATOM      3  C   UNL     1      -0.646   1.221  -0.277  0.00  0.00    +0.024 A 
ATOM      4  C   UNL     1      -1.555   2.049  -0.836  0.00  0.00    +0.025 A 
ATOM      5  N   UNL     1      -1.011   3.299  -0.915  0.00  0.00    -0.313 N 
ENDROOT
BRANCH   1  10
ATOM      6  C   UNL     1       3.922   7.679  -0.029  0.00  0.00    +0.044 C 
ATOM      7  C   UNL     1       2.964   6.520  -0.128  0.00  0.00    -0.050 A 
ATOM      8  C   UNL     1       1.715   6.607   0.461  0.00  0.00    +0.004 A 
ATOM      9  C   UNL     1       0.833   5.550   0.374  0.00  0.00    +0.010 A 
ATOM     10  C   UNL     1       1.204   4.390  -0.309  0.00  0.00    +0.002 A 
ATOM     11  C   UNL     1       2.467   4.307  -0.895  0.00  0.00    -0.041 A 
ATOM     12  C   UNL     1       3.337   5.374  -0.806  0.00  0.00    +0.007 A 
ATOM     13  C   UNL     1       2.878   3.056  -1.630  0.00  0.00    +0.044 C 
ENDBRANCH   1  10
BRANCH   5  14
ATOM     14  C   UNL     1      -1.645   4.436  -1.434  0.00  0.00    +0.047 A 
ATOM     15  C   UNL     1      -2.736   4.986  -0.775  0.00  0.00    +0.026 A 
ATOM     16  C   UNL     1      -3.355   6.109  -1.286  0.00  0.00    +0.006 A 
ATOM     17  C   UNL     1      -2.896   6.680  -2.459  0.00  0.00    -0.033 A 
ATOM     18  C   UNL     1      -1.813   6.132  -3.121  0.00  0.00    +0.006 A 
ATOM     19  C   UNL     1      -1.186   5.011  -2.611  0.00  0.00    +0.026 A 
BRANCH  17  20
ATOM     20  C   UNL     1      -3.578   7.903  -3.018  0.00  0.00    +0.153 C 
BRANCH  20  21
ATOM     21  C   UNL     1      -4.657   7.489  -3.930  0.00  0.00    +0.067 C 
ATOM     22  N   UNL     1      -5.489   7.170  -4.634  0.00  0.00    -0.196 NA
ENDBRANCH  20  21
ENDBRANCH  17  20
ENDBRANCH   5  14
BRANCH   4  23
ATOM     23  C   UNL     1      -2.938   1.660  -1.291  0.00  0.00    +0.063 C 
BRANCH  23  24
ATOM     24  C   UNL     1      -3.902   1.723  -0.105  0.00  0.00    +0.102 C 
BRANCH  24  25
ATOM     25  C   UNL     1      -5.285   1.334  -0.561  0.00  0.00    +0.216 C 
ATOM     26  O   UNL     1      -5.480   1.036  -1.720  0.00  0.00    -0.276 OA
ATOM     27  N   UNL     1      -6.305   1.317   0.320  0.00  0.00    -0.302 N 
ATOM     28  C   UNL     1      -6.083   1.670   1.729  0.00  0.00    +0.106 C 
ATOM     29  C   UNL     1      -7.076   2.776   2.118  0.00  0.00    +0.004 C 
ATOM     30  C   UNL     1      -8.499   2.309   1.804  0.00  0.00    -0.066 C 
ATOM     31  C   UNL     1      -8.633   2.049   0.302  0.00  0.00    +0.004 C 
ATOM     32  C   UNL     1      -7.659   0.941  -0.109  0.00  0.00    +0.106 C 
BRANCH  30  33
ATOM     33  N   UNL     1      -9.456   3.348   2.208  0.00  0.00    +0.382 N 
ATOM     34  C   UNL     1     -10.847   2.954   1.867  0.00  0.00    -0.079 C 
ATOM     35  C   UNL     1     -11.707   3.848   2.795  0.00  0.00    -0.020 C 
ATOM     36  C   UNL     1     -10.879   3.890   4.099  0.00  0.00    -0.020 C 
ATOM     37  C   UNL     1      -9.440   3.543   3.674  0.00  0.00    -0.079 C 
ATOM     38  H   UNL     1      -9.147   4.261   1.677  0.00  0.00    -0.081 HD
ENDBRANCH  30  33
ENDBRANCH  24  25
ENDBRANCH  23  24
ENDBRANCH   4  23
TORSDOF 8
