REMARK  Name = ZINC38547632
REMARK  11 active torsions:
REMARK  status: ('A' for Active; 'I' for Inactive)
REMARK    1  A    between atoms: C_1  and  C_2
REMARK    2  A    between atoms: C_2  and  O_3
REMARK    3  A    between atoms: O_3  and  C_4
REMARK    4  A    between atoms: C_7  and  C_10
REMARK    5  A    between atoms: C_10  and  C_12
REMARK    6  A    between atoms: C_10  and  N_27
REMARK    7  A    between atoms: C_13  and  C_26
REMARK    8  A    between atoms: C_14  and  C_25
REMARK    9  A    between atoms: C_16  and  N_17
REMARK   10  A    between atoms: C_18  and  C_20
REMARK   11  A    between atoms: C_30  and  C_34
REMARK                            x       y       z     vdW  Elec       q    Type
REMARK                         _______ _______ _______ _____ _____    ______ ____
ROOT
ATOM      1  C   UNL     1      -1.997  -6.086   0.057  0.00  0.00    +0.135 C 
ENDROOT
BRANCH   1   2
ATOM      2  N   UNL     1      -2.999  -6.371   1.087  0.00  0.00    -0.320 N 
ATOM      3  C   UNL     1      -2.988  -7.593   1.748  0.00  0.00    +0.097 A 
ATOM      4  C   UNL     1      -1.972  -8.508   1.489  0.00  0.00    +0.045 A 
ATOM      5  C   UNL     1      -1.973  -9.721   2.153  0.00  0.00    -0.046 A 
ATOM      6  C   UNL     1      -2.994  -9.979   3.059  0.00  0.00    +0.021 A 
ATOM      7  C   UNL     1      -3.970  -9.026   3.268  0.00  0.00    +0.084 A 
ATOM      8  N   UNL     1      -3.941  -7.875   2.623  0.00  0.00    -0.350 N 
ATOM      9  C   UNL     1      -0.891 -10.739   1.900  0.00  0.00    +0.044 C 
ATOM     10  H   UNL     1      -3.670  -5.706   1.308  0.00  0.00    +0.148 HD
ATOM     11  H   UNL     1      -4.637  -7.221   2.792  0.00  0.00    +0.166 HD
ENDBRANCH   1   2
BRANCH   1  12
ATOM     12  C   UNL     1      -2.382  -6.781  -1.224  0.00  0.00    +0.009 A 
ATOM     13  C   UNL     1      -1.428  -7.429  -1.986  0.00  0.00    -0.033 A 
ATOM     14  C   UNL     1      -1.808  -8.045  -3.132  0.00  0.00    -0.008 A 
ATOM     15  S   UNL     1      -3.562  -7.718  -3.167  0.00  0.00    -0.078 S 
ATOM     16  C   UNL     1      -3.677  -6.786  -1.648  0.00  0.00    +0.078 A 
ATOM     17  C   UNL     1      -0.966  -8.808  -4.122  0.00  0.00    +0.052 C 
ATOM     18  C   UNL     1       0.014  -7.452  -1.549  0.00  0.00    +0.045 C 
BRANCH  16  19
ATOM     19  N   UNL     1      -4.800  -6.210  -1.052  0.00  0.00    -0.273 N 
ATOM     20  C   UNL     1      -5.991  -6.247  -1.682  0.00  0.00    +0.284 C 
ATOM     21  O   UNL     1      -6.108  -6.861  -2.727  0.00  0.00    -0.266 OA
ATOM     22  H   UNL     1      -4.724  -5.784  -0.184  0.00  0.00    +0.156 HD
BRANCH  20  23
ATOM     23  C   UNL     1      -7.145  -5.547  -1.110  0.00  0.00    +0.189 A 
ATOM     24  C   UNL     1      -8.423  -5.581  -1.590  0.00  0.00    +0.054 A 
ATOM     25  C   UNL     1      -9.195  -4.774  -0.739  0.00  0.00    +0.042 A 
ATOM     26  C   UNL     1      -8.366  -4.290   0.210  0.00  0.00    +0.196 A 
ATOM     27  O   UNL     1      -7.132  -4.761  -0.013  0.00  0.00    -0.458 OA
ENDBRANCH  20  23
ENDBRANCH  16  19
ENDBRANCH   1  12
BRANCH   1  31
ATOM     28  C   UNL     1      -1.803  -1.870  -0.614  0.00  0.00    +0.121 A 
ATOM     29  C   UNL     1      -0.648  -2.636  -0.669  0.00  0.00    +0.046 A 
ATOM     30  C   UNL     1      -0.713  -3.998  -0.451  0.00  0.00    +0.009 A 
ATOM     31  C   UNL     1      -1.929  -4.599  -0.179  0.00  0.00    -0.023 A 
ATOM     32  C   UNL     1      -3.082  -3.837  -0.124  0.00  0.00    +0.009 A 
ATOM     33  C   UNL     1      -3.021  -2.474  -0.335  0.00  0.00    +0.046 A 
BRANCH  28  34
ATOM     34  O   UNL     1      -1.741  -0.529  -0.827  0.00  0.00    -0.492 OA
BRANCH  34  36
ATOM     35  C   UNL     1      -0.583   1.535  -1.318  0.00  0.00    +0.048 C 
ATOM     36  C   UNL     1      -0.454   0.025  -1.109  0.00  0.00    +0.225 C 
ENDBRANCH  34  36
ENDBRANCH  28  34
ENDBRANCH   1  31
TORSDOF 7
