REMARK  Name = ZINC40149342
REMARK  9 active torsions:
REMARK  status: ('A' for Active; 'I' for Inactive)
REMARK    1  A    between atoms: C_1  and  C_2
REMARK    2  A    between atoms: C_2  and  C_3
REMARK    3  A    between atoms: C_2  and  N_4
REMARK    4  A    between atoms: N_4  and  S_5
REMARK    5  A    between atoms: S_5  and  C_8
REMARK    6  A    between atoms: C_11  and  N_17
REMARK    7  A    between atoms: C_12  and  N_14
REMARK    8  A    between atoms: C_20  and  C_23
REMARK    9  A    between atoms: C_23  and  N_24
REMARK                            x       y       z     vdW  Elec       q    Type
REMARK                         _______ _______ _______ _____ _____    ______ ____
ROOT
ATOM      1  N   UNL     1       1.084  -5.237  -3.848  0.00  0.00    -0.328 N 
ATOM      2  C   UNL     1       0.698  -5.853  -5.125  0.00  0.00    +0.105 C 
ATOM      3  C   UNL     1       0.736  -7.377  -4.969  0.00  0.00    +0.024 C 
ATOM      4  C   UNL     1       2.116  -7.799  -4.459  0.00  0.00    +0.010 C 
ATOM      5  C   UNL     1       2.371  -7.166  -3.089  0.00  0.00    +0.024 C 
ATOM      6  C   UNL     1       2.354  -5.636  -3.227  0.00  0.00    +0.105 C 
ENDROOT
BRANCH   1  10
ATOM      7  C   UNL     1      -1.366  -2.402  -2.033  0.00  0.00    +0.108 A 
ATOM      8  C   UNL     1      -1.585  -3.748  -1.807  0.00  0.00    +0.030 A 
ATOM      9  C   UNL     1      -0.774  -4.691  -2.408  0.00  0.00    +0.027 A 
ATOM     10  C   UNL     1       0.262  -4.286  -3.239  0.00  0.00    +0.060 A 
ATOM     11  C   UNL     1       0.479  -2.933  -3.464  0.00  0.00    +0.149 A 
ATOM     12  C   UNL     1      -0.339  -1.995  -2.864  0.00  0.00    +0.063 A 
BRANCH   7  13
ATOM     13  S   UNL     1      -2.403  -1.202  -1.265  0.00  0.00    +0.059 S 
ATOM     14  O   UNL     1      -1.654   0.005  -1.208  0.00  0.00    -0.153 OA
ATOM     15  O   UNL     1      -2.946  -1.817  -0.105  0.00  0.00    -0.153 OA
BRANCH  13  16
ATOM     16  N   UNL     1      -3.672  -0.923  -2.291  0.00  0.00    -0.187 NA
ATOM     17  H   UNL     1      -3.784  -0.050  -2.699  0.00  0.00    +0.148 HD
BRANCH  16  19
ATOM     18  C   UNL     1      -5.832  -1.874  -1.648  0.00  0.00    +0.025 C 
ATOM     19  C   UNL     1      -4.627  -1.995  -2.584  0.00  0.00    +0.070 C 
ATOM     20  C   UNL     1      -5.095  -1.879  -4.036  0.00  0.00    +0.025 C 
ENDBRANCH  16  19
ENDBRANCH  13  16
ENDBRANCH   7  13
BRANCH  11  21
ATOM     21  N   UNL     1       1.583  -2.496  -4.348  0.00  0.00    +0.058 N 
ATOM     22  O   UNL     1       1.835  -1.319  -4.465  0.00  0.00    -0.126 OA
ATOM     23  O   UNL     1       2.232  -3.316  -4.954  0.00  0.00    -0.126 OA
ENDBRANCH  11  21
ENDBRANCH   1  10
BRANCH   4  24
ATOM     24  C   UNL     1       2.170  -9.323  -4.335  0.00  0.00    +0.120 C 
BRANCH  24  25
ATOM     25  N   UNL     1       3.525  -9.735  -3.962  0.00  0.00    -0.234 N 
ATOM     26  C   UNL     1       4.502 -10.022  -4.841  0.00  0.00    +0.254 C 
ATOM     27  O   UNL     1       4.402  -9.981  -6.051  0.00  0.00    -0.270 OA
ATOM     28  C   UNL     1       5.718 -10.395  -4.089  0.00  0.00    +0.049 A 
ATOM     29  C   UNL     1       7.000 -10.778  -4.449  0.00  0.00    +0.014 A 
ATOM     30  C   UNL     1       7.933 -11.068  -3.466  0.00  0.00    +0.001 A 
ATOM     31  C   UNL     1       7.593 -10.977  -2.129  0.00  0.00    +0.001 A 
ATOM     32  C   UNL     1       6.315 -10.595  -1.754  0.00  0.00    +0.014 A 
ATOM     33  C   UNL     1       5.372 -10.303  -2.726  0.00  0.00    +0.049 A 
ATOM     34  C   UNL     1       3.958  -9.872  -2.696  0.00  0.00    +0.254 C 
ATOM     35  O   UNL     1       3.298  -9.675  -1.696  0.00  0.00    -0.270 OA
ENDBRANCH  24  25
ENDBRANCH   4  24
TORSDOF 7
