REMARK  Name = ZINC14119605
REMARK  12 active torsions:
REMARK  status: ('A' for Active; 'I' for Inactive)
REMARK    1  A    between atoms: C_1  and  C_2
REMARK    2  A    between atoms: C_2  and  C_3
REMARK    3  A    between atoms: C_3  and  C_4
REMARK    4  A    between atoms: C_4  and  N_5
REMARK    5  A    between atoms: N_14  and  C_34
REMARK    6  A    between atoms: C_15  and  C_17
REMARK    7  A    between atoms: C_17  and  C_18
REMARK    8  A    between atoms: C_18  and  C_19
REMARK    9  A    between atoms: N_27  and  C_28
REMARK   10  A    between atoms: C_34  and  C_35
REMARK   11  A    between atoms: C_35  and  C_36
REMARK   12  A    between atoms: C_35  and  C_37
REMARK                            x       y       z     vdW  Elec       q    Type
REMARK                         _______ _______ _______ _____ _____    ______ ____
ROOT
ATOM      1  N   UNL     1       2.456   1.322   5.079  0.00  0.00    -0.277 N 
ATOM      2  C   UNL     1       1.470   1.115   4.128  0.00  0.00    +0.168 A 
ATOM      3  C   UNL     1       0.712  -0.047   4.190  0.00  0.00    +0.151 A 
ATOM      4  C   UNL     1       0.966  -0.981   5.218  0.00  0.00    +0.280 A 
ATOM      5  O   UNL     1       0.314  -2.007   5.294  0.00  0.00    -0.265 OA
ATOM      6  N   UNL     1       1.940  -0.723   6.116  0.00  0.00    -0.273 N 
ATOM      7  H   UNL     1       2.123  -1.381   6.846  0.00  0.00    +0.173 HD
ATOM      8  C   UNL     1       2.667   0.406   6.043  0.00  0.00    +0.331 A 
ATOM      9  O   UNL     1       3.537   0.604   6.870  0.00  0.00    -0.246 OA
ATOM     10  N   UNL     1      -0.181   0.017   3.139  0.00  0.00    -0.322 N 
ATOM     11  C   UNL     1       0.061   1.172   2.487  0.00  0.00    +0.113 A 
ATOM     12  N   UNL     1       1.035   1.816   3.078  0.00  0.00    -0.214 NA
ENDROOT
BRANCH   1  13
ATOM     13  C   UNL     1       3.270   2.539   5.036  0.00  0.00    +0.128 C 
BRANCH  13  14
ATOM     14  C   UNL     1       2.597   3.633   5.867  0.00  0.00    +0.021 C 
BRANCH  14  16
ATOM     15  C   UNL     1       2.774   5.998   6.652  0.00  0.00    +0.004 C 
ATOM     16  C   UNL     1       3.448   4.904   5.822  0.00  0.00    -0.002 C 
ENDBRANCH  14  16
ENDBRANCH  13  14
ENDBRANCH   1  13
BRANCH  11  17
ATOM     17  C   UNL     1      -0.681   1.651   1.266  0.00  0.00    +0.084 C 
BRANCH  17  18
ATOM     18  C   UNL     1       0.025   1.142   0.008  0.00  0.00    +0.107 C 
BRANCH  18  19
ATOM     19  C   UNL     1      -0.717   1.621  -1.213  0.00  0.00    +0.233 C 
ATOM     20  O   UNL     1      -1.712   2.302  -1.089  0.00  0.00    -0.272 OA
ATOM     21  N   UNL     1      -0.275   1.293  -2.443  0.00  0.00    -0.272 N 
ATOM     22  C   UNL     1       0.854   0.527  -2.582  0.00  0.00    +0.096 A 
ATOM     23  C   UNL     1       1.306   0.185  -3.804  0.00  0.00    +0.018 A 
ATOM     24  C   UNL     1       0.634   0.619  -4.962  0.00  0.00    +0.005 A 
ATOM     25  C   UNL     1      -0.483   1.382  -4.849  0.00  0.00    +0.046 A 
ATOM     26  C   UNL     1      -0.956   1.733  -3.561  0.00  0.00    +0.135 A 
ATOM     27  N   UNL     1      -2.035   2.471  -3.431  0.00  0.00    -0.263 NA
BRANCH  27  28
ATOM     28  C   UNL     1      -2.678   3.045  -4.616  0.00  0.00    +0.108 C 
ATOM     29  C   UNL     1      -2.578   4.570  -4.561  0.00  0.00    +0.027 C 
ATOM     30  C   UNL     1      -3.249   5.170  -5.799  0.00  0.00    +0.002 C 
ATOM     31  C   UNL     1      -4.721   4.756  -5.832  0.00  0.00    +0.000 C 
ATOM     32  C   UNL     1      -4.821   3.230  -5.886  0.00  0.00    +0.002 C 
ATOM     33  C   UNL     1      -4.150   2.631  -4.649  0.00  0.00    +0.027 C 
ENDBRANCH  27  28
ENDBRANCH  18  19
ENDBRANCH  17  18
ENDBRANCH  11  17
BRANCH  10  34
ATOM     34  C   UNL     1      -1.196  -0.981   2.794  0.00  0.00    +0.126 C 
BRANCH  34  35
ATOM     35  C   UNL     1      -0.597  -2.006   1.829  0.00  0.00    +0.003 C 
ATOM     36  C   UNL     1       0.514  -2.785   2.537  0.00  0.00    +0.009 C 
ATOM     37  C   UNL     1      -1.688  -2.976   1.373  0.00  0.00    +0.009 C 
ENDBRANCH  34  35
ENDBRANCH  10  34
TORSDOF 9
