REMARK  Name = ZINC63258808
REMARK  7 active torsions:
REMARK  status: ('A' for Active; 'I' for Inactive)
REMARK    1  A    between atoms: C_1  and  C_2
REMARK    2  A    between atoms: C_3  and  C_36
REMARK    3  A    between atoms: C_11  and  C_13
REMARK    4  A    between atoms: C_13  and  S_14
REMARK    5  A    between atoms: S_14  and  C_15
REMARK    6  A    between atoms: C_18  and  C_27
REMARK    7  A    between atoms: N_19  and  C_20
REMARK                            x       y       z     vdW  Elec       q    Type
REMARK                         _______ _______ _______ _____ _____    ______ ____
ROOT
ATOM      1  C   UNL     1       0.134  -6.118   5.400  0.00  0.00    +0.197 A 
ATOM      2  N   UNL     1       0.133  -5.665   6.645  0.00  0.00    -0.122 NA
ATOM      3  N   UNL     1       0.155  -6.647   7.474  0.00  0.00    -0.128 NA
ATOM      4  C   UNL     1       0.172  -7.794   6.810  0.00  0.00    +0.168 A 
ATOM      5  N   UNL     1       0.153  -7.480   5.460  0.00  0.00    -0.270 N 
ENDROOT
BRANCH   4   6
ATOM      6  C   UNL     1       0.198  -9.082   7.367  0.00  0.00    +0.025 C 
ATOM      7  C   UNL     1       0.205  -9.415   8.722  0.00  0.00    +0.006 A 
ATOM      8  C   UNL     1       0.190  -8.631   9.896  0.00  0.00    +0.010 A 
ATOM      9  C   UNL     1       0.202  -9.238  11.110  0.00  0.00    +0.001 A 
ATOM     10  C   UNL     1       0.230 -10.629  11.233  0.00  0.00    +0.002 A 
ATOM     11  C   UNL     1       0.246 -11.443  10.148  0.00  0.00    +0.026 A 
ATOM     12  C   UNL     1       0.234 -10.881   8.845  0.00  0.00    +0.043 A 
ATOM     13  N   UNL     1       0.245 -11.444   7.653  0.00  0.00    -0.380 N 
ATOM     14  C   UNL     1       0.217 -10.400   6.624  0.00  0.00    +0.152 C 
ATOM     15  H   UNL     1       0.264 -12.399   7.483  0.00  0.00    +0.160 HD
ENDBRANCH   4   6
BRANCH   5  16
ATOM     16  C   UNL     1       0.156  -8.375   4.382  0.00  0.00    +0.051 A 
ATOM     17  C   UNL     1      -0.926  -9.220   4.177  0.00  0.00    +0.028 A 
ATOM     18  C   UNL     1      -0.921 -10.102   3.114  0.00  0.00    +0.022 A 
ATOM     19  C   UNL     1       0.162 -10.143   2.253  0.00  0.00    +0.041 A 
ATOM     20  C   UNL     1       1.242  -9.301   2.455  0.00  0.00    +0.022 A 
ATOM     21  C   UNL     1       1.239  -8.414   3.514  0.00  0.00    +0.028 A 
ATOM     22 CL   UNL     1       0.166 -11.252   0.918  0.00  0.00    -0.084 Cl
ENDBRANCH   5  16
BRANCH   1  23
ATOM     23  S   UNL     1       0.108  -5.139   3.935  0.00  0.00    -0.078 S 
BRANCH  23  24
ATOM     24  C   UNL     1       0.090  -3.432   4.547  0.00  0.00    +0.151 C 
BRANCH  24  35
ATOM     25  C   UNL     1      -0.018   1.503   0.010  0.00  0.00    +0.045 C 
ATOM     26  C   UNL     1       0.002  -0.004   0.002  0.00  0.00    -0.026 A 
ATOM     27  C   UNL     1       0.006  -0.677  -1.160  0.00  0.00    -0.008 A 
ATOM     28  S   UNL     1       0.032  -2.385  -0.648  0.00  0.00    -0.073 S 
ATOM     29  C   UNL     1       0.037  -2.144   1.110  0.00  0.00    +0.116 A 
ATOM     30  C   UNL     1       0.024  -0.745   1.250  0.00  0.00    +0.075 A 
ATOM     31  C   UNL     1       0.029  -0.257   2.597  0.00  0.00    +0.260 A 
ATOM     32  O   UNL     1       0.014   0.942   2.821  0.00  0.00    -0.267 OA
ATOM     33  N   UNL     1       0.051  -1.142   3.611  0.00  0.00    -0.310 N 
ATOM     34  H   UNL     1       0.054  -0.817   4.525  0.00  0.00    +0.170 HD
ATOM     35  C   UNL     1       0.067  -2.480   3.380  0.00  0.00    +0.121 A 
ATOM     36  N   UNL     1       0.053  -2.956   2.163  0.00  0.00    -0.226 NA
ATOM     37  C   UNL     1      -0.009  -0.122  -2.561  0.00  0.00    +0.052 C 
ENDBRANCH  24  35
ENDBRANCH  23  24
ENDBRANCH   1  23
TORSDOF 5
