REMARK  Name = ZINC11996470
REMARK  8 active torsions:
REMARK  status: ('A' for Active; 'I' for Inactive)
REMARK    1  A    between atoms: C_1  and  O_2
REMARK    2  A    between atoms: O_2  and  C_3
REMARK    3  A    between atoms: C_8  and  C_9
REMARK    4  A    between atoms: C_9  and  N_63
REMARK    5  A    between atoms: C_21  and  N_27
REMARK    6  A    between atoms: C_23  and  O_25
REMARK    7  A    between atoms: O_25  and  C_26
REMARK    8  A    between atoms: C_28  and  C_30
REMARK                            x       y       z     vdW  Elec       q    Type
REMARK                         _______ _______ _______ _____ _____    ______ ____
ROOT
ATOM      1  C   UNL     1      -0.443   7.535   0.998  0.00  0.00    -0.077 C 
ATOM      2  C   UNL     1      -0.705   6.027   1.034  0.00  0.00    -0.005 C 
ATOM      3  C   UNL     1       0.208   5.333   0.028  0.00  0.00    +0.021 C 
ATOM      4  C   UNL     1      -0.004   5.915  -1.367  0.00  0.00    -0.005 C 
ATOM      5  C   UNL     1       0.236   7.426  -1.327  0.00  0.00    -0.077 C 
ATOM      6  C   UNL     1      -0.047   3.845   0.022  0.00  0.00    -0.034 A 
ATOM      7  C   UNL     1      -1.235   3.132   0.030  0.00  0.00    +0.004 A 
ATOM      8  C   UNL     1      -1.219   1.752   0.017  0.00  0.00    +0.000 A 
ATOM      9  C   UNL     1      -0.013   1.076   0.008  0.00  0.00    +0.000 A 
ATOM     10  C   UNL     1       1.173   1.784   0.000  0.00  0.00    +0.006 A 
ATOM     11  C   UNL     1       1.160   3.168   0.008  0.00  0.00    -0.021 A 
ATOM     12  C   UNL     1       2.303   4.160   0.001  0.00  0.00    +0.133 C 
ATOM     13  C   UNL     1       1.679   5.500   0.449  0.00  0.00    +0.153 C 
ATOM     14  N   UNL     1      -0.710   8.036  -0.368  0.00  0.00    +0.383 N 
ATOM     15  H   UNL     1      -1.667   7.777  -0.635  0.00  0.00    -0.081 HD
ENDROOT
BRANCH  12  16
ATOM     16  N   UNL     1       2.860   4.285  -1.349  0.00  0.00    -0.299 N 
ATOM     17  C   UNL     1       3.817   3.432  -1.764  0.00  0.00    +0.280 C 
ATOM     18  O   UNL     1       4.219   2.558  -1.018  0.00  0.00    -0.267 OA
ATOM     19  H   UNL     1       2.540   4.981  -1.943  0.00  0.00    +0.150 HD
BRANCH  17  20
ATOM     20  C   UNL     1       4.375   3.557  -3.115  0.00  0.00    +0.189 A 
ATOM     21  C   UNL     1       5.347   2.767  -3.658  0.00  0.00    +0.054 A 
ATOM     22  C   UNL     1       5.569   3.238  -4.961  0.00  0.00    +0.042 A 
ATOM     23  C   UNL     1       4.738   4.287  -5.151  0.00  0.00    +0.196 A 
ATOM     24  O   UNL     1       4.020   4.476  -4.037  0.00  0.00    -0.458 OA
ENDBRANCH  17  20
ENDBRANCH  12  16
BRANCH  13  25
ATOM     25  O   UNL     1       1.788   5.663   1.864  0.00  0.00    -0.377 OA
ATOM     26  C   UNL     1       2.970   6.349   2.282  0.00  0.00    +0.194 C 
ENDBRANCH  13  25
BRANCH  14  27
ATOM     27  C   UNL     1      -0.584   9.507  -0.399  0.00  0.00    -0.039 C 
BRANCH  27  33
ATOM     28  C   UNL     1      -1.784  10.062  -2.529  0.00  0.00    +0.121 A 
ATOM     29  C   UNL     1      -1.786  10.496  -3.848  0.00  0.00    +0.046 A 
ATOM     30  C   UNL     1      -0.595  10.825  -4.466  0.00  0.00    +0.004 A 
ATOM     31  C   UNL     1       0.596  10.729  -3.771  0.00  0.00    +0.000 A 
ATOM     32  C   UNL     1       0.600  10.303  -2.456  0.00  0.00    +0.005 A 
ATOM     33  C   UNL     1      -0.588   9.972  -1.833  0.00  0.00    -0.022 A 
BRANCH  28  35
ATOM     34  C   UNL     1      -4.146   9.849  -2.699  0.00  0.00    +0.277 C 
ATOM     35  O   UNL     1      -2.953   9.732  -1.920  0.00  0.00    -0.495 OA
ENDBRANCH  28  35
ENDBRANCH  27  33
ENDBRANCH  14  27
TORSDOF 6
