REMARK  Name = ZINC35912000
REMARK  9 active torsions:
REMARK  status: ('A' for Active; 'I' for Inactive)
REMARK    1  A    between atoms: C_1  and  C_2
REMARK    2  A    between atoms: C_6  and  N_9
REMARK    3  A    between atoms: C_7  and  C_8
REMARK    4  A    between atoms: C_10  and  C_35
REMARK    5  A    between atoms: C_12  and  C_14
REMARK    6  A    between atoms: C_15  and  C_34
REMARK    7  A    between atoms: C_21  and  C_24
REMARK    8  A    between atoms: C_24  and  C_25
REMARK    9  A    between atoms: N_27  and  C_28
REMARK                            x       y       z     vdW  Elec       q    Type
REMARK                         _______ _______ _______ _____ _____    ______ ____
ROOT
ATOM      1  C   UNL     1       0.256  -3.098   6.102  0.00  0.00    +0.088 A 
ATOM      2  C   UNL     1       0.628  -1.869   6.636  0.00  0.00    +0.055 A 
ATOM      3  N   UNL     1       0.938  -1.801   7.926  0.00  0.00    -0.227 NA
ATOM      4  C   UNL     1       0.898  -2.864   8.692  0.00  0.00    +0.180 A 
ATOM      5  N   UNL     1       0.545  -4.113   8.257  0.00  0.00    -0.258 N 
ATOM      6  C   UNL     1       0.212  -4.229   6.936  0.00  0.00    +0.268 A 
ATOM      7  O   UNL     1      -0.117  -5.312   6.481  0.00  0.00    -0.266 OA
ATOM      8  C   UNL     1       0.555  -5.121   9.191  0.00  0.00    +0.044 A 
ATOM      9  C   UNL     1       0.895  -4.882  10.457  0.00  0.00    +0.071 A 
ATOM     10  S   UNL     1       1.241  -3.131  10.419  0.00  0.00    -0.057 S 
ATOM     11  C   UNL     1       0.679  -0.638   5.769  0.00  0.00    +0.066 C 
ENDROOT
BRANCH   1  15
ATOM     12  N   UNL     1      -0.520  -2.748   2.558  0.00  0.00    -0.236 N 
ATOM     13  C   UNL     1      -0.688  -4.089   2.702  0.00  0.00    +0.042 A 
ATOM     14  C   UNL     1      -0.434  -4.403   3.991  0.00  0.00    +0.053 A 
ATOM     15  C   UNL     1      -0.097  -3.213   4.668  0.00  0.00    +0.100 A 
ATOM     16  N   UNL     1      -0.145  -2.223   3.801  0.00  0.00    -0.166 NA
ATOM     17  C   UNL     1      -1.087  -5.055   1.616  0.00  0.00    +0.066 C 
BRANCH  12  23
ATOM     18  C   UNL     1       1.263   0.426  -0.748  0.00  0.00    +0.044 C 
ATOM     19  C   UNL     1       0.161  -0.474  -0.252  0.00  0.00    -0.046 A 
ATOM     20  C   UNL     1      -1.018  -0.582  -0.968  0.00  0.00    +0.004 A 
ATOM     21  C   UNL     1      -2.032  -1.407  -0.516  0.00  0.00    +0.002 A 
ATOM     22  C   UNL     1      -1.870  -2.127   0.652  0.00  0.00    +0.028 A 
ATOM     23  C   UNL     1      -0.688  -2.021   1.373  0.00  0.00    +0.069 A 
ATOM     24  C   UNL     1       0.331  -1.195   0.914  0.00  0.00    -0.022 A 
ATOM     25  C   UNL     1       1.618  -1.082   1.689  0.00  0.00    +0.046 C 
ENDBRANCH  12  23
ENDBRANCH   1  15
BRANCH   8  26
ATOM     26  C   UNL     1       0.177  -6.520   8.776  0.00  0.00    +0.150 C 
BRANCH  26  27
ATOM     27  C   UNL     1      -1.321  -6.673   8.833  0.00  0.00    +0.219 C 
ATOM     28  O   UNL     1      -2.013  -5.738   9.177  0.00  0.00    -0.275 OA
ATOM     29  N   UNL     1      -1.892  -7.848   8.503  0.00  0.00    -0.312 N 
ATOM     30  H   UNL     1      -1.339  -8.595   8.228  0.00  0.00    +0.149 HD
BRANCH  29  31
ATOM     31  C   UNL     1      -3.349  -7.996   8.558  0.00  0.00    +0.073 C 
ATOM     32  C   UNL     1      -3.770  -8.360   9.983  0.00  0.00    +0.022 C 
ATOM     33  C   UNL     1      -5.291  -8.515  10.041  0.00  0.00    +0.002 C 
ATOM     34  C   UNL     1      -5.728  -9.623   9.082  0.00  0.00    +0.000 C 
ATOM     35  C   UNL     1      -5.306  -9.260   7.657  0.00  0.00    +0.002 C 
ATOM     36  C   UNL     1      -3.785  -9.105   7.599  0.00  0.00    +0.022 C 
ENDBRANCH  29  31
ENDBRANCH  26  27
ENDBRANCH   8  26
TORSDOF 5
