REMARK  Name = ZINC44813961
REMARK  6 active torsions:
REMARK  status: ('A' for Active; 'I' for Inactive)
REMARK    1  A    between atoms: C_4  and  C_7
REMARK    2  A    between atoms: C_7  and  C_8
REMARK    3  A    between atoms: C_14  and  C_16
REMARK    4  A    between atoms: N_21  and  C_23
REMARK    5  A    between atoms: C_23  and  C_24
REMARK    6  A    between atoms: C_26  and  C_29
REMARK                            x       y       z     vdW  Elec       q    Type
REMARK                         _______ _______ _______ _____ _____    ______ ____
ROOT
ATOM      1  C   UNL     1       6.766  -4.279   4.074  0.00  0.00    +0.059 C 
ATOM      2  C   UNL     1       7.139  -4.455   2.599  0.00  0.00    +0.009 C 
ATOM      3  C   UNL     1       8.538  -5.069   2.506  0.00  0.00    -0.018 C 
ATOM      4  C   UNL     1       8.559  -6.394   3.271  0.00  0.00    -0.078 C 
ATOM      5  N   UNL     1       8.220  -6.155   4.679  0.00  0.00    +0.386 N 
ATOM      6  C   UNL     1       6.853  -5.632   4.782  0.00  0.00    -0.065 C 
ATOM      7  H   UNL     1       8.866  -5.485   5.070  0.00  0.00    -0.081 HD
ENDROOT
BRANCH   1  14
ATOM      8  C   UNL     1       4.726   0.259   4.838  0.00  0.00    -0.004 C 
ATOM      9  C   UNL     1       6.112  -0.382   4.944  0.00  0.00    +0.023 C 
ATOM     10  C   UNL     1       6.244  -1.481   3.885  0.00  0.00    +0.108 C 
ATOM     11  N   UNL     1       5.129  -2.425   4.041  0.00  0.00    -0.301 N 
ATOM     12  C   UNL     1       3.756  -1.901   4.044  0.00  0.00    +0.108 C 
ATOM     13  C   UNL     1       3.651  -0.798   5.101  0.00  0.00    +0.023 C 
ATOM     14  C   UNL     1       5.360  -3.745   4.177  0.00  0.00    +0.217 C 
ATOM     15  O   UNL     1       4.438  -4.505   4.384  0.00  0.00    -0.275 OA
BRANCH   8  16
ATOM     16  C   UNL     1       4.603   1.380   5.871  0.00  0.00    +0.038 C 
BRANCH  16  20
ATOM     17  C   UNL     1       7.370   4.496   4.932  0.00  0.00    +0.000 A 
ATOM     18  C   UNL     1       6.092   4.525   4.406  0.00  0.00    +0.000 A 
ATOM     19  C   UNL     1       5.197   3.516   4.709  0.00  0.00    +0.003 A 
ATOM     20  C   UNL     1       5.579   2.479   5.539  0.00  0.00    -0.047 A 
ATOM     21  C   UNL     1       6.857   2.450   6.065  0.00  0.00    +0.003 A 
ATOM     22  C   UNL     1       7.752   3.459   5.763  0.00  0.00    +0.000 A 
ENDBRANCH  16  20
ENDBRANCH   8  16
ENDBRANCH   1  14
BRANCH   5  23
ATOM     23  C   UNL     1       8.318  -7.417   5.426  0.00  0.00    +0.022 C 
BRANCH  23  24
ATOM     24  C   UNL     1       9.749  -7.887   5.433  0.00  0.00    +0.211 A 
ATOM     25  N   UNL     1      10.644  -7.588   6.332  0.00  0.00    -0.193 NA
ATOM     26  C   UNL     1      11.815  -8.177   6.030  0.00  0.00    +0.202 A 
ATOM     27  N   UNL     1      11.665  -8.863   4.923  0.00  0.00    -0.056 NA
ATOM     28  O   UNL     1      10.315  -8.688   4.521  0.00  0.00    -0.340 OA
BRANCH  26  29
ATOM     29  C   UNL     1      13.067  -8.069   6.819  0.00  0.00    +0.023 A 
ATOM     30  C   UNL     1      13.094  -7.309   7.987  0.00  0.00    +0.012 A 
ATOM     31  C   UNL     1      14.261  -7.212   8.717  0.00  0.00    +0.002 A 
ATOM     32  C   UNL     1      15.403  -7.867   8.292  0.00  0.00    +0.015 A 
ATOM     33  C   UNL     1      15.382  -8.622   7.133  0.00  0.00    +0.019 A 
ATOM     34  C   UNL     1      14.218  -8.732   6.398  0.00  0.00    +0.027 A 
ATOM     35 BR   UNL     1      16.948  -9.513   6.559  0.00  0.00    -0.050 Br
ENDBRANCH  26  29
ENDBRANCH  23  24
ENDBRANCH   5  23
TORSDOF 6
