REMARK  Name = ZINC12414070
REMARK  8 active torsions:
REMARK  status: ('A' for Active; 'I' for Inactive)
REMARK    1  A    between atoms: C_1  and  N_2
REMARK    2  A    between atoms: N_2  and  C_3
REMARK    3  A    between atoms: N_2  and  N_4
REMARK    4  A    between atoms: C_5  and  C_26
REMARK    5  A    between atoms: C_6  and  O_16
REMARK    6  A    between atoms: N_9  and  C_10
REMARK    7  A    between atoms: O_16  and  C_17
REMARK    8  A    between atoms: C_20  and  N_23
REMARK                            x       y       z     vdW  Elec       q    Type
REMARK                         _______ _______ _______ _____ _____    ______ ____
ROOT
ATOM      1  N   UNL     1       3.595   1.733  -0.210  0.00  0.00    -0.237 N 
ATOM      2  C   UNL     1       2.431   1.106  -0.148  0.00  0.00    +0.120 A 
ATOM      3  C   UNL     1       2.470  -0.371  -0.135  0.00  0.00    +0.195 A 
ATOM      4  S   UNL     1       4.176  -0.686  -0.204  0.00  0.00    -0.012 S 
ATOM      5  C   UNL     1       4.755   1.000  -0.247  0.00  0.00    +0.173 A 
ATOM      6  N   UNL     1       5.994   1.437  -0.304  0.00  0.00    -0.334 N 
ATOM      7  H   UNL     1       6.201   2.516  -0.241  0.00  0.00    +0.168 HD
ENDROOT
BRANCH   6   8
ATOM      8  C   UNL     1       7.013   0.561  -0.439  0.00  0.00    +0.041 A 
ATOM      9  C   UNL     1       7.573  -0.052   0.693  0.00  0.00    +0.025 A 
ATOM     10  C   UNL     1       8.608  -0.949   0.545  0.00  0.00    +0.002 A 
ATOM     11  C   UNL     1       9.105  -1.237  -0.717  0.00  0.00    +0.000 A 
ATOM     12  C   UNL     1       8.562  -0.633  -1.840  0.00  0.00    +0.002 A 
ATOM     13  C   UNL     1       7.523   0.261  -1.712  0.00  0.00    +0.025 A 
ENDBRANCH   6   8
BRANCH   2  14
ATOM     14  C   UNL     1       1.165   1.840  -0.103  0.00  0.00    +0.004 A 
ATOM     15  C   UNL     1       0.067   1.314   0.599  0.00  0.00    +0.010 A 
ATOM     16  C   UNL     1      -1.120   2.010   0.632  0.00  0.00    +0.001 A 
ATOM     17  C   UNL     1      -1.232   3.231  -0.015  0.00  0.00    +0.000 A 
ATOM     18  C   UNL     1      -0.154   3.759  -0.710  0.00  0.00    +0.001 A 
ATOM     19  C   UNL     1       1.040   3.076  -0.760  0.00  0.00    +0.010 A 
ENDBRANCH   2  14
BRANCH   1  21
ATOM     20  C   UNL     1       3.879   3.638   1.113  0.00  0.00    +0.150 C 
ATOM     21  N   UNL     1       3.641   3.098  -0.232  0.00  0.00    -0.275 N 
ATOM     22  C   UNL     1       4.658   3.575  -1.178  0.00  0.00    +0.150 C 
ENDBRANCH   1  21
BRANCH   3  23
ATOM     23  O   UNL     1       1.450  -1.244  -0.082  0.00  0.00    -0.447 OA
BRANCH  23  24
ATOM     24  C   UNL     1       0.931  -1.657  -1.267  0.00  0.00    +0.129 A 
ATOM     25  C   UNL     1       1.451  -1.175  -2.460  0.00  0.00    +0.048 A 
ATOM     26  C   UNL     1       0.925  -1.601  -3.664  0.00  0.00    +0.036 A 
ATOM     27  C   UNL     1      -0.127  -2.500  -3.681  0.00  0.00    +0.126 A 
ATOM     28  C   UNL     1      -0.650  -2.978  -2.493  0.00  0.00    +0.036 A 
ATOM     29  C   UNL     1      -0.124  -2.559  -1.287  0.00  0.00    +0.048 A 
BRANCH  27  30
ATOM     30  N   UNL     1      -0.692  -2.951  -4.972  0.00  0.00    +0.056 N 
ATOM     31  O   UNL     1      -1.693  -3.806  -4.989  0.00  0.00    -0.126 OA
ATOM     32  O   UNL     1      -0.195  -2.496  -6.103  0.00  0.00    -0.126 OA
ENDBRANCH  27  30
ENDBRANCH  23  24
ENDBRANCH   3  23
TORSDOF 6
