REMARK  Name = ZINC22524151
REMARK  7 active torsions:
REMARK  status: ('A' for Active; 'I' for Inactive)
REMARK    1  A    between atoms: C_1  and  C_2
REMARK    2  A    between atoms: N_6  and  C_7
REMARK    3  A    between atoms: C_10  and  C_13
REMARK    4  A    between atoms: C_13  and  N_14
REMARK    5  A    between atoms: C_15  and  C_17
REMARK    6  A    between atoms: N_20  and  S_28
REMARK    7  A    between atoms: S_28  and  C_31
REMARK                            x       y       z     vdW  Elec       q    Type
REMARK                         _______ _______ _______ _____ _____    ______ ____
ROOT
ATOM      1  C   UNL     1      -4.606   5.010  -2.975  0.00  0.00    +0.277 C 
ATOM      2  C   UNL     1      -3.630   5.976  -3.663  0.00  0.00    +0.186 C 
ATOM      3  N   UNL     1      -4.139   6.229  -5.022  0.00  0.00    -0.195 N 
ATOM      4  C   UNL     1      -5.520   6.429  -5.175  0.00  0.00    +0.093 A 
ATOM      5  C   UNL     1      -6.020   6.944  -6.361  0.00  0.00    +0.028 A 
ATOM      6  C   UNL     1      -7.382   7.132  -6.509  0.00  0.00    +0.002 A 
ATOM      7  C   UNL     1      -8.243   6.807  -5.478  0.00  0.00    +0.004 A 
ATOM      8  C   UNL     1      -7.749   6.295  -4.293  0.00  0.00    +0.047 A 
ATOM      9  C   UNL     1      -6.385   6.103  -4.134  0.00  0.00    +0.144 A 
ATOM     10  O   UNL     1      -5.907   5.601  -2.964  0.00  0.00    -0.476 OA
ENDROOT
BRANCH   1  12
ATOM     11  N   UNL     1      -2.993   4.112  -1.328  0.00  0.00    -0.308 N 
ATOM     12  C   UNL     1      -4.153   4.758  -1.560  0.00  0.00    +0.256 C 
ATOM     13  O   UNL     1      -4.833   5.137  -0.630  0.00  0.00    -0.272 OA
ATOM     14  H   UNL     1      -2.377   3.768  -2.172  0.00  0.00    +0.149 HD
BRANCH  11  15
ATOM     15  C   UNL     1      -2.554   3.867   0.047  0.00  0.00    +0.139 C 
BRANCH  15  19
ATOM     16  C   UNL     1       1.180   1.787   0.000  0.00  0.00    +0.048 A 
ATOM     17  C   UNL     1      -0.013   1.076   0.008  0.00  0.00    +0.026 A 
ATOM     18  C   UNL     1      -1.218   1.751   0.017  0.00  0.00    +0.007 A 
ATOM     19  C   UNL     1      -1.237   3.133   0.031  0.00  0.00    -0.030 A 
ATOM     20  C   UNL     1      -0.051   3.844   0.023  0.00  0.00    +0.007 A 
ATOM     21  C   UNL     1       1.157   3.175   0.008  0.00  0.00    +0.026 A 
BRANCH  16  27
ATOM     22  C   UNL     1       3.475   2.356  -1.962  0.00  0.00    +0.084 C 
ATOM     23  C   UNL     1       3.442   1.325  -0.863  0.00  0.00    +0.088 A 
ATOM     24  N   UNL     1       4.406   0.498  -0.566  0.00  0.00    -0.350 N 
ATOM     25  C   UNL     1       4.026  -0.277   0.461  0.00  0.00    +0.102 A 
ATOM     26  C   UNL     1       2.779   0.084   0.821  0.00  0.00    +0.110 A 
ATOM     27  N   UNL     1       2.405   1.104  -0.015  0.00  0.00    -0.305 N 
ATOM     28  H   UNL     1       5.346   0.520  -1.136  0.00  0.00    +0.166 HD
ENDBRANCH  16  27
ENDBRANCH  15  19
ENDBRANCH  11  15
ENDBRANCH   1  12
BRANCH   3  29
ATOM     29  S   UNL     1      -3.117   6.277  -6.324  0.00  0.00    +0.075 S 
ATOM     30  O   UNL     1      -1.969   5.519  -5.968  0.00  0.00    -0.150 OA
ATOM     31  O   UNL     1      -3.903   5.977  -7.469  0.00  0.00    -0.150 OA
BRANCH  29  32
ATOM     32  C   UNL     1      -2.581   7.946  -6.505  0.00  0.00    +0.109 A 
ATOM     33  C   UNL     1      -3.298   8.819  -7.302  0.00  0.00    +0.030 A 
ATOM     34  C   UNL     1      -2.882  10.130  -7.439  0.00  0.00    +0.022 A 
ATOM     35  C   UNL     1      -1.741  10.565  -6.788  0.00  0.00    +0.041 A 
ATOM     36  C   UNL     1      -1.021   9.690  -5.995  0.00  0.00    +0.022 A 
ATOM     37  C   UNL     1      -1.442   8.381  -5.854  0.00  0.00    +0.030 A 
ATOM     38 CL   UNL     1      -1.214  12.210  -6.966  0.00  0.00    -0.084 Cl
ENDBRANCH  29  32
ENDBRANCH   3  29
TORSDOF 6
