REMARK  Name = ZINC35755418
REMARK  10 active torsions:
REMARK  status: ('A' for Active; 'I' for Inactive)
REMARK    1  A    between atoms: C_1  and  C_2
REMARK    2  A    between atoms: C_5  and  C_8
REMARK    3  A    between atoms: C_8  and  N_9
REMARK    4  A    between atoms: C_10  and  C_29
REMARK    5  A    between atoms: C_12  and  C_17
REMARK    6  A    between atoms: C_21  and  N_23
REMARK    7  A    between atoms: C_24  and  C_26
REMARK    8  A    between atoms: C_26  and  C_27
REMARK    9  A    between atoms: C_26  and  C_28
REMARK   10  A    between atoms: N_31  and  C_32
REMARK                            x       y       z     vdW  Elec       q    Type
REMARK                         _______ _______ _______ _____ _____    ______ ____
ROOT
ATOM      1  N   UNL     1       1.197  -6.104  -0.303  0.00  0.00    -0.248 N 
ATOM      2  C   UNL     1       2.136  -5.715  -1.374  0.00  0.00    +0.211 C 
ATOM      3  C   UNL     1       3.502  -6.126  -0.776  0.00  0.00    +0.238 C 
ATOM      4  O   UNL     1       3.230  -6.102   0.639  0.00  0.00    -0.440 OA
ATOM      5  C   UNL     1       1.915  -6.319   0.814  0.00  0.00    +0.405 C 
ATOM      6  O   UNL     1       1.428  -6.676   1.869  0.00  0.00    -0.226 OA
ENDROOT
BRANCH   3   7
ATOM      7  C   UNL     1       4.570  -5.125  -1.136  0.00  0.00    -0.003 A 
ATOM      8  C   UNL     1       4.745  -3.993  -0.360  0.00  0.00    +0.007 A 
ATOM      9  C   UNL     1       5.724  -3.073  -0.687  0.00  0.00    +0.002 A 
ATOM     10  C   UNL     1       6.530  -3.281  -1.789  0.00  0.00    +0.023 A 
ATOM     11  C   UNL     1       6.356  -4.417  -2.570  0.00  0.00    +0.034 A 
ATOM     12  C   UNL     1       5.376  -5.342  -2.236  0.00  0.00    +0.030 A 
BRANCH  11  13
ATOM     13  N   UNL     1       7.171  -4.630  -3.687  0.00  0.00    -0.285 N 
ATOM     14  C   UNL     1       8.451  -4.210  -3.678  0.00  0.00    +0.220 C 
ATOM     15  O   UNL     1       8.925  -3.730  -2.670  0.00  0.00    -0.275 OA
ATOM     16  H   UNL     1       6.814  -5.081  -4.468  0.00  0.00    +0.155 HD
BRANCH  14  17
ATOM     17  C   UNL     1       9.294  -4.335  -4.921  0.00  0.00    +0.069 C 
ATOM     18  C   UNL     1       8.651  -3.537  -6.056  0.00  0.00    +0.017 C 
ATOM     19  C   UNL     1      10.696  -3.788  -4.644  0.00  0.00    +0.017 C 
ENDBRANCH  14  17
ENDBRANCH  11  13
ENDBRANCH   3   7
BRANCH   2  20
ATOM     20  C   UNL     1       2.079  -4.230  -1.625  0.00  0.00    +0.242 C 
ATOM     21  O   UNL     1       1.604  -3.492  -0.788  0.00  0.00    -0.273 OA
ATOM     22  N   UNL     1       2.557  -3.723  -2.779  0.00  0.00    -0.284 N 
ATOM     23  H   UNL     1       2.869  -4.318  -3.478  0.00  0.00    +0.155 HD
BRANCH  22  24
ATOM     24  C   UNL     1       2.602  -2.337  -2.968  0.00  0.00    +0.036 A 
ATOM     25  C   UNL     1       2.416  -1.802  -4.236  0.00  0.00    +0.023 A 
ATOM     26  C   UNL     1       2.460  -0.434  -4.421  0.00  0.00    +0.005 A 
ATOM     27  C   UNL     1       2.690   0.404  -3.345  0.00  0.00    +0.038 A 
ATOM     28  C   UNL     1       2.875  -0.126  -2.079  0.00  0.00    +0.125 A 
ATOM     29  C   UNL     1       2.826  -1.495  -1.887  0.00  0.00    +0.061 A 
ATOM     30  F   UNL     1       3.100   0.696  -1.030  0.00  0.00    -0.205 F 
ENDBRANCH  22  24
ENDBRANCH   2  20
BRANCH   1  31
ATOM     31  C   UNL     1      -0.257  -6.226  -0.433  0.00  0.00    +0.147 C 
BRANCH  31  36
ATOM     32  C   UNL     1      -2.737  -1.148   0.774  0.00  0.00    +0.044 C 
ATOM     33  C   UNL     1      -2.090  -2.472   0.459  0.00  0.00    -0.050 A 
ATOM     34  C   UNL     1      -1.716  -2.768  -0.839  0.00  0.00    +0.003 A 
ATOM     35  C   UNL     1      -1.123  -3.983  -1.127  0.00  0.00    +0.005 A 
ATOM     36  C   UNL     1      -0.903  -4.902  -0.118  0.00  0.00    -0.030 A 
ATOM     37  C   UNL     1      -1.276  -4.605   1.180  0.00  0.00    +0.005 A 
ATOM     38  C   UNL     1      -1.865  -3.389   1.469  0.00  0.00    +0.003 A 
ENDBRANCH  31  36
ENDBRANCH   1  31
TORSDOF 7
