REMARK  Name = ZINC40986488
REMARK  10 active torsions:
REMARK  status: ('A' for Active; 'I' for Inactive)
REMARK    1  A    between atoms: C_1  and  C_2
REMARK    2  A    between atoms: C_2  and  C_3
REMARK    3  A    between atoms: C_2  and  C_4
REMARK    4  A    between atoms: C_2  and  C_5
REMARK    5  A    between atoms: C_8  and  C_11
REMARK    6  A    between atoms: C_11  and  C_13
REMARK    7  A    between atoms: C_11  and  N_30
REMARK    8  A    between atoms: C_13  and  N_14
REMARK    9  A    between atoms: C_15  and  C_17
REMARK   10  A    between atoms: C_19  and  C_22
REMARK                            x       y       z     vdW  Elec       q    Type
REMARK                         _______ _______ _______ _____ _____    ______ ____
ROOT
ATOM      1  C   UNL     1       3.524  -3.157  -4.515  0.00  0.00    +0.094 C 
ENDROOT
BRANCH   1   2
ATOM      2  N   UNL     1       2.640  -4.199  -3.988  0.00  0.00    -0.311 N 
ATOM      3  C   UNL     1       3.151  -5.388  -3.610  0.00  0.00    +0.266 C 
ATOM      4  O   UNL     1       4.344  -5.595  -3.706  0.00  0.00    -0.268 OA
ATOM      5  H   UNL     1       1.687  -4.035  -3.911  0.00  0.00    +0.149 HD
BRANCH   3   6
ATOM      6  C   UNL     1       2.256  -6.444  -3.076  0.00  0.00    +0.168 A 
ATOM      7  C   UNL     1       2.654  -7.726  -2.639  0.00  0.00    +0.086 A 
ATOM      8  C   UNL     1       1.542  -8.390  -2.224  0.00  0.00    +0.168 A 
ATOM      9  O   UNL     1       0.485  -7.572  -2.388  0.00  0.00    -0.354 OA
ATOM     10  N   UNL     1       0.957  -6.348  -2.921  0.00  0.00    -0.073 NA
BRANCH   8  11
ATOM     11  C   UNL     1       1.500  -9.767  -1.688  0.00  0.00    +0.023 A 
ATOM     12  C   UNL     1       2.678 -10.506  -1.566  0.00  0.00    +0.014 A 
ATOM     13  C   UNL     1       2.635 -11.790  -1.065  0.00  0.00    +0.042 A 
ATOM     14  C   UNL     1       1.426 -12.349  -0.684  0.00  0.00    +0.158 A 
ATOM     15  C   UNL     1       0.251 -11.619  -0.803  0.00  0.00    +0.159 A 
ATOM     16  C   UNL     1       0.285 -10.330  -1.298  0.00  0.00    +0.053 A 
ATOM     17  F   UNL     1      -0.925 -12.168  -0.430  0.00  0.00    -0.202 F 
ATOM     18  F   UNL     1       1.390 -13.607  -0.195  0.00  0.00    -0.202 F 
ENDBRANCH   8  11
ENDBRANCH   3   6
ENDBRANCH   1   2
BRANCH   1  19
ATOM     19  C   UNL     1       2.721  -1.874  -4.740  0.00  0.00    -0.020 C 
BRANCH  19  23
ATOM     20  C   UNL     1       1.357  -0.371  -0.982  0.00  0.00    -0.042 A 
ATOM     21  C   UNL     1       0.498  -1.091  -1.791  0.00  0.00    +0.004 A 
ATOM     22  C   UNL     1       0.939  -1.577  -3.008  0.00  0.00    +0.002 A 
ATOM     23  C   UNL     1       2.240  -1.343  -3.415  0.00  0.00    -0.059 A 
ATOM     24  C   UNL     1       3.098  -0.623  -2.605  0.00  0.00    +0.002 A 
ATOM     25  C   UNL     1       2.656  -0.133  -1.391  0.00  0.00    +0.004 A 
BRANCH  20  27
ATOM     26  C   UNL     1       0.994   1.684   0.357  0.00  0.00    +0.015 C 
ATOM     27  C   UNL     1       0.876   0.159   0.344  0.00  0.00    -0.013 C 
ATOM     28  C   UNL     1       1.731  -0.429   1.469  0.00  0.00    +0.015 C 
ATOM     29  C   UNL     1      -0.586  -0.242   0.553  0.00  0.00    +0.015 C 
ENDBRANCH  20  27
ENDBRANCH  19  23
BRANCH  19  30
ATOM     30  N   UNL     1       3.575  -0.870  -5.389  0.00  0.00    +0.385 N 
ATOM     31  C   UNL     1       3.996  -1.345  -6.732  0.00  0.00    -0.078 C 
ATOM     32  C   UNL     1       4.366  -0.036  -7.472  0.00  0.00    -0.020 C 
ATOM     33  C   UNL     1       3.305   0.964  -6.957  0.00  0.00    -0.020 C 
ATOM     34  C   UNL     1       2.811   0.375  -5.623  0.00  0.00    -0.078 C 
ATOM     35  H   UNL     1       4.384  -0.679  -4.817  0.00  0.00    -0.081 HD
ENDBRANCH  19  30
ENDBRANCH   1  19
TORSDOF 7
