REMARK  Name = ZINC09120399
REMARK  6 active torsions:
REMARK  status: ('A' for Active; 'I' for Inactive)
REMARK    1  A    between atoms: N_9  and  C_12
REMARK    2  A    between atoms: C_15  and  C_18
REMARK    3  A    between atoms: N_20  and  C_21
REMARK    4  A    between atoms: C_21  and  C_22
REMARK    5  A    between atoms: C_22  and  C_24
REMARK    6  A    between atoms: C_22  and  N_58
REMARK                            x       y       z     vdW  Elec       q    Type
REMARK                         _______ _______ _______ _____ _____    ______ ____
ROOT
ATOM      1  C   UNL     1      -3.292   0.212   1.712  0.00  0.00    +0.244 C 
ATOM      2  O   UNL     1      -4.062  -0.366   0.969  0.00  0.00    -0.270 OA
ATOM      3  N   UNL     1      -1.990   0.318   1.384  0.00  0.00    -0.312 N 
ATOM      4  H   UNL     1      -1.376   0.779   1.978  0.00  0.00    +0.149 HD
ENDROOT
BRANCH   1   8
ATOM      5  C   UNL     1      -4.711   1.896   5.344  0.00  0.00    +0.045 A 
ATOM      6  C   UNL     1      -5.593   1.236   4.495  0.00  0.00    +0.025 A 
ATOM      7  C   UNL     1      -5.136   0.689   3.317  0.00  0.00    +0.015 A 
ATOM      8  C   UNL     1      -3.786   0.798   2.975  0.00  0.00    +0.037 A 
ATOM      9  C   UNL     1      -2.902   1.457   3.833  0.00  0.00    +0.015 A 
ATOM     10  C   UNL     1      -3.366   2.006   5.007  0.00  0.00    +0.025 A 
BRANCH   5  19
ATOM     11  C   UNL     1      -6.070   4.488  10.601  0.00  0.00    +0.001 A 
ATOM     12  C   UNL     1      -7.346   4.046  10.307  0.00  0.00    +0.001 A 
ATOM     13  C   UNL     1      -7.596   3.348   9.137  0.00  0.00    +0.014 A 
ATOM     14  C   UNL     1      -6.558   3.091   8.255  0.00  0.00    +0.050 A 
ATOM     15  C   UNL     1      -5.256   3.541   8.555  0.00  0.00    +0.050 A 
ATOM     16  C   UNL     1      -5.021   4.238   9.729  0.00  0.00    +0.014 A 
ATOM     17  C   UNL     1      -4.408   3.106   7.426  0.00  0.00    +0.258 C 
ATOM     18  O   UNL     1      -3.215   3.308   7.316  0.00  0.00    -0.269 OA
ATOM     19  N   UNL     1      -5.178   2.450   6.539  0.00  0.00    -0.202 N 
ATOM     20  C   UNL     1      -6.457   2.403   6.951  0.00  0.00    +0.258 C 
ATOM     21  O   UNL     1      -7.376   1.880   6.353  0.00  0.00    -0.269 OA
ENDBRANCH   5  19
ENDBRANCH   1   8
BRANCH   3  22
ATOM     22  C   UNL     1      -1.500  -0.263   0.132  0.00  0.00    +0.097 C 
BRANCH  22  23
ATOM     23  C   UNL     1       0.002  -0.004   0.002  0.00  0.00    +0.016 C 
BRANCH  23  29
ATOM     24  C   UNL     1      -0.497   2.193  -0.883  0.00  0.00    -0.078 C 
ATOM     25  C   UNL     1      -0.316   3.693  -0.637  0.00  0.00    -0.019 C 
ATOM     26  C   UNL     1       1.172   4.044  -0.726  0.00  0.00    -0.004 C 
ATOM     27  C   UNL     1       1.947   3.207   0.296  0.00  0.00    -0.019 C 
ATOM     28  C   UNL     1       1.700   1.721   0.024  0.00  0.00    -0.078 C 
ATOM     29  N   UNL     1       0.253   1.445   0.148  0.00  0.00    +0.387 N 
ATOM     30  H   UNL     1      -0.065   1.746   1.076  0.00  0.00    -0.081 HD
ENDBRANCH  23  29
BRANCH  23  31
ATOM     31  C   UNL     1       0.482  -0.493  -1.340  0.00  0.00    +0.093 A 
ATOM     32  C   UNL     1       1.239  -1.583  -1.556  0.00  0.00    +0.043 A 
ATOM     33  C   UNL     1       1.450  -1.667  -2.951  0.00  0.00    +0.041 A 
ATOM     34  C   UNL     1       0.816  -0.617  -3.505  0.00  0.00    +0.195 A 
ATOM     35  O   UNL     1       0.231   0.090  -2.524  0.00  0.00    -0.469 OA
ENDBRANCH  23  31
ENDBRANCH  22  23
ENDBRANCH   3  22
TORSDOF 6
