REMARK  Name = ZINC39357250
REMARK  6 active torsions:
REMARK  status: ('A' for Active; 'I' for Inactive)
REMARK    1  A    between atoms: C_4  and  N_7
REMARK    2  A    between atoms: C_8  and  C_27
REMARK    3  A    between atoms: C_12  and  S_13
REMARK    4  A    between atoms: S_13  and  C_14
REMARK    5  A    between atoms: C_14  and  C_15
REMARK    6  A    between atoms: C_27  and  N_28
REMARK                            x       y       z     vdW  Elec       q    Type
REMARK                         _______ _______ _______ _____ _____    ______ ____
ROOT
ATOM      1  N   UNL     1       3.485  -0.749  -0.194  0.00  0.00    -0.257 N 
ATOM      2  C   UNL     1       3.865  -2.151   0.053  0.00  0.00    +0.196 C 
ATOM      3  N   UNL     1       5.335  -2.112   0.127  0.00  0.00    -0.245 N 
ATOM      4  N   UNL     1       5.700  -0.774  -0.069  0.00  0.00    -0.162 NA
ATOM      5  C   UNL     1       4.667  -0.024  -0.252  0.00  0.00    +0.180 C 
ATOM      6  H   UNL     1       5.931  -2.862   0.281  0.00  0.00    +0.170 HD
ENDROOT
BRANCH   1  10
ATOM      7  C   UNL     1      -0.377   0.742  -0.647  0.00  0.00    +0.000 A 
ATOM      8  C   UNL     1       0.697   1.611  -0.599  0.00  0.00    +0.002 A 
ATOM      9  C   UNL     1       1.979   1.120  -0.449  0.00  0.00    +0.023 A 
ATOM     10  C   UNL     1       2.189  -0.249  -0.345  0.00  0.00    +0.038 A 
ATOM     11  C   UNL     1       1.108  -1.120  -0.393  0.00  0.00    +0.023 A 
ATOM     12  C   UNL     1      -0.171  -0.622  -0.544  0.00  0.00    +0.002 A 
ENDBRANCH   1  10
BRANCH   5  13
ATOM     13  S   UNL     1       4.745   1.713  -0.536  0.00  0.00    -0.081 S 
BRANCH  13  14
ATOM     14  C   UNL     1       6.521   2.083  -0.504  0.00  0.00    +0.151 C 
BRANCH  14  15
ATOM     15  C   UNL     1       6.731   3.557  -0.737  0.00  0.00    +0.121 A 
ATOM     16  N   UNL     1       8.004   4.031  -0.754  0.00  0.00    -0.310 N 
ATOM     17  H   UNL     1       8.746   3.422  -0.618  0.00  0.00    +0.170 HD
ATOM     18  C   UNL     1       8.246   5.347  -0.961  0.00  0.00    +0.259 A 
ATOM     19  O   UNL     1       9.382   5.785  -0.979  0.00  0.00    -0.267 OA
ATOM     20  C   UNL     1       7.085   6.226  -1.162  0.00  0.00    +0.065 A 
ATOM     21  C   UNL     1       7.225   7.595  -1.381  0.00  0.00    +0.015 A 
ATOM     22  C   UNL     1       6.102   8.371  -1.563  0.00  0.00    +0.001 A 
ATOM     23  C   UNL     1       4.836   7.802  -1.529  0.00  0.00    +0.002 A 
ATOM     24  C   UNL     1       4.676   6.452  -1.313  0.00  0.00    +0.028 A 
ATOM     25  C   UNL     1       5.799   5.643  -1.127  0.00  0.00    +0.078 A 
ATOM     26  N   UNL     1       5.687   4.307  -0.917  0.00  0.00    -0.233 NA
ENDBRANCH  14  15
ENDBRANCH  13  14
ENDBRANCH   5  13
BRANCH   2  27
ATOM     27  C   UNL     1       3.271  -2.643   1.374  0.00  0.00    +0.128 C 
BRANCH  27  28
ATOM     28  N   UNL     1       3.888  -1.915   2.490  0.00  0.00    -0.295 NA
ATOM     29  C   UNL     1       3.747  -2.662   3.749  0.00  0.00    +0.112 C 
ATOM     30  C   UNL     1       4.454  -1.897   4.871  0.00  0.00    +0.175 C 
ATOM     31  O   UNL     1       3.909  -0.578   4.960  0.00  0.00    -0.377 OA
ATOM     32  C   UNL     1       4.029   0.177   3.752  0.00  0.00    +0.175 C 
ATOM     33  C   UNL     1       3.318  -0.566   2.618  0.00  0.00    +0.112 C 
ENDBRANCH  27  28
ENDBRANCH   2  27
TORSDOF 6
