REMARK  Name = ZINC00639811
REMARK  11 active torsions:
REMARK  status: ('A' for Active; 'I' for Inactive)
REMARK    1  A    between atoms: C_1  and  C_2
REMARK    2  A    between atoms: C_2  and  O_3
REMARK    3  A    between atoms: O_3  and  C_4
REMARK    4  A    between atoms: C_4  and  C_6
REMARK    5  A    between atoms: C_7  and  C_30
REMARK    6  A    between atoms: C_8  and  C_29
REMARK    7  A    between atoms: C_10  and  N_11
REMARK    8  A    between atoms: C_12  and  C_14
REMARK    9  A    between atoms: C_14  and  C_15
REMARK   10  A    between atoms: C_22  and  C_28
REMARK   11  A    between atoms: C_23  and  C_27
REMARK                            x       y       z     vdW  Elec       q    Type
REMARK                         _______ _______ _______ _____ _____    ______ ____
ROOT
ATOM      1  N   UNL     1      -0.597  -2.461  -3.936  0.00  0.00    -0.279 N 
ATOM      2  C   UNL     1      -1.105  -2.790  -5.140  0.00  0.00    +0.220 C 
ATOM      3  O   UNL     1      -0.378  -3.232  -6.005  0.00  0.00    -0.275 OA
ATOM      4  H   UNL     1      -1.178  -2.108  -3.245  0.00  0.00    +0.155 HD
ENDROOT
BRANCH   1   9
ATOM      5  C   UNL     1       1.449  -2.344  -2.516  0.00  0.00    +0.091 A 
ATOM      6  C   UNL     1       2.868  -2.621  -2.523  0.00  0.00    -0.025 A 
ATOM      7  C   UNL     1       3.363  -3.119  -3.671  0.00  0.00    -0.008 A 
ATOM      8  S   UNL     1       1.934  -3.213  -4.727  0.00  0.00    -0.078 S 
ATOM      9  C   UNL     1       0.756  -2.627  -3.686  0.00  0.00    +0.086 A 
ATOM     10  C   UNL     1       4.785  -3.503  -3.986  0.00  0.00    +0.052 C 
ATOM     11  C   UNL     1       3.739  -2.366  -1.320  0.00  0.00    +0.045 C 
BRANCH   5  12
ATOM     12  C   UNL     1       0.776  -1.800  -1.335  0.00  0.00    +0.342 C 
ATOM     13  O   UNL     1       0.312  -2.552  -0.499  0.00  0.00    -0.245 OA
BRANCH  12  14
ATOM     14  O   UNL     1       0.671  -0.465  -1.174  0.00  0.00    -0.461 OA
BRANCH  14  16
ATOM     15  C   UNL     1      -0.019   1.526   0.010  0.00  0.00    +0.048 C 
ATOM     16  C   UNL     1       0.002  -0.004   0.002  0.00  0.00    +0.229 C 
ENDBRANCH  14  16
ENDBRANCH  12  14
ENDBRANCH   5  12
ENDBRANCH   1   9
BRANCH   2  17
ATOM     17  C   UNL     1      -2.576  -2.610  -5.413  0.00  0.00    +0.127 C 
BRANCH  17  18
ATOM     18  C   UNL     1      -2.888  -3.056  -6.842  0.00  0.00    +0.166 C 
ATOM     19  C   UNL     1      -4.334  -2.766  -7.156  0.00  0.00    +0.238 C 
ATOM     20  O   UNL     1      -4.639  -1.704  -7.655  0.00  0.00    -0.273 OA
ATOM     21  N   UNL     1      -5.291  -3.675  -6.890  0.00  0.00    -0.282 N 
ATOM     22  C   UNL     1      -4.957  -4.960  -6.448  0.00  0.00    +0.055 A 
ATOM     23  C   UNL     1      -5.937  -5.823  -5.984  0.00  0.00    +0.028 A 
ATOM     24  C   UNL     1      -5.589  -7.087  -5.543  0.00  0.00    -0.046 A 
ATOM     25  C   UNL     1      -4.268  -7.495  -5.562  0.00  0.00    -0.046 A 
ATOM     26  C   UNL     1      -3.284  -6.641  -6.027  0.00  0.00    +0.028 A 
ATOM     27  C   UNL     1      -3.626  -5.377  -6.474  0.00  0.00    +0.049 A 
ATOM     28  N   UNL     1      -2.648  -4.500  -6.971  0.00  0.00    -0.331 N 
ATOM     29  C   UNL     1      -3.900  -8.873  -5.075  0.00  0.00    +0.044 C 
ATOM     30  C   UNL     1      -6.656  -8.024  -5.039  0.00  0.00    +0.044 C 
ATOM     31  H   UNL     1      -6.223  -3.435  -7.005  0.00  0.00    +0.155 HD
ATOM     32  H   UNL     1      -1.839  -4.837  -7.388  0.00  0.00    +0.147 HD
ENDBRANCH  17  18
ENDBRANCH   2  17
TORSDOF 6
