REMARK  Name = ZINC20207459
REMARK  12 active torsions:
REMARK  status: ('A' for Active; 'I' for Inactive)
REMARK    1  A    between atoms: C_1  and  C_2
REMARK    2  A    between atoms: C_4  and  C_18
REMARK    3  A    between atoms: C_5  and  C_17
REMARK    4  A    between atoms: N_6  and  C_7
REMARK    5  A    between atoms: C_9  and  O_15
REMARK    6  A    between atoms: C_12  and  O_13
REMARK    7  A    between atoms: O_13  and  C_14
REMARK    8  A    between atoms: O_15  and  C_16
REMARK    9  A    between atoms: C_29  and  S_30
REMARK   10  A    between atoms: S_30  and  C_33
REMARK   11  A    between atoms: C_33  and  C_34
REMARK   12  A    between atoms: C_33  and  C_35
REMARK                            x       y       z     vdW  Elec       q    Type
REMARK                         _______ _______ _______ _____ _____    ______ ____
ROOT
ATOM      1  C   UNL     1      -0.325  -4.417  -0.456  0.00  0.00    +0.026 C 
ATOM      2  C   UNL     1      -0.675  -3.937  -1.702  0.00  0.00    +0.078 C 
ATOM      3  C   UNL     1      -0.625  -4.797  -2.918  0.00  0.00    +0.117 C 
ATOM      4  N   UNL     1      -0.864  -6.082  -2.900  0.00  0.00    -0.386 N 
ATOM      5  N   UNL     1      -0.296  -4.085  -4.088  0.00  0.00    -0.203 N 
ATOM      6  C   UNL     1      -0.536  -2.727  -4.119  0.00  0.00    +0.183 C 
ATOM      7  N   UNL     1      -0.956  -1.983  -3.121  0.00  0.00    -0.152 NA
ATOM      8  C   UNL     1      -1.126  -2.540  -1.904  0.00  0.00    +0.273 C 
ATOM      9  O   UNL     1      -1.634  -1.909  -0.991  0.00  0.00    -0.268 OA
ATOM     10  S   UNL     1      -0.145  -2.307  -5.684  0.00  0.00    +0.049 S 
ATOM     11  N   UNL     1       0.405  -3.791  -6.235  0.00  0.00    -0.174 NA
ATOM     12  C   UNL     1       0.235  -4.589  -5.227  0.00  0.00    +0.257 C 
ATOM     13  H   UNL     1      -1.003  -6.538  -2.056  0.00  0.00    +0.157 HD
ATOM     14  H   UNL     1      -0.901  -6.580  -3.732  0.00  0.00    +0.157 HD
ENDROOT
BRANCH   1  18
ATOM     15  C   UNL     1       0.605  -0.303   2.326  0.00  0.00    +0.064 C 
ATOM     16  C   UNL     1       0.205  -1.684   1.873  0.00  0.00    +0.022 A 
ATOM     17  C   UNL     1       0.276  -2.140   0.611  0.00  0.00    +0.031 A 
ATOM     18  C   UNL     1      -0.214  -3.525   0.642  0.00  0.00    -0.003 A 
ATOM     19  C   UNL     1      -0.546  -3.781   1.962  0.00  0.00    +0.028 A 
ATOM     20  N   UNL     1      -0.284  -2.672   2.682  0.00  0.00    -0.314 N 
ATOM     21  C   UNL     1      -1.097  -5.076   2.501  0.00  0.00    +0.064 C 
BRANCH  20  22
ATOM     22  C   UNL     1      -0.486  -2.548   4.064  0.00  0.00    +0.092 A 
ATOM     23  C   UNL     1      -1.707  -2.103   4.550  0.00  0.00    +0.075 A 
ATOM     24  C   UNL     1      -1.904  -1.982   5.917  0.00  0.00    +0.122 A 
ATOM     25  C   UNL     1      -0.882  -2.305   6.798  0.00  0.00    +0.049 A 
ATOM     26  C   UNL     1       0.335  -2.748   6.316  0.00  0.00    +0.051 A 
ATOM     27  C   UNL     1       0.536  -2.877   4.951  0.00  0.00    +0.144 A 
BRANCH  27  28
ATOM     28  O   UNL     1       1.732  -3.318   4.478  0.00  0.00    -0.493 OA
ATOM     29  C   UNL     1       2.734  -3.638   5.445  0.00  0.00    +0.277 C 
ENDBRANCH  27  28
BRANCH  24  30
ATOM     30  O   UNL     1      -3.100  -1.546   6.394  0.00  0.00    -0.495 OA
ATOM     31  C   UNL     1      -3.235  -1.444   7.813  0.00  0.00    +0.277 C 
ENDBRANCH  24  30
ENDBRANCH  20  22
ENDBRANCH   1  18
BRANCH  12  32
ATOM     32  S   UNL     1       0.686  -6.288  -5.336  0.00  0.00    +0.031 S 
ATOM     33  O   UNL     1       1.278  -6.588  -4.079  0.00  0.00    -0.166 OA
ATOM     34  O   UNL     1      -0.498  -6.952  -5.756  0.00  0.00    -0.166 OA
BRANCH  32  35
ATOM     35  C   UNL     1       1.938  -6.355  -6.647  0.00  0.00    +0.133 C 
ATOM     36  C   UNL     1       2.543  -7.760  -6.704  0.00  0.00    +0.032 C 
ATOM     37  C   UNL     1       1.287  -6.026  -7.992  0.00  0.00    +0.032 C 
ENDBRANCH  32  35
ENDBRANCH  12  32
TORSDOF 6
