REMARK  Name = ZINC36595767
REMARK  18 active torsions:
REMARK  status: ('A' for Active; 'I' for Inactive)
REMARK    1  A    between atoms: C_1  and  C_2
REMARK    2  A    between atoms: C_5  and  C_7
REMARK    3  A    between atoms: C_7  and  N_8
REMARK    4  A    between atoms: N_8  and  C_9
REMARK    5  A    between atoms: C_9  and  C_11
REMARK    6  A    between atoms: C_9  and  C_20
REMARK    7  A    between atoms: C_12  and  O_19
REMARK    8  A    between atoms: C_14  and  O_18
REMARK    9  A    between atoms: C_16  and  O_17
REMARK   10  A    between atoms: N_22  and  C_23
REMARK   11  A    between atoms: C_23  and  C_24
REMARK   12  A    between atoms: C_23  and  C_25
REMARK   13  A    between atoms: C_23  and  C_26
REMARK   14  A    between atoms: C_26  and  C_27
REMARK   15  A    between atoms: C_27  and  C_28
REMARK   16  A    between atoms: C_27  and  C_29
REMARK   17  A    between atoms: C_27  and  C_30
REMARK   18  A    between atoms: C_31  and  C_33
REMARK                            x       y       z     vdW  Elec       q    Type
REMARK                         _______ _______ _______ _____ _____    ______ ____
ROOT
ATOM      1  C   UNL     1       2.012  -2.919  -2.383  0.00  0.00    +0.200 C 
ENDROOT
BRANCH   1   2
ATOM      2  C   UNL     1       2.354  -4.372  -2.589  0.00  0.00    +0.065 A 
ATOM      3  C   UNL     1       3.555  -4.723  -3.187  0.00  0.00    +0.129 A 
ATOM      4  C   UNL     1       3.870  -6.061  -3.377  0.00  0.00    +0.091 A 
ATOM      5  C   UNL     1       2.985  -7.046  -2.967  0.00  0.00    +0.124 A 
ATOM      6  C   UNL     1       1.784  -6.695  -2.368  0.00  0.00    +0.091 A 
ATOM      7  C   UNL     1       1.471  -5.358  -2.175  0.00  0.00    +0.129 A 
BRANCH   7   8
ATOM      8  O   UNL     1       0.297  -5.013  -1.583  0.00  0.00    -0.506 OA
ATOM      9  H   UNL     1      -0.461  -5.016  -2.183  0.00  0.00    +0.292 HD
ENDBRANCH   7   8
BRANCH   5  10
ATOM     10  O   UNL     1       3.293  -8.357  -3.154  0.00  0.00    -0.507 OA
ATOM     11  H   UNL     1       3.772  -8.757  -2.415  0.00  0.00    +0.292 HD
ENDBRANCH   5  10
BRANCH   3  12
ATOM     12  O   UNL     1       4.423  -3.757  -3.588  0.00  0.00    -0.506 OA
ATOM     13  H   UNL     1       5.111  -3.553  -2.940  0.00  0.00    +0.292 HD
ENDBRANCH   3  12
ENDBRANCH   1   2
BRANCH   1  14
ATOM     14  C   UNL     1       1.968  -2.219  -3.717  0.00  0.00    +0.239 C 
ATOM     15  O   UNL     1       0.900  -1.973  -4.237  0.00  0.00    -0.273 OA
ATOM     16  N   UNL     1       3.114  -1.867  -4.332  0.00  0.00    -0.308 N 
ATOM     17  H   UNL     1       3.967  -2.045  -3.906  0.00  0.00    +0.149 HD
BRANCH  16  18
ATOM     18  C   UNL     1       3.072  -1.216  -5.644  0.00  0.00    +0.030 C 
ATOM     19  C   UNL     1       2.572  -2.212  -6.692  0.00  0.00    +0.031 C 
ATOM     20  C   UNL     1       2.123  -0.016  -5.587  0.00  0.00    +0.031 C 
BRANCH  18  21
ATOM     21  C   UNL     1       4.475  -0.739  -6.021  0.00  0.00    +0.031 C 
BRANCH  21  22
ATOM     22  C   UNL     1       5.102  -0.005  -4.834  0.00  0.00    -0.036 C 
ATOM     23  C   UNL     1       5.543  -1.022  -3.781  0.00  0.00    +0.010 C 
ATOM     24  C   UNL     1       6.316   0.795  -5.311  0.00  0.00    +0.010 C 
ATOM     25  C   UNL     1       4.072   0.948  -4.223  0.00  0.00    +0.010 C 
ENDBRANCH  21  22
ENDBRANCH  18  21
ENDBRANCH  16  18
ENDBRANCH   1  14
BRANCH   1  26
ATOM     26  N   UNL     1       0.704  -2.813  -1.732  0.00  0.00    -0.272 N 
ATOM     27  C   UNL     1      -0.408  -3.206  -2.385  0.00  0.00    +0.283 C 
ATOM     28  O   UNL     1      -0.316  -3.750  -3.470  0.00  0.00    -0.267 OA
BRANCH  27  29
ATOM     29  C   UNL     1      -1.728  -2.978  -1.789  0.00  0.00    +0.189 A 
ATOM     30  C   UNL     1      -2.931  -3.245  -2.377  0.00  0.00    +0.054 A 
ATOM     31  C   UNL     1      -3.922  -2.876  -1.454  0.00  0.00    +0.042 A 
ATOM     32  C   UNL     1      -3.288  -2.406  -0.357  0.00  0.00    +0.196 A 
ATOM     33  O   UNL     1      -1.966  -2.474  -0.560  0.00  0.00    -0.458 OA
ENDBRANCH  27  29
BRANCH  26  34
ATOM     34  C   UNL     1       0.604  -2.279  -0.371  0.00  0.00    +0.183 C 
BRANCH  34  39
ATOM     35  C   UNL     1       1.970   2.575  -0.459  0.00  0.00    +0.086 C 
ATOM     36  C   UNL     1       1.114   1.335  -0.464  0.00  0.00    +0.102 A 
ATOM     37  C   UNL     1      -0.229   1.307  -0.534  0.00  0.00    +0.045 A 
ATOM     38  C   UNL     1      -0.612  -0.054  -0.510  0.00  0.00    +0.046 A 
ATOM     39  C   UNL     1       0.520  -0.776  -0.426  0.00  0.00    +0.122 A 
ATOM     40  O   UNL     1       1.562   0.071  -0.404  0.00  0.00    -0.463 OA
ENDBRANCH  34  39
ENDBRANCH  26  34
ENDBRANCH   1  26
TORSDOF 12
