REMARK  Name = ZINC27538903
REMARK  6 active torsions:
REMARK  status: ('A' for Active; 'I' for Inactive)
REMARK    1  A    between atoms: C_1  and  C_2
REMARK    2  A    between atoms: C_2  and  C_4
REMARK    3  A    between atoms: C_2  and  N_18
REMARK    4  A    between atoms: N_6  and  C_7
REMARK    5  A    between atoms: C_12  and  C_13
REMARK    6  A    between atoms: C_24  and  C_26
REMARK                            x       y       z     vdW  Elec       q    Type
REMARK                         _______ _______ _______ _____ _____    ______ ____
ROOT
ATOM      1  N   UNL     1       3.811  -4.705  -0.373  0.00  0.00    +0.389 N 
ATOM      2  C   UNL     1       4.461  -4.143  -1.565  0.00  0.00    -0.058 C 
ATOM      3  C   UNL     1       5.949  -4.506  -1.550  0.00  0.00    +0.089 C 
ATOM      4  N   UNL     1       6.073  -5.965  -1.404  0.00  0.00    -0.302 N 
ATOM      5  C   UNL     1       5.337  -6.620  -0.311  0.00  0.00    +0.089 C 
ATOM      6  C   UNL     1       3.873  -6.173  -0.375  0.00  0.00    -0.058 C 
ATOM      7  C   UNL     1       6.840  -6.682  -2.248  0.00  0.00    +0.260 C 
ATOM      8  O   UNL     1       6.931  -7.884  -2.113  0.00  0.00    -0.271 OA
ATOM      9  H   UNL     1       4.363  -4.349   0.509  0.00  0.00    -0.081 HD
ENDROOT
BRANCH   7  10
ATOM     10  C   UNL     1       7.586  -5.990  -3.361  0.00  0.00    +0.296 C 
ATOM     11  C   UNL     1       8.664  -5.073  -2.768  0.00  0.00    +0.283 C 
ATOM     12  O   UNL     1       9.360  -4.443  -3.850  0.00  0.00    -0.484 OA
ATOM     13  C   UNL     1       9.745  -5.247  -4.879  0.00  0.00    +0.162 A 
ATOM     14  C   UNL     1      10.712  -4.799  -5.767  0.00  0.00    +0.049 A 
ATOM     15  C   UNL     1      11.111  -5.602  -6.819  0.00  0.00    +0.004 A 
ATOM     16  C   UNL     1      10.546  -6.852  -6.990  0.00  0.00    +0.004 A 
ATOM     17  C   UNL     1       9.583  -7.305  -6.108  0.00  0.00    +0.049 A 
ATOM     18  C   UNL     1       9.179  -6.505  -5.050  0.00  0.00    +0.163 A 
ATOM     19  O   UNL     1       8.231  -6.965  -4.188  0.00  0.00    -0.473 OA
ENDBRANCH   7  10
BRANCH   1  21
ATOM     20  C   UNL     1       1.641  -4.655  -1.507  0.00  0.00    -0.004 C 
ATOM     21  C   UNL     1       2.423  -4.237  -0.260  0.00  0.00    +0.017 C 
BRANCH  21  22
ATOM     22  C   UNL     1       2.408  -2.735  -0.138  0.00  0.00    +0.203 C 
ATOM     23  O   UNL     1       3.451  -2.116  -0.144  0.00  0.00    -0.277 OA
ATOM     24  N   UNL     1       1.236  -2.080  -0.021  0.00  0.00    -0.286 N 
ATOM     25  H   UNL     1       0.297  -2.645   0.076  0.00  0.00    +0.155 HD
BRANCH  24  26
ATOM     26  C   UNL     1       1.213  -0.681  -0.024  0.00  0.00    +0.045 A 
ATOM     27  C   UNL     1       2.236   0.030  -0.638  0.00  0.00    +0.025 A 
ATOM     28  C   UNL     1       2.211   1.411  -0.640  0.00  0.00    +0.022 A 
ATOM     29  C   UNL     1       1.168   2.086  -0.031  0.00  0.00    +0.042 A 
ATOM     30  C   UNL     1       0.147   1.380   0.582  0.00  0.00    +0.034 A 
ATOM     31  C   UNL     1       0.168  -0.001   0.586  0.00  0.00    +0.077 A 
ATOM     32 CL   UNL     1       1.139   3.822  -0.035  0.00  0.00    -0.084 Cl
BRANCH  31  33
ATOM     33  C   UNL     1      -0.944  -0.769   1.253  0.00  0.00    +0.419 C 
ATOM     34  F   UNL     1      -1.873   0.127   1.791  0.00  0.00    -0.166 F 
ATOM     35  F   UNL     1      -1.577  -1.586   0.310  0.00  0.00    -0.166 F 
ATOM     36  F   UNL     1      -0.414  -1.562   2.276  0.00  0.00    -0.166 F 
ENDBRANCH  31  33
ENDBRANCH  24  26
ENDBRANCH  21  22
ENDBRANCH   1  21
TORSDOF 5
