REMARK  Name = ZINC25182571
REMARK  5 active torsions:
REMARK  status: ('A' for Active; 'I' for Inactive)
REMARK    1  A    between atoms: C_4  and  C_7
REMARK    2  A    between atoms: N_14  and  N_33
REMARK    3  A    between atoms: C_15  and  S_17
REMARK    4  A    between atoms: S_17  and  C_18
REMARK    5  A    between atoms: C_18  and  C_19
REMARK                            x       y       z     vdW  Elec       q    Type
REMARK                         _______ _______ _______ _____ _____    ______ ____
ROOT
ATOM      1  C   UNL     1       3.698  -0.688  -0.038  0.00  0.00    +0.004 A 
ATOM      2  C   UNL     1       4.657  -0.360  -0.935  0.00  0.00    +0.056 A 
ATOM      3  S   UNL     1       5.984  -1.487  -0.553  0.00  0.00    -0.076 S 
ATOM      4  C   UNL     1       5.227  -2.366   0.790  0.00  0.00    +0.117 A 
ATOM      5  C   UNL     1       3.965  -1.760   0.915  0.00  0.00    +0.081 A 
ATOM      6  C   UNL     1       3.124  -2.278   1.948  0.00  0.00    +0.280 A 
ATOM      7  O   UNL     1       2.010  -1.817   2.127  0.00  0.00    -0.265 OA
ATOM      8  N   UNL     1       3.578  -3.282   2.721  0.00  0.00    -0.209 N 
ATOM      9  C   UNL     1       4.822  -3.811   2.535  0.00  0.00    +0.190 A 
ATOM     10  N   UNL     1       5.613  -3.358   1.583  0.00  0.00    -0.215 NA
ENDROOT
BRANCH   1  14
ATOM     11  C   UNL     1      -0.017   1.379   0.010  0.00  0.00    +0.000 A 
ATOM     12  C   UNL     1       1.169   2.092   0.002  0.00  0.00    +0.001 A 
ATOM     13  C   UNL     1       2.377   1.427  -0.013  0.00  0.00    +0.008 A 
ATOM     14  C   UNL     1       2.403   0.033  -0.021  0.00  0.00    -0.017 A 
ATOM     15  C   UNL     1       1.205  -0.680  -0.013  0.00  0.00    +0.008 A 
ATOM     16  C   UNL     1       0.002  -0.004   0.002  0.00  0.00    +0.001 A 
ENDBRANCH   1  14
BRANCH   8  17
ATOM     17  N   UNL     1       2.778  -3.781   3.709  0.00  0.00    -0.293 N 
ATOM     18  H   UNL     1       3.241  -4.527   4.208  0.00  0.00    +0.163 HD
ATOM     19  H   UNL     1       2.485  -3.051   4.341  0.00  0.00    +0.163 HD
ENDBRANCH   8  17
BRANCH   9  20
ATOM     20  S   UNL     1       5.373  -5.125   3.572  0.00  0.00    -0.078 S 
BRANCH  20  21
ATOM     21  C   UNL     1       7.043  -5.491   2.967  0.00  0.00    +0.151 C 
BRANCH  21  22
ATOM     22  C   UNL     1       7.637  -6.612   3.779  0.00  0.00    +0.121 A 
ATOM     23  N   UNL     1       8.893  -7.047   3.498  0.00  0.00    -0.310 N 
ATOM     24  H   UNL     1       9.390  -6.628   2.778  0.00  0.00    +0.170 HD
ATOM     25  C   UNL     1       9.461  -8.046   4.198  0.00  0.00    +0.260 A 
ATOM     26  O   UNL     1      10.589  -8.426   3.935  0.00  0.00    -0.267 OA
ATOM     27  C   UNL     1       8.716  -8.655   5.260  0.00  0.00    +0.075 A 
ATOM     28  C   UNL     1       9.133  -9.751   6.148  0.00  0.00    -0.023 A 
ATOM     29  C   UNL     1       8.246 -10.152   7.075  0.00  0.00    -0.004 A 
ATOM     30  S   UNL     1       6.824  -9.112   6.831  0.00  0.00    -0.073 S 
ATOM     31  C   UNL     1       7.431  -8.141   5.476  0.00  0.00    +0.116 A 
ATOM     32  N   UNL     1       6.937  -7.146   4.744  0.00  0.00    -0.226 NA
ATOM     33  C   UNL     1       8.777 -11.278   7.920  0.00  0.00    +0.043 C 
ATOM     34  C   UNL     1       9.976 -11.832   7.118  0.00  0.00    +0.010 C 
ATOM     35  C   UNL     1      10.399 -10.599   6.295  0.00  0.00    +0.037 C 
ENDBRANCH  21  22
ENDBRANCH  20  21
ENDBRANCH   9  20
TORSDOF 5
