REMARK  Name = ZINC12528067
REMARK  13 active torsions:
REMARK  status: ('A' for Active; 'I' for Inactive)
REMARK    1  A    between atoms: C_1  and  C_2
REMARK    2  A    between atoms: C_2  and  O_3
REMARK    3  A    between atoms: O_3  and  C_4
REMARK    4  A    between atoms: C_7  and  N_13
REMARK    5  A    between atoms: C_9  and  O_10
REMARK    6  A    between atoms: O_10  and  C_11
REMARK    7  A    between atoms: C_11  and  C_12
REMARK    8  A    between atoms: C_14  and  C_16
REMARK    9  A    between atoms: C_16  and  N_17
REMARK   10  A    between atoms: N_17  and  C_18
REMARK   11  A    between atoms: C_19  and  C_21
REMARK   12  A    between atoms: C_24  and  N_30
REMARK   13  A    between atoms: C_25  and  N_27
REMARK                            x       y       z     vdW  Elec       q    Type
REMARK                         _______ _______ _______ _____ _____    ______ ____
ROOT
ATOM      1  N   UNL     1      -0.157  -8.790   0.003  0.00  0.00    -0.292 N 
ATOM      2  C   UNL     1       0.571  -9.037  -1.244  0.00  0.00    +0.133 C 
ATOM      3  C   UNL     1      -1.448  -9.159   0.114  0.00  0.00    +0.247 C 
ATOM      4  O   UNL     1      -2.030  -9.025   1.173  0.00  0.00    -0.270 OA
ENDROOT
BRANCH   3   5
ATOM      5  C   UNL     1      -2.156  -9.724  -1.050  0.00  0.00    +0.039 A 
ATOM      6  C   UNL     1      -1.516 -10.653  -1.876  0.00  0.00    +0.015 A 
ATOM      7  C   UNL     1      -2.180 -11.179  -2.961  0.00  0.00    +0.026 A 
ATOM      8  C   UNL     1      -3.487 -10.787  -3.236  0.00  0.00    +0.060 A 
ATOM      9  C   UNL     1      -4.127  -9.862  -2.416  0.00  0.00    +0.148 A 
ATOM     10  C   UNL     1      -3.471  -9.337  -1.326  0.00  0.00    +0.047 A 
BRANCH   8  11
ATOM     11  N   UNL     1      -4.155 -11.320  -4.333  0.00  0.00    -0.328 N 
ATOM     12  C   UNL     1      -4.075 -10.669  -5.647  0.00  0.00    +0.105 C 
ATOM     13  C   UNL     1      -3.615 -11.701  -6.682  0.00  0.00    +0.019 C 
ATOM     14  C   UNL     1      -4.549 -12.912  -6.637  0.00  0.00    +0.003 C 
ATOM     15  C   UNL     1      -4.485 -13.557  -5.251  0.00  0.00    +0.019 C 
ATOM     16  C   UNL     1      -4.949 -12.549  -4.201  0.00  0.00    +0.105 C 
ENDBRANCH   8  11
BRANCH   9  17
ATOM     17  N   UNL     1      -5.516  -9.447  -2.713  0.00  0.00    +0.058 N 
ATOM     18  O   UNL     1      -6.073  -8.644  -2.001  0.00  0.00    -0.126 OA
ATOM     19  O   UNL     1      -6.095  -9.912  -3.667  0.00  0.00    -0.126 OA
ENDBRANCH   9  17
ENDBRANCH   3   5
BRANCH   1  20
ATOM     20  C   UNL     1       0.520  -8.142   1.129  0.00  0.00    +0.203 C 
BRANCH  20  22
ATOM     21  N   UNL     1       0.888  -5.842   1.962  0.00  0.00    -0.284 N 
ATOM     22  C   UNL     1       0.347  -6.649   1.028  0.00  0.00    +0.235 C 
ATOM     23  O   UNL     1      -0.280  -6.172   0.105  0.00  0.00    -0.274 OA
ATOM     24  H   UNL     1       1.447  -6.217   2.661  0.00  0.00    +0.155 HD
BRANCH  21  28
ATOM     25  C   UNL     1       0.156  -1.736   1.846  0.00  0.00    +0.162 A 
ATOM     26  C   UNL     1      -0.819  -2.627   1.427  0.00  0.00    +0.051 A 
ATOM     27  C   UNL     1      -0.576  -3.987   1.465  0.00  0.00    +0.027 A 
ATOM     28  C   UNL     1       0.644  -4.463   1.924  0.00  0.00    +0.037 A 
ATOM     29  C   UNL     1       1.623  -3.574   2.346  0.00  0.00    +0.072 A 
ATOM     30  C   UNL     1       1.382  -2.210   2.302  0.00  0.00    +0.164 A 
BRANCH  25  31
ATOM     31  O   UNL     1      -0.084  -0.397   1.808  0.00  0.00    -0.489 OA
BRANCH  31  33
ATOM     32  C   UNL     1      -1.448   1.546   1.358  0.00  0.00    +0.048 C 
ATOM     33  C   UNL     1      -1.364   0.019   1.329  0.00  0.00    +0.226 C 
ENDBRANCH  31  33
ENDBRANCH  25  31
BRANCH  30  34
ATOM     34  O   UNL     1       2.341  -1.336   2.710  0.00  0.00    -0.489 OA
BRANCH  34  35
ATOM     35  C   UNL     1       3.576  -1.894   3.165  0.00  0.00    +0.226 C 
ATOM     36  C   UNL     1       4.523  -0.766   3.579  0.00  0.00    +0.048 C 
ENDBRANCH  34  35
ENDBRANCH  30  34
ENDBRANCH  21  28
ENDBRANCH  20  22
ENDBRANCH   1  20
TORSDOF 10
