REMARK  Name = ZINC32843634
REMARK  2 active torsions:
REMARK  status: ('A' for Active; 'I' for Inactive)
REMARK    1  A    between atoms: C_6  and  C_7
REMARK    2  A    between atoms: N_9  and  C_10
REMARK                            x       y       z     vdW  Elec       q    Type
REMARK                         _______ _______ _______ _____ _____    ______ ____
ROOT
ATOM      1  C   UNL     1      -4.971   5.152   0.288  0.00  0.00    +0.015 A 
ATOM      2  C   UNL     1      -6.175   5.812   0.410  0.00  0.00    +0.026 A 
ATOM      3  C   UNL     1      -6.203   7.192   0.526  0.00  0.00    +0.052 A 
ATOM      4  C   UNL     1      -5.000   7.926   0.514  0.00  0.00    +0.055 A 
ATOM      5  C   UNL     1      -3.796   7.266   0.400  0.00  0.00    +0.038 A 
ATOM      6  C   UNL     1      -3.774   5.873   0.281  0.00  0.00    +0.039 A 
ATOM      7  N   UNL     1      -5.051   9.328   0.620  0.00  0.00    -0.282 N 
ATOM      8  C   UNL     1      -6.128   9.894   1.238  0.00  0.00    +0.238 C 
ATOM      9  O   UNL     1      -6.223  11.094   1.388  0.00  0.00    -0.273 OA
ATOM     10  C   UNL     1      -7.187   8.947   1.720  0.00  0.00    +0.160 C 
ATOM     11  N   UNL     1      -7.362   7.909   0.668  0.00  0.00    -0.317 N 
ATOM     12  C   UNL     1      -8.625   7.245   0.984  0.00  0.00    +0.106 C 
ATOM     13  C   UNL     1      -9.503   8.310   1.690  0.00  0.00    +0.021 C 
ATOM     14  C   UNL     1      -8.592   9.564   1.813  0.00  0.00    +0.033 C 
ATOM     15  H   UNL     1      -4.234   9.940   0.210  0.00  0.00    +0.155 HD
ENDROOT
BRANCH   6  16
ATOM     16  C   UNL     1      -2.486   5.164   0.154  0.00  0.00    +0.248 C 
ATOM     17  O   UNL     1      -1.445   5.791   0.148  0.00  0.00    -0.270 OA
ATOM     18  N   UNL     1      -2.465   3.821   0.045  0.00  0.00    -0.280 N 
ATOM     19  H   UNL     1      -3.408   3.260  -0.041  0.00  0.00    +0.155 HD
BRANCH  18  20
ATOM     20  C   UNL     1      -1.242   3.138   0.042  0.00  0.00    +0.056 A 
ATOM     21  C   UNL     1      -0.127   3.707   0.643  0.00  0.00    +0.074 A 
ATOM     22  C   UNL     1       1.082   3.031   0.639  0.00  0.00    +0.168 A 
ATOM     23  C   UNL     1       1.177   1.782   0.031  0.00  0.00    +0.168 A 
ATOM     24  C   UNL     1       0.063   1.217  -0.568  0.00  0.00    +0.071 A 
ATOM     25  C   UNL     1      -1.142   1.894  -0.569  0.00  0.00    +0.066 A 
ATOM     26 CL   UNL     1      -2.534   1.186  -1.327  0.00  0.00    -0.081 Cl
ATOM     27  O   UNL     1       2.460   1.330   0.162  0.00  0.00    -0.453 OA
ATOM     28  C   UNL     1       3.043   2.129   1.208  0.00  0.00    +0.466 C 
ATOM     29  O   UNL     1       2.304   3.363   1.150  0.00  0.00    -0.453 OA
ENDBRANCH  18  20
ENDBRANCH   6  16
TORSDOF 2
