REMARK  Name = ZINC34894895
REMARK  14 active torsions:
REMARK  status: ('A' for Active; 'I' for Inactive)
REMARK    1  A    between atoms: C_1  and  C_2
REMARK    2  A    between atoms: C_6  and  C_36
REMARK    3  A    between atoms: C_8  and  O_11
REMARK    4  A    between atoms: O_11  and  C_12
REMARK    5  A    between atoms: C_12  and  C_14
REMARK    6  A    between atoms: C_14  and  O_15
REMARK    7  A    between atoms: O_15  and  C_16
REMARK    8  A    between atoms: C_16  and  C_18
REMARK    9  A    between atoms: C_20  and  S_25
REMARK   10  A    between atoms: S_25  and  N_28
REMARK   11  A    between atoms: N_28  and  C_29
REMARK   12  A    between atoms: N_28  and  C_30
REMARK   13  A    between atoms: C_36  and  C_37
REMARK   14  A    between atoms: C_36  and  C_38
REMARK                            x       y       z     vdW  Elec       q    Type
REMARK                         _______ _______ _______ _____ _____    ______ ____
ROOT
ATOM      1  C   UNL     1      -5.281  -3.532   5.581  0.00  0.00    +0.079 A 
ATOM      2  C   UNL     1      -4.272  -3.386   6.536  0.00  0.00    +0.045 A 
ATOM      3  C   UNL     1      -4.535  -3.667   7.860  0.00  0.00    +0.110 A 
ATOM      4  C   UNL     1      -5.794  -4.093   8.245  0.00  0.00    +0.030 A 
ATOM      5  C   UNL     1      -6.799  -4.241   7.306  0.00  0.00    +0.023 A 
ATOM      6  C   UNL     1      -6.552  -3.958   5.977  0.00  0.00    +0.055 A 
ATOM      7 CL   UNL     1      -7.816  -4.136   4.800  0.00  0.00    -0.083 Cl
ENDROOT
BRANCH   3   8
ATOM      8  S   UNL     1      -3.263  -3.483   9.066  0.00  0.00    +0.074 S 
ATOM      9  O   UNL     1      -3.608  -4.332  10.152  0.00  0.00    -0.150 OA
ATOM     10  O   UNL     1      -2.027  -3.597   8.373  0.00  0.00    -0.150 OA
BRANCH   8  11
ATOM     11  N   UNL     1      -3.346  -1.930   9.633  0.00  0.00    -0.206 N 
ATOM     12  C   UNL     1      -4.280  -1.593  10.711  0.00  0.00    +0.157 C 
BRANCH  11  13
ATOM     13  C   UNL     1      -2.527  -0.941   9.084  0.00  0.00    +0.051 A 
ATOM     14  C   UNL     1      -3.092   0.176   8.482  0.00  0.00    +0.025 A 
ATOM     15  C   UNL     1      -2.280   1.153   7.941  0.00  0.00    +0.002 A 
ATOM     16  C   UNL     1      -0.904   1.019   7.997  0.00  0.00    +0.000 A 
ATOM     17  C   UNL     1      -0.338  -0.092   8.595  0.00  0.00    +0.002 A 
ATOM     18  C   UNL     1      -1.145  -1.069   9.144  0.00  0.00    +0.025 A 
ENDBRANCH  11  13
ENDBRANCH   8  11
ENDBRANCH   3   8
BRANCH   1  19
ATOM     19  C   UNL     1      -5.008  -3.233   4.161  0.00  0.00    +0.341 C 
ATOM     20  O   UNL     1      -5.889  -3.357   3.334  0.00  0.00    -0.245 OA
BRANCH  19  21
ATOM     21  O   UNL     1      -3.781  -2.823   3.783  0.00  0.00    -0.450 OA
BRANCH  21  22
ATOM     22  C   UNL     1      -3.588  -2.552   2.394  0.00  0.00    +0.352 C 
BRANCH  22  23
ATOM     23  C   UNL     1      -2.166  -2.109   2.162  0.00  0.00    +0.346 C 
ATOM     24  O   UNL     1      -1.398  -2.033   3.091  0.00  0.00    -0.247 OA
BRANCH  23  25
ATOM     25  O   UNL     1      -1.754  -1.798   0.923  0.00  0.00    -0.459 OA
BRANCH  25  31
ATOM     26  C   UNL     1      -1.064   2.331   0.029  0.00  0.00    +0.007 C 
ATOM     27  C   UNL     1      -1.157   0.812  -0.133  0.00  0.00    -0.011 C 
ATOM     28  C   UNL     1      -0.651   0.415  -1.520  0.00  0.00    +0.004 C 
ATOM     29  C   UNL     1      -0.744  -1.104  -1.681  0.00  0.00    +0.007 C 
ATOM     30  C   UNL     1       0.113  -1.784  -0.611  0.00  0.00    +0.032 C 
ATOM     31  C   UNL     1      -0.393  -1.386   0.776  0.00  0.00    +0.180 C 
ATOM     32  C   UNL     1      -0.300   0.133   0.937  0.00  0.00    +0.048 C 
BRANCH  30  33
ATOM     33  C   UNL     1       0.021  -3.302  -0.772  0.00  0.00    -0.011 C 
ATOM     34  C   UNL     1       0.527  -3.700  -2.160  0.00  0.00    +0.007 C 
ATOM     35  C   UNL     1       0.877  -3.982   0.297  0.00  0.00    +0.007 C 
ENDBRANCH  30  33
ENDBRANCH  25  31
ENDBRANCH  23  25
ENDBRANCH  22  23
ENDBRANCH  21  22
ENDBRANCH  19  21
ENDBRANCH   1  19
TORSDOF 10
