REMARK  Name = ZINC09381189
REMARK  8 active torsions:
REMARK  status: ('A' for Active; 'I' for Inactive)
REMARK    1  A    between atoms: C_1  and  C_2
REMARK    2  A    between atoms: C_7  and  O_34
REMARK    3  A    between atoms: C_8  and  C_10
REMARK    4  A    between atoms: C_10  and  C_12
REMARK    5  A    between atoms: C_10  and  N_21
REMARK    6  A    between atoms: C_15  and  N_18
REMARK    7  A    between atoms: C_24  and  C_27
REMARK    8  A    between atoms: C_27  and  C_28
REMARK                            x       y       z     vdW  Elec       q    Type
REMARK                         _______ _______ _______ _____ _____    ______ ____
ROOT
ATOM      1  C   UNL     1       0.085  -5.916   0.773  0.00  0.00    +0.005 C 
ENDROOT
BRANCH   1   9
ATOM      2  C   UNL     1      -0.018   1.503   0.010  0.00  0.00    +0.090 C 
ATOM      3  C   UNL     1       0.002  -0.004   0.002  0.00  0.00    +0.150 A 
ATOM      4  N   UNL     1       0.008  -0.769  -1.088  0.00  0.00    -0.205 NA
ATOM      5  C   UNL     1       0.026  -2.025  -0.733  0.00  0.00    +0.199 A 
ATOM      6  N   UNL     1       0.033  -2.116   0.625  0.00  0.00    -0.173 N 
ATOM      7  N   UNL     1       0.022  -0.766   1.063  0.00  0.00    -0.147 NA
ATOM      8  C   UNL     1       0.052  -3.377   1.171  0.00  0.00    +0.225 A 
ATOM      9  C   UNL     1       0.063  -4.460   0.386  0.00  0.00    +0.045 A 
ATOM     10  S   UNL     1       0.047  -3.727  -1.243  0.00  0.00    -0.050 S 
BRANCH   8  11
ATOM     11  O   UNL     1       0.060  -3.525   2.523  0.00  0.00    -0.492 OA
ATOM     12  H   UNL     1       0.050  -2.690   3.011  0.00  0.00    +0.294 HD
ENDBRANCH   8  11
ENDBRANCH   1   9
BRANCH   1  13
ATOM     13  N   UNL     1      -1.043  -6.609   0.137  0.00  0.00    +0.387 N 
ATOM     14  C   UNL     1      -2.302  -5.997   0.576  0.00  0.00    -0.077 C 
ATOM     15  C   UNL     1      -3.476  -6.662  -0.146  0.00  0.00    -0.015 C 
ATOM     16  C   UNL     1      -3.491  -8.157   0.185  0.00  0.00    -0.010 C 
ATOM     17  C   UNL     1      -2.145  -8.770  -0.209  0.00  0.00    -0.015 C 
ATOM     18  C   UNL     1      -1.020  -8.027   0.515  0.00  0.00    -0.077 C 
ATOM     19  H   UNL     1      -0.964  -6.528  -0.866  0.00  0.00    -0.080 HD
BRANCH  16  20
ATOM     20  C   UNL     1      -4.614  -8.842  -0.595  0.00  0.00    +0.038 C 
BRANCH  20  21
ATOM     21  C   UNL     1      -4.707 -10.287  -0.177  0.00  0.00    -0.047 A 
ATOM     22  C   UNL     1      -3.967 -11.248  -0.840  0.00  0.00    +0.003 A 
ATOM     23  C   UNL     1      -4.052 -12.573  -0.457  0.00  0.00    +0.000 A 
ATOM     24  C   UNL     1      -4.878 -12.938   0.591  0.00  0.00    +0.000 A 
ATOM     25  C   UNL     1      -5.618 -11.977   1.254  0.00  0.00    +0.000 A 
ATOM     26  C   UNL     1      -5.529 -10.651   0.873  0.00  0.00    +0.003 A 
ENDBRANCH  20  21
ENDBRANCH  16  20
ENDBRANCH   1  13
BRANCH   1  27
ATOM     27  C   UNL     1       1.379  -6.538   0.316  0.00  0.00    -0.056 A 
ATOM     28  C   UNL     1       1.536  -6.917  -1.004  0.00  0.00    +0.004 A 
ATOM     29  C   UNL     1       2.723  -7.488  -1.423  0.00  0.00    +0.033 A 
ATOM     30  C   UNL     1       3.754  -7.679  -0.523  0.00  0.00    +0.126 A 
ATOM     31  C   UNL     1       3.598  -7.299   0.797  0.00  0.00    +0.033 A 
ATOM     32  C   UNL     1       2.413  -6.724   1.216  0.00  0.00    +0.004 A 
BRANCH  30  33
ATOM     33  N   UNL     1       5.025  -8.291  -0.972  0.00  0.00    +0.056 N 
ATOM     34  O   UNL     1       5.161  -8.623  -2.126  0.00  0.00    -0.126 OA
ATOM     35  O   UNL     1       5.927  -8.458  -0.184  0.00  0.00    -0.126 OA
ENDBRANCH  30  33
ENDBRANCH   1  27
TORSDOF 7
