REMARK  Name = ZINC39600154
REMARK  9 active torsions:
REMARK  status: ('A' for Active; 'I' for Inactive)
REMARK    1  A    between atoms: C_1  and  O_2
REMARK    2  A    between atoms: O_2  and  C_3
REMARK    3  A    between atoms: C_5  and  C_11
REMARK    4  A    between atoms: C_7  and  O_9
REMARK    5  A    between atoms: O_9  and  C_10
REMARK    6  A    between atoms: C_15  and  C_24
REMARK    7  A    between atoms: N_26  and  C_27
REMARK    8  A    between atoms: C_27  and  C_28
REMARK    9  A    between atoms: C_30  and  C_35
REMARK                            x       y       z     vdW  Elec       q    Type
REMARK                         _______ _______ _______ _____ _____    ______ ____
ROOT
ATOM      1  C   UNL     1       1.331  -4.090  -2.293  0.00  0.00    +0.247 C 
ATOM      2  O   UNL     1       0.934  -4.767  -1.365  0.00  0.00    -0.270 OA
ATOM      3  N   UNL     1       1.839  -4.683  -3.391  0.00  0.00    -0.296 N 
ATOM      4  C   UNL     1       2.483  -4.035  -4.558  0.00  0.00    +0.121 C 
ATOM      5  C   UNL     1       3.658  -4.970  -4.924  0.00  0.00    +0.100 C 
ATOM      6  C   UNL     1       3.256  -6.344  -4.363  0.00  0.00    -0.004 C 
ATOM      7  C   UNL     1       1.886  -6.132  -3.701  0.00  0.00    +0.115 C 
ATOM      8  C   UNL     1       3.146  -7.364  -5.492  0.00  0.00    -0.010 C 
ATOM      9  C   UNL     1       2.802  -8.735  -4.903  0.00  0.00    -0.082 C 
ATOM     10  N   UNL     1       3.846  -9.138  -3.953  0.00  0.00    +0.379 N 
ATOM     11  C   UNL     1       3.882  -8.202  -2.822  0.00  0.00    -0.082 C 
ATOM     12  C   UNL     1       4.271  -6.809  -3.323  0.00  0.00    -0.010 C 
ATOM     13  H   UNL     1       3.649 -10.067  -3.612  0.00  0.00    -0.086 HD
ATOM     14  H   UNL     1       4.741  -9.136  -4.418  0.00  0.00    -0.086 HD
ENDROOT
BRANCH   1  17
ATOM     15  C   UNL     1       1.136  -0.475  -3.312  0.00  0.00    +0.124 A 
ATOM     16  C   UNL     1       1.207  -1.856  -3.387  0.00  0.00    +0.059 A 
ATOM     17  C   UNL     1       1.255  -2.615  -2.217  0.00  0.00    +0.044 A 
ATOM     18  C   UNL     1       1.231  -1.978  -0.976  0.00  0.00    +0.059 A 
ATOM     19  C   UNL     1       1.160  -0.597  -0.910  0.00  0.00    +0.124 A 
ATOM     20  C   UNL     1       1.118   0.154  -2.076  0.00  0.00    +0.091 A 
BRANCH  15  22
ATOM     21  C   UNL     1       1.023   1.685  -4.300  0.00  0.00    +0.277 C 
ATOM     22  O   UNL     1       1.089   0.265  -4.451  0.00  0.00    -0.495 OA
ENDBRANCH  15  22
BRANCH  19  23
ATOM     23  O   UNL     1       1.136   0.025   0.298  0.00  0.00    -0.495 OA
ATOM     24  C   UNL     1       1.062   1.452   0.293  0.00  0.00    +0.277 C 
ENDBRANCH  19  23
ENDBRANCH   1  17
BRANCH   5  25
ATOM     25  C   UNL     1       4.932  -4.489  -4.277  0.00  0.00    +0.218 C 
ATOM     26  O   UNL     1       4.899  -3.975  -3.179  0.00  0.00    -0.275 OA
ATOM     27  N   UNL     1       6.108  -4.631  -4.920  0.00  0.00    -0.311 N 
ATOM     28  H   UNL     1       6.135  -5.042  -5.798  0.00  0.00    +0.149 HD
BRANCH  27  29
ATOM     29  C   UNL     1       7.347  -4.164  -4.292  0.00  0.00    +0.139 C 
BRANCH  29  30
ATOM     30  C   UNL     1       8.510  -4.438  -5.210  0.00  0.00    -0.027 A 
ATOM     31  C   UNL     1       9.188  -5.640  -5.127  0.00  0.00    +0.017 A 
ATOM     32  C   UNL     1      10.255  -5.892  -5.968  0.00  0.00    +0.058 A 
ATOM     33  C   UNL     1      10.646  -4.943  -6.893  0.00  0.00    +0.050 A 
ATOM     34  C   UNL     1       9.968  -3.739  -6.977  0.00  0.00    +0.124 A 
ATOM     35  C   UNL     1       8.895  -3.489  -6.138  0.00  0.00    +0.043 A 
ATOM     36  F   UNL     1      10.350  -2.809  -7.880  0.00  0.00    -0.205 F 
BRANCH  32  37
ATOM     37  C   UNL     1      10.992  -7.203  -5.877  0.00  0.00    +0.418 C 
ATOM     38  F   UNL     1      10.398  -8.134  -6.735  0.00  0.00    -0.166 F 
ATOM     39  F   UNL     1      12.328  -7.014  -6.248  0.00  0.00    -0.166 F 
ATOM     40  F   UNL     1      10.937  -7.679  -4.562  0.00  0.00    -0.166 F 
ENDBRANCH  32  37
ENDBRANCH  29  30
ENDBRANCH  27  29
ENDBRANCH   5  25
TORSDOF 7
