REMARK  Name = ZINC13500629
REMARK  10 active torsions:
REMARK  status: ('A' for Active; 'I' for Inactive)
REMARK    1  A    between atoms: C_1  and  C_2
REMARK    2  A    between atoms: C_9  and  C_14
REMARK    3  A    between atoms: C_14  and  N_72
REMARK    4  A    between atoms: C_15  and  N_72
REMARK    5  A    between atoms: C_20  and  C_22
REMARK    6  A    between atoms: C_20  and  C_33
REMARK    7  A    between atoms: C_20  and  N_72
REMARK    8  A    between atoms: N_26  and  C_27
REMARK    9  A    between atoms: C_33  and  C_34
REMARK   10  A    between atoms: C_33  and  C_35
REMARK                            x       y       z     vdW  Elec       q    Type
REMARK                         _______ _______ _______ _____ _____    ______ ____
ROOT
ATOM      1  N   UNL     1      -2.856   0.802  -1.159  0.00  0.00    +0.391 N 
ATOM      2  H   UNL     1      -2.751   1.592  -1.806  0.00  0.00    -0.080 HD
ENDROOT
BRANCH   1   3
ATOM      3  C   UNL     1      -1.783  -0.180  -1.421  0.00  0.00    -0.067 C 
ATOM      4  C   UNL     1      -2.002  -1.472  -0.606  0.00  0.00    -0.015 C 
ATOM      5  C   UNL     1      -0.573  -1.909  -0.198  0.00  0.00    -0.002 C 
ATOM      6  C   UNL     1       0.127  -0.560   0.100  0.00  0.00    -0.002 C 
ATOM      7  C   UNL     1      -0.430   0.399  -0.973  0.00  0.00    -0.015 C 
ENDBRANCH   1   3
BRANCH   1   8
ATOM      8  C   UNL     1      -2.756   1.301   0.229  0.00  0.00    -0.036 C 
BRANCH   8  17
ATOM      9  C   UNL     1      -0.912  -3.775   5.371  0.00  0.00    +0.044 C 
ATOM     10  C   UNL     1      -1.947  -3.072   4.530  0.00  0.00    -0.050 A 
ATOM     11  C   UNL     1      -3.284  -3.427   4.645  0.00  0.00    +0.005 A 
ATOM     12  C   UNL     1      -4.247  -2.797   3.886  0.00  0.00    +0.026 A 
ATOM     13  C   UNL     1      -3.877  -1.795   2.995  0.00  0.00    +0.049 A 
ATOM     14  C   UNL     1      -2.520  -1.438   2.882  0.00  0.00    -0.001 A 
ATOM     15  C   UNL     1      -1.560  -2.091   3.662  0.00  0.00    +0.013 A 
ATOM     16  C   UNL     1      -2.140  -0.382   1.942  0.00  0.00    +0.017 A 
ATOM     17  C   UNL     1      -3.113   0.214   1.209  0.00  0.00    +0.001 A 
ATOM     18  C   UNL     1      -4.460  -0.178   1.364  0.00  0.00    +0.251 A 
ATOM     19  O   UNL     1      -5.320   0.373   0.699  0.00  0.00    -0.268 OA
ATOM     20  N   UNL     1      -4.818  -1.147   2.224  0.00  0.00    -0.322 N 
ATOM     21  H   UNL     1      -5.753  -1.395   2.304  0.00  0.00    +0.169 HD
ENDBRANCH   8  17
ENDBRANCH   1   8
BRANCH   1  22
ATOM     22  C   UNL     1      -4.178   0.176  -1.376  0.00  0.00    +0.006 C 
BRANCH  22  23
ATOM     23  C   UNL     1      -4.079  -0.824  -2.500  0.00  0.00    +0.139 A 
ATOM     24  N   UNL     1      -3.425  -0.674  -3.625  0.00  0.00    -0.115 NA
ATOM     25  N   UNL     1      -3.579  -1.746  -4.322  0.00  0.00    -0.023 NA
ATOM     26  N   UNL     1      -4.322  -2.574  -3.673  0.00  0.00    -0.044 NA
ATOM     27  N   UNL     1      -4.651  -2.041  -2.545  0.00  0.00    -0.228 N 
BRANCH  27  28
ATOM     28  C   UNL     1      -5.488  -2.648  -1.507  0.00  0.00    +0.111 C 
ATOM     29  C   UNL     1      -4.840  -3.946  -1.023  0.00  0.00    +0.027 C 
ATOM     30  C   UNL     1      -5.715  -4.580   0.061  0.00  0.00    +0.002 C 
ATOM     31  C   UNL     1      -7.099  -4.885  -0.515  0.00  0.00    +0.000 C 
ATOM     32  C   UNL     1      -7.747  -3.587  -0.999  0.00  0.00    +0.002 C 
ATOM     33  C   UNL     1      -6.873  -2.953  -2.083  0.00  0.00    +0.027 C 
ENDBRANCH  27  28
ENDBRANCH  22  23
BRANCH  22  34
ATOM     34  C   UNL     1      -5.179   1.270  -1.753  0.00  0.00    -0.024 C 
ATOM     35  C   UNL     1      -6.598   0.701  -1.703  0.00  0.00    +0.006 C 
ATOM     36  C   UNL     1      -5.061   2.432  -0.765  0.00  0.00    +0.006 C 
ENDBRANCH  22  34
ENDBRANCH   1  22
TORSDOF 7
