REMARK  Name = ZINC36005360
REMARK  12 active torsions:
REMARK  status: ('A' for Active; 'I' for Inactive)
REMARK    1  A    between atoms: C_1  and  C_2
REMARK    2  A    between atoms: C_2  and  O_3
REMARK    3  A    between atoms: O_3  and  C_4
REMARK    4  A    between atoms: C_4  and  C_6
REMARK    5  A    between atoms: C_7  and  C_23
REMARK    6  A    between atoms: N_8  and  C_22
REMARK    7  A    between atoms: C_12  and  C_14
REMARK    8  A    between atoms: C_17  and  C_21
REMARK    9  A    between atoms: C_19  and  C_20
REMARK   10  A    between atoms: C_23  and  N_24
REMARK   11  A    between atoms: C_31  and  C_33
REMARK   12  A    between atoms: C_36  and  C_39
REMARK                            x       y       z     vdW  Elec       q    Type
REMARK                         _______ _______ _______ _____ _____    ______ ____
ROOT
ATOM      1  C   UNL     1       1.284  -2.339  -2.938  0.00  0.00    +0.076 C 
ATOM      2  C   UNL     1       1.541  -3.664  -2.922  0.00  0.00    +0.010 C 
ATOM      3  N   UNL     1       2.472  -4.212  -3.758  0.00  0.00    -0.264 N 
ATOM      4  C   UNL     1       3.189  -3.501  -4.638  0.00  0.00    +0.307 C 
ATOM      5  O   UNL     1       3.995  -4.078  -5.341  0.00  0.00    -0.252 OA
ATOM      6  N   UNL     1       3.044  -2.168  -4.771  0.00  0.00    -0.288 N 
ATOM      7  C   UNL     1       2.059  -1.481  -3.918  0.00  0.00    +0.144 C 
ATOM      8  C   UNL     1       2.700  -5.657  -3.687  0.00  0.00    +0.139 C 
ATOM      9  H   UNL     1       3.574  -1.672  -5.415  0.00  0.00    +0.151 HD
ENDROOT
BRANCH   7  10
ATOM     10  C   UNL     1       1.066  -0.786  -4.813  0.00  0.00    -0.020 A 
ATOM     11  C   UNL     1       0.671  -1.379  -5.998  0.00  0.00    +0.006 A 
ATOM     12  C   UNL     1      -0.240  -0.742  -6.820  0.00  0.00    +0.004 A 
ATOM     13  C   UNL     1      -0.756   0.488  -6.456  0.00  0.00    -0.050 A 
ATOM     14  C   UNL     1      -0.362   1.080  -5.271  0.00  0.00    +0.007 A 
ATOM     15  C   UNL     1       0.546   0.441  -4.448  0.00  0.00    -0.045 A 
ATOM     16  C   UNL     1       0.972   1.084  -3.153  0.00  0.00    +0.044 C 
ATOM     17  C   UNL     1      -1.748   1.183  -7.352  0.00  0.00    +0.044 C 
ENDBRANCH   7  10
BRANCH   1  18
ATOM     18  C   UNL     1       0.320  -1.771  -2.073  0.00  0.00    +0.339 C 
ATOM     19  O   UNL     1      -0.772  -1.450  -2.505  0.00  0.00    -0.245 OA
BRANCH  18  20
ATOM     20  O   UNL     1       0.610  -1.584  -0.768  0.00  0.00    -0.462 OA
BRANCH  20  22
ATOM     21  C   UNL     1       0.099  -0.845   1.475  0.00  0.00    +0.048 C 
ATOM     22  C   UNL     1      -0.446  -1.111   0.070  0.00  0.00    +0.229 C 
ENDBRANCH  20  22
ENDBRANCH  18  20
ENDBRANCH   1  18
BRANCH   2  23
ATOM     23  C   UNL     1       0.789  -4.554  -1.966  0.00  0.00    -0.026 C 
BRANCH  23  24
ATOM     24  N   UNL     1      -0.505  -4.923  -2.555  0.00  0.00    +0.384 N 
ATOM     25  C   UNL     1      -1.301  -5.598  -1.533  0.00  0.00    -0.077 C 
ATOM     26  C   UNL     1      -2.769  -5.352  -1.801  0.00  0.00    +0.000 C 
ATOM     27  C   UNL     1      -3.337  -6.507  -2.646  0.00  0.00    +0.106 C 
ATOM     28  N   UNL     1      -2.373  -6.931  -3.682  0.00  0.00    -0.299 N 
ATOM     29  C   UNL     1      -1.594  -5.981  -4.450  0.00  0.00    +0.089 C 
ATOM     30  C   UNL     1      -0.263  -5.683  -3.721  0.00  0.00    -0.059 C 
ATOM     31  C   UNL     1      -2.213  -8.247  -3.921  0.00  0.00    +0.247 C 
ATOM     32  O   UNL     1      -1.351  -8.624  -4.691  0.00  0.00    -0.270 OA
ATOM     33  H   UNL     1      -0.985  -4.076  -2.821  0.00  0.00    -0.081 HD
BRANCH  31  34
ATOM     34  C   UNL     1      -3.084  -9.232  -3.246  0.00  0.00    +0.037 A 
ATOM     35  C   UNL     1      -4.431  -8.941  -3.024  0.00  0.00    +0.013 A 
ATOM     36  C   UNL     1      -5.239  -9.865  -2.394  0.00  0.00    +0.004 A 
ATOM     37  C   UNL     1      -4.716 -11.078  -1.982  0.00  0.00    -0.050 A 
ATOM     38  C   UNL     1      -3.382 -11.373  -2.198  0.00  0.00    +0.004 A 
ATOM     39  C   UNL     1      -2.565 -10.460  -2.832  0.00  0.00    +0.013 A 
ATOM     40  C   UNL     1      -5.604 -12.083  -1.294  0.00  0.00    +0.044 C 
ENDBRANCH  31  34
ENDBRANCH  23  24
ENDBRANCH   2  23
TORSDOF 7
