REMARK  Name = ZINC39337922
REMARK  10 active torsions:
REMARK  status: ('A' for Active; 'I' for Inactive)
REMARK    1  A    between atoms: C_1  and  C_2
REMARK    2  A    between atoms: C_2  and  C_4
REMARK    3  A    between atoms: C_2  and  N_15
REMARK    4  A    between atoms: C_4  and  C_5
REMARK    5  A    between atoms: C_5  and  C_6
REMARK    6  A    between atoms: C_22  and  C_28
REMARK    7  A    between atoms: N_26  and  C_27
REMARK    8  A    between atoms: C_28  and  C_29
REMARK    9  A    between atoms: C_34  and  O_35
REMARK   10  A    between atoms: O_35  and  C_36
REMARK                            x       y       z     vdW  Elec       q    Type
REMARK                         _______ _______ _______ _____ _____    ______ ____
ROOT
ATOM      1  N   UNL     1       0.314  -0.810  -1.486  0.00  0.00    +0.384 N 
ATOM      2  C   UNL     1      -0.052  -0.327  -2.823  0.00  0.00    -0.076 C 
ATOM      3  C   UNL     1       0.999  -0.763  -3.846  0.00  0.00    +0.008 C 
ATOM      4  C   UNL     1       1.000  -2.290  -3.947  0.00  0.00    +0.098 C 
ATOM      5  C   UNL     1       1.169  -2.812  -2.541  0.00  0.00    -0.069 C 
ATOM      6  C   UNL     1       2.093  -3.693  -2.266  0.00  0.00    -0.015 C 
ATOM      7  C   UNL     1       3.015  -4.177  -3.357  0.00  0.00    +0.102 C 
ATOM      8  C   UNL     1       2.903  -3.585  -4.741  0.00  0.00    +0.223 C 
ATOM      9  O   UNL     1       3.672  -3.925  -5.615  0.00  0.00    -0.275 OA
ATOM     10  N   UNL     1       1.946  -2.675  -4.993  0.00  0.00    -0.297 N 
ATOM     11  C   UNL     1       1.850  -2.074  -6.325  0.00  0.00    +0.132 C 
ATOM     12  C   UNL     1       0.263  -2.280  -1.456  0.00  0.00    -0.046 C 
ATOM     13  H   UNL     1       1.248  -0.502  -1.263  0.00  0.00    -0.081 HD
ENDROOT
BRANCH   1  15
ATOM     14  C   UNL     1      -2.060  -0.607  -0.918  0.00  0.00    -0.013 C 
ATOM     15  C   UNL     1      -0.628  -0.269  -0.497  0.00  0.00    -0.071 C 
BRANCH  15  16
ATOM     16  C   UNL     1      -0.466   1.250  -0.416  0.00  0.00    -0.011 C 
BRANCH  16  17
ATOM     17  C   UNL     1       0.942   1.587   0.081  0.00  0.00    +0.036 C 
BRANCH  17  18
ATOM     18  C   UNL     1       1.060   3.075   0.284  0.00  0.00    -0.022 A 
ATOM     19  C   UNL     1       0.669   3.825   1.480  0.00  0.00    +0.003 A 
ATOM     20  C   UNL     1       0.113   3.469   2.710  0.00  0.00    +0.010 A 
ATOM     21  C   UNL     1      -0.140   4.434   3.645  0.00  0.00    +0.001 A 
ATOM     22  C   UNL     1       0.149   5.765   3.380  0.00  0.00    +0.002 A 
ATOM     23  C   UNL     1       0.697   6.139   2.172  0.00  0.00    +0.026 A 
ATOM     24  C   UNL     1       0.964   5.174   1.207  0.00  0.00    +0.047 A 
ATOM     25  N   UNL     1       1.495   5.224  -0.062  0.00  0.00    -0.360 N 
ATOM     26  C   UNL     1       1.549   3.964  -0.594  0.00  0.00    +0.087 A 
ATOM     27  H   UNL     1       1.790   6.032  -0.512  0.00  0.00    +0.165 HD
ENDBRANCH  17  18
ENDBRANCH  16  17
ENDBRANCH  15  16
ENDBRANCH   1  15
BRANCH   7  28
ATOM     28  C   UNL     1       4.451  -3.952  -2.878  0.00  0.00    +0.055 C 
BRANCH  28  29
ATOM     29  C   UNL     1       4.734  -4.848  -1.701  0.00  0.00    -0.005 A 
ATOM     30  C   UNL     1       4.636  -4.353  -0.415  0.00  0.00    +0.007 A 
ATOM     31  C   UNL     1       4.897  -5.175   0.665  0.00  0.00    +0.000 A 
ATOM     32  C   UNL     1       5.256  -6.495   0.463  0.00  0.00    +0.004 A 
ATOM     33  C   UNL     1       5.355  -6.995  -0.821  0.00  0.00    +0.046 A 
ATOM     34  C   UNL     1       5.088  -6.173  -1.907  0.00  0.00    +0.123 A 
BRANCH  34  35
ATOM     35  O   UNL     1       5.180  -6.665  -3.171  0.00  0.00    -0.495 OA
ATOM     36  C   UNL     1       5.549  -8.039  -3.308  0.00  0.00    +0.277 C 
ENDBRANCH  34  35
ENDBRANCH  28  29
ENDBRANCH   7  28
TORSDOF 7
