REMARK  Name = ZINC35040463
REMARK  13 active torsions:
REMARK  status: ('A' for Active; 'I' for Inactive)
REMARK    1  A    between atoms: C_1  and  C_2
REMARK    2  A    between atoms: C_2  and  C_4
REMARK    3  A    between atoms: C_2  and  N_22
REMARK    4  A    between atoms: N_14  and  C_15
REMARK    5  A    between atoms: N_22  and  C_23
REMARK    6  A    between atoms: C_23  and  C_24
REMARK    7  A    between atoms: C_24  and  N_25
REMARK    8  A    between atoms: N_25  and  C_26
REMARK    9  A    between atoms: N_25  and  C_27
REMARK   10  A    between atoms: N_30  and  C_31
REMARK   11  A    between atoms: C_31  and  C_32
REMARK   12  A    between atoms: C_31  and  C_33
REMARK   13  A    between atoms: C_31  and  C_34
REMARK                            x       y       z     vdW  Elec       q    Type
REMARK                         _______ _______ _______ _____ _____    ______ ____
ROOT
ATOM      1  C   UNL     1      -1.351  -0.941  -0.058  0.00  0.00    +0.138 A 
ATOM      2  N   UNL     1      -2.217  -0.644  -0.979  0.00  0.00    -0.231 NA
ATOM      3  C   UNL     1      -3.552  -0.688  -0.742  0.00  0.00    +0.078 A 
ATOM      4  C   UNL     1      -4.483  -0.369  -1.732  0.00  0.00    +0.028 A 
ATOM      5  C   UNL     1      -5.829  -0.427  -1.447  0.00  0.00    +0.002 A 
ATOM      6  C   UNL     1      -6.273  -0.799  -0.185  0.00  0.00    +0.001 A 
ATOM      7  C   UNL     1      -5.374  -1.118   0.809  0.00  0.00    +0.015 A 
ATOM      8  C   UNL     1      -4.008  -1.067   0.541  0.00  0.00    +0.065 A 
ATOM      9  C   UNL     1      -3.002  -1.397   1.561  0.00  0.00    +0.266 A 
ATOM     10  O   UNL     1      -3.329  -1.730   2.686  0.00  0.00    -0.267 OA
ATOM     11  N   UNL     1      -1.700  -1.320   1.201  0.00  0.00    -0.263 N 
ENDROOT
BRANCH  11  12
ATOM     12  C   UNL     1      -0.702  -1.629   2.135  0.00  0.00    +0.051 A 
ATOM     13  C   UNL     1      -0.149  -0.626   2.919  0.00  0.00    +0.029 A 
ATOM     14  C   UNL     1       0.834  -0.932   3.839  0.00  0.00    +0.040 A 
ATOM     15  C   UNL     1       1.269  -2.240   3.979  0.00  0.00    +0.124 A 
ATOM     16  C   UNL     1       0.719  -3.242   3.198  0.00  0.00    +0.040 A 
ATOM     17  C   UNL     1      -0.269  -2.941   2.281  0.00  0.00    +0.029 A 
ATOM     18  F   UNL     1       2.231  -2.538   4.880  0.00  0.00    -0.205 F 
ENDBRANCH  11  12
BRANCH   1  20
ATOM     19  C   UNL     1       0.438   0.518  -0.962  0.00  0.00    +0.036 C 
ATOM     20  C   UNL     1       0.114  -0.868  -0.403  0.00  0.00    +0.141 C 
BRANCH  20  21
ATOM     21  N   UNL     1       0.430  -1.886  -1.409  0.00  0.00    -0.278 N 
ATOM     22  C   UNL     1       1.339  -2.843  -1.136  0.00  0.00    +0.303 C 
ATOM     23  O   UNL     1       1.896  -2.862  -0.055  0.00  0.00    -0.253 OA
ATOM     24  N   UNL     1       1.630  -3.780  -2.060  0.00  0.00    -0.294 N 
ATOM     25  H   UNL     1       1.185  -3.765  -2.922  0.00  0.00    +0.151 HD
BRANCH  24  26
ATOM     26  C   UNL     1       2.618  -4.820  -1.764  0.00  0.00    +0.028 C 
ATOM     27  C   UNL     1       2.157  -5.630  -0.550  0.00  0.00    +0.031 C 
ATOM     28  C   UNL     1       2.759  -5.748  -2.972  0.00  0.00    +0.031 C 
ATOM     29  C   UNL     1       3.968  -4.169  -1.460  0.00  0.00    +0.031 C 
ENDBRANCH  24  26
BRANCH  21  30
ATOM     30  C   UNL     1      -0.242  -1.864  -2.710  0.00  0.00    +0.091 C 
BRANCH  30  31
ATOM     31  C   UNL     1       0.570  -1.012  -3.688  0.00  0.00    -0.060 C 
BRANCH  31  32
ATOM     32  N   UNL     1      -0.103  -0.990  -4.994  0.00  0.00    +0.377 N 
ATOM     33  C   UNL     1      -1.397  -0.306  -4.865  0.00  0.00    -0.097 C 
ATOM     34  C   UNL     1       0.734  -0.273  -5.965  0.00  0.00    -0.097 C 
ATOM     35  H   UNL     1      -0.253  -1.936  -5.312  0.00  0.00    -0.083 HD
ENDBRANCH  31  32
ENDBRANCH  30  31
ENDBRANCH  21  30
ENDBRANCH  20  21
ENDBRANCH   1  20
TORSDOF 7
