REMARK  Name = ZINC03395828
REMARK  9 active torsions:
REMARK  status: ('A' for Active; 'I' for Inactive)
REMARK    1  A    between atoms: C_1  and  C_2
REMARK    2  A    between atoms: C_5  and  C_34
REMARK    3  A    between atoms: C_6  and  N_8
REMARK    4  A    between atoms: C_17  and  S_18
REMARK    5  A    between atoms: S_18  and  C_19
REMARK    6  A    between atoms: C_19  and  C_20
REMARK    7  A    between atoms: C_22  and  C_27
REMARK    8  A    between atoms: C_25  and  O_26
REMARK    9  A    between atoms: C_27  and  C_29
REMARK                            x       y       z     vdW  Elec       q    Type
REMARK                         _______ _______ _______ _____ _____    ______ ____
ROOT
ATOM      1  N   UNL     1       1.225   6.099   0.003  0.00  0.00    -0.255 N 
ATOM      2  C   UNL     1       1.743   4.849  -0.006  0.00  0.00    +0.268 A 
ATOM      3  O   UNL     1       2.946   4.647  -0.024  0.00  0.00    -0.267 OA
ATOM      4  C   UNL     1       0.793   3.777   0.006  0.00  0.00    +0.076 A 
ATOM      5  C   UNL     1       1.088   2.353  -0.001  0.00  0.00    -0.023 A 
ATOM      6  C   UNL     1       0.028   1.514   0.012  0.00  0.00    -0.004 A 
ATOM      7  S   UNL     1      -1.401   2.567   0.028  0.00  0.00    -0.073 S 
ATOM      8  C   UNL     1      -0.577   4.128   0.027  0.00  0.00    +0.117 A 
ATOM      9  N   UNL     1      -1.022   5.378   0.036  0.00  0.00    -0.215 NA
ATOM     10  C   UNL     1      -0.116   6.346   0.024  0.00  0.00    +0.178 A 
ATOM     11  C   UNL     1       0.057   0.016   0.007  0.00  0.00    +0.043 C 
ATOM     12  C   UNL     1       1.468  -0.442  -0.389  0.00  0.00    +0.005 C 
ATOM     13  C   UNL     1       2.489   0.346   0.437  0.00  0.00    +0.005 C 
ATOM     14  C   UNL     1       2.512   1.804  -0.022  0.00  0.00    +0.037 C 
ENDROOT
BRANCH   1  20
ATOM     15  C   UNL     1       3.849   9.394  -2.535  0.00  0.00    +0.044 C 
ATOM     16  C   UNL     1       3.393   8.805  -1.225  0.00  0.00    -0.048 A 
ATOM     17  C   UNL     1       3.844   9.341  -0.032  0.00  0.00    +0.004 A 
ATOM     18  C   UNL     1       3.428   8.804   1.172  0.00  0.00    +0.005 A 
ATOM     19  C   UNL     1       2.556   7.732   1.187  0.00  0.00    -0.026 A 
ATOM     20  C   UNL     1       2.106   7.189  -0.009  0.00  0.00    +0.055 A 
ATOM     21  C   UNL     1       2.525   7.731  -1.216  0.00  0.00    +0.030 A 
ATOM     22  C   UNL     1       2.099   7.150   2.499  0.00  0.00    +0.046 C 
ENDBRANCH   1  20
BRANCH  10  23
ATOM     23  S   UNL     1      -0.667   8.020   0.034  0.00  0.00    -0.082 S 
BRANCH  23  24
ATOM     24  C   UNL     1      -2.458   7.761   0.061  0.00  0.00    +0.116 C 
BRANCH  24  25
ATOM     25  C   UNL     1      -3.159   9.095   0.073  0.00  0.00    +0.005 A 
ATOM     26  C   UNL     1      -3.466   9.700   1.270  0.00  0.00    +0.019 A 
ATOM     27  C   UNL     1      -4.113  10.942   1.276  0.00  0.00    +0.018 A 
ATOM     28  C   UNL     1      -4.452  11.555   0.063  0.00  0.00    +0.015 A 
ATOM     29  C   UNL     1      -4.148  10.943  -1.120  0.00  0.00    +0.046 A 
ATOM     30  C   UNL     1      -3.500   9.712  -1.126  0.00  0.00    +0.121 A 
BRANCH  27  31
ATOM     31  C   UNL     1      -4.438  11.598   2.549  0.00  0.00    +0.160 C 
ATOM     32  O   UNL     1      -4.912  12.715   2.552  0.00  0.00    -0.292 OA
ATOM     33  C   UNL     1      -4.185  10.884   3.851  0.00  0.00    +0.091 C 
ENDBRANCH  27  31
BRANCH  30  34
ATOM     34  O   UNL     1      -3.201   9.111  -2.304  0.00  0.00    -0.506 OA
ATOM     35  H   UNL     1      -3.897   8.526  -2.635  0.00  0.00    +0.292 HD
ENDBRANCH  30  34
ENDBRANCH  24  25
ENDBRANCH  23  24
ENDBRANCH  10  23
TORSDOF 6
