REMARK  Name = ZINC33278778
REMARK  7 active torsions:
REMARK  status: ('A' for Active; 'I' for Inactive)
REMARK    1  A    between atoms: C_7  and  C_22
REMARK    2  A    between atoms: N_9  and  C_10
REMARK    3  A    between atoms: C_10  and  C_11
REMARK    4  A    between atoms: N_13  and  C_14
REMARK    5  A    between atoms: C_14  and  C_15
REMARK    6  A    between atoms: C_25  and  C_27
REMARK    7  A    between atoms: C_27  and  N_28
REMARK                            x       y       z     vdW  Elec       q    Type
REMARK                         _______ _______ _______ _____ _____    ______ ____
ROOT
ATOM      1  C   UNL     1      -1.245   3.138   0.031  0.00  0.00    +0.001 A 
ATOM      2  C   UNL     1      -1.214   1.751   0.017  0.00  0.00    +0.002 A 
ATOM      3  C   UNL     1      -0.013   1.076   0.008  0.00  0.00    +0.026 A 
ATOM      4  C   UNL     1       1.182   1.790   0.000  0.00  0.00    +0.050 A 
ATOM      5  C   UNL     1       1.142   3.194   0.008  0.00  0.00    +0.012 A 
ATOM      6  C   UNL     1      -0.083   3.858   0.024  0.00  0.00    +0.011 A 
ATOM      7  C   UNL     1       2.547   3.639  -0.003  0.00  0.00    +0.064 A 
ATOM      8  C   UNL     1       3.310   2.515  -0.016  0.00  0.00    +0.100 A 
ATOM      9  N   UNL     1       2.508   1.414  -0.014  0.00  0.00    -0.337 N 
ENDROOT
BRANCH   7  10
ATOM     10  C   UNL     1       3.030   5.033  -0.001  0.00  0.00    +0.250 A 
ATOM     11  N   UNL     1       2.286   6.116   0.006  0.00  0.00    -0.107 NA
ATOM     12  N   UNL     1       3.047   7.154   0.009  0.00  0.00    -0.114 NA
ATOM     13  C   UNL     1       4.295   6.779  -0.005  0.00  0.00    +0.202 A 
ATOM     14  O   UNL     1       4.317   5.434  -0.011  0.00  0.00    -0.422 OA
BRANCH  13  15
ATOM     15  C   UNL     1       5.496   7.689  -0.013  0.00  0.00    +0.021 C 
BRANCH  15  16
ATOM     16  N   UNL     1       5.900   7.979   1.370  0.00  0.00    +0.386 N 
ATOM     17  C   UNL     1       4.869   8.758   2.067  0.00  0.00    -0.078 C 
ATOM     18  C   UNL     1       5.255   8.916   3.539  0.00  0.00    -0.019 C 
ATOM     19  C   UNL     1       6.609   9.625   3.634  0.00  0.00    -0.004 C 
ATOM     20  C   UNL     1       7.654   8.818   2.859  0.00  0.00    -0.019 C 
ATOM     21  C   UNL     1       7.199   8.663   1.406  0.00  0.00    -0.078 C 
ATOM     22  H   UNL     1       6.011   7.021   1.899  0.00  0.00    -0.081 HD
ENDBRANCH  15  16
ENDBRANCH  13  15
ENDBRANCH   7  10
BRANCH   9  23
ATOM     23  C   UNL     1       2.986   0.029  -0.027  0.00  0.00    +0.217 C 
BRANCH  23  24
ATOM     24  C   UNL     1       3.019  -0.478  -1.446  0.00  0.00    +0.233 C 
ATOM     25  O   UNL     1       2.677   0.246  -2.357  0.00  0.00    -0.274 OA
ATOM     26  N   UNL     1       3.428  -1.736  -1.702  0.00  0.00    -0.310 N 
ATOM     27  H   UNL     1       3.738  -2.393  -0.876  0.00  0.00    +0.149 HD
BRANCH  26  28
ATOM     28  C   UNL     1       3.461  -2.229  -3.081  0.00  0.00    +0.139 C 
BRANCH  28  29
ATOM     29  C   UNL     1       3.952  -3.654  -3.094  0.00  0.00    -0.030 A 
ATOM     30  C   UNL     1       5.304  -3.917  -3.218  0.00  0.00    +0.006 A 
ATOM     31  C   UNL     1       5.756  -5.223  -3.225  0.00  0.00    +0.020 A 
ATOM     32  C   UNL     1       4.854  -6.267  -3.118  0.00  0.00    +0.041 A 
ATOM     33  C   UNL     1       3.501  -6.003  -2.999  0.00  0.00    +0.020 A 
ATOM     34  C   UNL     1       3.051  -4.696  -2.987  0.00  0.00    +0.006 A 
ATOM     35 CL   UNL     1       5.420  -7.908  -3.132  0.00  0.00    -0.084 Cl
ENDBRANCH  28  29
ENDBRANCH  26  28
ENDBRANCH  23  24
ENDBRANCH   9  23
TORSDOF 7
