REMARK  Name = ZINC01765458
REMARK  16 active torsions:
REMARK  status: ('A' for Active; 'I' for Inactive)
REMARK    1  A    between atoms: C_1  and  C_2
REMARK    2  A    between atoms: C_2  and  C_3
REMARK    3  A    between atoms: C_2  and  C_4
REMARK    4  A    between atoms: C_2  and  C_5
REMARK    5  A    between atoms: C_8  and  O_11
REMARK    6  A    between atoms: O_11  and  C_12
REMARK    7  A    between atoms: C_18  and  O_27
REMARK    8  A    between atoms: C_22  and  C_23
REMARK    9  A    between atoms: O_27  and  C_28
REMARK   10  A    between atoms: C_28  and  C_30
REMARK   11  A    between atoms: C_32  and  O_40
REMARK   12  A    between atoms: C_33  and  O_38
REMARK   13  A    between atoms: C_34  and  O_36
REMARK   14  A    between atoms: O_36  and  C_37
REMARK   15  A    between atoms: O_38  and  C_39
REMARK   16  A    between atoms: O_40  and  C_41
REMARK                            x       y       z     vdW  Elec       q    Type
REMARK                         _______ _______ _______ _____ _____    ______ ____
ROOT
ATOM      1  C   UNL     1      -1.302   3.422   0.092  0.00  0.00    +0.222 A 
ATOM      2  C   UNL     1      -1.190   4.128  -1.139  0.00  0.00    +0.235 A 
ATOM      3  O   UNL     1      -1.131   3.541  -2.206  0.00  0.00    -0.283 OA
ATOM      4  C   UNL     1      -1.148   5.600  -1.070  0.00  0.00    +0.068 A 
ATOM      5  C   UNL     1      -1.040   6.379  -2.223  0.00  0.00    +0.019 A 
ATOM      6  C   UNL     1      -1.003   7.740  -2.119  0.00  0.00    +0.047 A 
ATOM      7  C   UNL     1      -1.074   8.354  -0.870  0.00  0.00    +0.135 A 
ATOM      8  C   UNL     1      -1.181   7.595   0.283  0.00  0.00    +0.093 A 
ATOM      9  C   UNL     1      -1.220   6.210   0.195  0.00  0.00    +0.143 A 
ATOM     10  O   UNL     1      -1.324   5.447   1.301  0.00  0.00    -0.447 OA
ATOM     11  C   UNL     1      -1.368   4.109   1.250  0.00  0.00    +0.254 A 
ENDROOT
BRANCH  11  12
ATOM     12  C   UNL     1      -1.492   3.341   2.540  0.00  0.00    +0.454 C 
ATOM     13  F   UNL     1      -0.216   3.060   3.040  0.00  0.00    -0.163 F 
ATOM     14  F   UNL     1      -2.201   4.106   3.472  0.00  0.00    -0.163 F 
ATOM     15  F   UNL     1      -2.175   2.142   2.305  0.00  0.00    -0.163 F 
ENDBRANCH  11  12
BRANCH   1  16
ATOM     16  O   UNL     1      -1.346   2.061   0.100  0.00  0.00    -0.448 OA
BRANCH  16  20
ATOM     17  C   UNL     1       2.222   0.008   0.360  0.00  0.00    -0.042 A 
ATOM     18  C   UNL     1       1.029  -0.688   0.286  0.00  0.00    +0.008 A 
ATOM     19  C   UNL     1      -0.167  -0.003   0.200  0.00  0.00    +0.046 A 
ATOM     20  C   UNL     1      -0.171   1.385   0.189  0.00  0.00    +0.129 A 
ATOM     21  C   UNL     1       1.027   2.081   0.264  0.00  0.00    +0.046 A 
ATOM     22  C   UNL     1       2.221   1.390   0.350  0.00  0.00    +0.008 A 
BRANCH  17  24
ATOM     23  C   UNL     1       3.692  -1.632  -0.780  0.00  0.00    +0.015 C 
ATOM     24  C   UNL     1       3.526  -0.743   0.453  0.00  0.00    -0.013 C 
ATOM     25  C   UNL     1       4.684   0.255   0.523  0.00  0.00    +0.015 C 
ATOM     26  C   UNL     1       3.525  -1.612   1.712  0.00  0.00    +0.015 C 
ENDBRANCH  17  24
ENDBRANCH  16  20
ENDBRANCH   1  16
BRANCH   7  27
ATOM     27  O   UNL     1      -1.036   9.708  -0.782  0.00  0.00    -0.422 OA
BRANCH  27  28
ATOM     28  C   UNL     1       0.067  10.256  -0.235  0.00  0.00    +0.345 C 
ATOM     29  O   UNL     1       1.014   9.552   0.056  0.00  0.00    -0.245 OA
BRANCH  28  30
ATOM     30  C   UNL     1       0.126  11.709   0.009  0.00  0.00    +0.067 A 
ATOM     31  C   UNL     1      -0.960  12.520  -0.331  0.00  0.00    +0.064 A 
ATOM     32  C   UNL     1      -0.904  13.881  -0.096  0.00  0.00    +0.166 A 
ATOM     33  C   UNL     1       0.236  14.446   0.469  0.00  0.00    +0.204 A 
ATOM     34  C   UNL     1       1.322  13.640   0.804  0.00  0.00    +0.166 A 
ATOM     35  C   UNL     1       1.270  12.278   0.576  0.00  0.00    +0.064 A 
BRANCH  34  36
ATOM     36  O   UNL     1       2.435  14.195   1.355  0.00  0.00    -0.491 OA
ATOM     37  C   UNL     1       3.511  13.310   1.673  0.00  0.00    +0.277 C 
ENDBRANCH  34  36
BRANCH  33  38
ATOM     38  O   UNL     1       0.291  15.785   0.693  0.00  0.00    -0.488 OA
ATOM     39  C   UNL     1       0.805  16.599  -0.362  0.00  0.00    +0.277 C 
ENDBRANCH  33  38
BRANCH  32  40
ATOM     40  O   UNL     1      -1.963  14.671  -0.422  0.00  0.00    -0.491 OA
ATOM     41  C   UNL     1      -3.101  14.025  -0.997  0.00  0.00    +0.277 C 
ENDBRANCH  32  40
ENDBRANCH  28  30
ENDBRANCH  27  28
ENDBRANCH   7  27
TORSDOF 10
