REMARK  Name = ZINC38702724
REMARK  3 active torsions:
REMARK  status: ('A' for Active; 'I' for Inactive)
REMARK    1  A    between atoms: C_4  and  O_7
REMARK    2  A    between atoms: O_7  and  C_8
REMARK    3  A    between atoms: C_12  and  C_14
REMARK                            x       y       z     vdW  Elec       q    Type
REMARK                         _______ _______ _______ _____ _____    ______ ____
ROOT
ATOM      1  C   UNL     1       6.303  -4.682   0.145  0.00  0.00    +0.142 C 
ATOM      2  C   UNL     1       6.697  -5.178  -1.207  0.00  0.00    +0.072 A 
ATOM      3  C   UNL     1       6.924  -4.467  -2.470  0.00  0.00    +0.199 A 
ATOM      4  O   UNL     1       6.982  -3.253  -2.550  0.00  0.00    -0.287 OA
ATOM      5  C   UNL     1       7.077  -5.367  -3.640  0.00  0.00    +0.065 A 
ATOM      6  C   UNL     1       7.099  -4.846  -4.934  0.00  0.00    +0.030 A 
ATOM      7  C   UNL     1       7.237  -5.697  -6.008  0.00  0.00    +0.019 A 
ATOM      8  C   UNL     1       7.351  -7.066  -5.802  0.00  0.00    +0.019 A 
ATOM      9  C   UNL     1       7.333  -7.591  -4.530  0.00  0.00    +0.048 A 
ATOM     10  C   UNL     1       7.197  -6.750  -3.425  0.00  0.00    +0.140 A 
ATOM     11  O   UNL     1       7.191  -7.292  -2.186  0.00  0.00    -0.450 OA
ATOM     12  C   UNL     1       6.834  -6.535  -1.129  0.00  0.00    +0.199 A 
ATOM     13  C   UNL     1       6.531  -6.952   0.252  0.00  0.00    +0.281 C 
ATOM     14  O   UNL     1       6.558  -8.097   0.654  0.00  0.00    -0.267 OA
ATOM     15  N   UNL     1       6.222  -5.874   1.004  0.00  0.00    -0.298 N 
ATOM     16 BR   UNL     1       7.269  -5.001  -7.766  0.00  0.00    -0.050 Br
ATOM     17  H   UNL     1       5.987  -5.884   1.946  0.00  0.00    +0.150 HD
ENDROOT
BRANCH   1  22
ATOM     18  C   UNL     1       3.657  -1.988  -0.010  0.00  0.00    +0.129 A 
ATOM     19  C   UNL     1       2.495  -2.747  -0.046  0.00  0.00    +0.046 A 
ATOM     20  C   UNL     1       2.571  -4.125  -0.020  0.00  0.00    +0.004 A 
ATOM     21  C   UNL     1       3.803  -4.750   0.042  0.00  0.00    +0.006 A 
ATOM     22  C   UNL     1       4.962  -3.997   0.077  0.00  0.00    -0.019 A 
ATOM     23  C   UNL     1       4.892  -2.618   0.046  0.00  0.00    +0.052 A 
BRANCH  18  24
ATOM     24  O   UNL     1       3.586  -0.632  -0.036  0.00  0.00    -0.456 OA
BRANCH  24  28
ATOM     25  C   UNL     1       3.335   1.363   3.566  0.00  0.00    +0.000 A 
ATOM     26  C   UNL     1       3.417  -0.017   3.546  0.00  0.00    +0.004 A 
ATOM     27  C   UNL     1       3.501  -0.687   2.341  0.00  0.00    +0.046 A 
ATOM     28  C   UNL     1       3.503   0.025   1.150  0.00  0.00    +0.128 A 
ATOM     29  C   UNL     1       3.420   1.410   1.174  0.00  0.00    +0.046 A 
ATOM     30  C   UNL     1       3.336   2.076   2.381  0.00  0.00    +0.004 A 
ENDBRANCH  24  28
ENDBRANCH  18  24
ENDBRANCH   1  22
TORSDOF 3
