REMARK  Name = ZINC15946949
REMARK  9 active torsions:
REMARK  status: ('A' for Active; 'I' for Inactive)
REMARK    1  A    between atoms: C_1  and  O_2
REMARK    2  A    between atoms: O_2  and  C_3
REMARK    3  A    between atoms: C_8  and  N_9
REMARK    4  A    between atoms: C_10  and  C_12
REMARK    5  A    between atoms: C_16  and  N_17
REMARK    6  A    between atoms: C_18  and  C_20
REMARK    7  A    between atoms: C_20  and  N_21
REMARK    8  A    between atoms: N_21  and  C_22
REMARK    9  A    between atoms: C_22  and  C_23
REMARK                            x       y       z     vdW  Elec       q    Type
REMARK                         _______ _______ _______ _____ _____    ______ ____
ROOT
ATOM      1  C   UNL     1      -0.628  -4.928   0.778  0.00  0.00    +0.069 A 
ATOM      2  C   UNL     1      -2.039  -5.264   0.645  0.00  0.00    -0.023 A 
ATOM      3  C   UNL     1      -2.522  -6.009   1.661  0.00  0.00    -0.004 A 
ATOM      4  S   UNL     1      -1.137  -6.255   2.738  0.00  0.00    -0.077 S 
ATOM      5  C   UNL     1       0.038  -5.407   1.893  0.00  0.00    +0.084 A 
ATOM      6  C   UNL     1      -3.921  -6.507   1.845  0.00  0.00    +0.043 C 
ATOM      7  C   UNL     1      -4.397  -7.163   0.542  0.00  0.00    +0.005 C 
ATOM      8  C   UNL     1      -5.045  -6.095  -0.333  0.00  0.00    +0.001 C 
ATOM      9  C   UNL     1      -4.355  -4.749  -0.120  0.00  0.00    +0.005 C 
ATOM     10  C   UNL     1      -2.890  -4.829  -0.539  0.00  0.00    +0.037 C 
ENDROOT
BRANCH   1  12
ATOM     11  N   UNL     1       0.096  -2.777  -0.113  0.00  0.00    -0.278 N 
ATOM     12  C   UNL     1       0.061  -4.119  -0.233  0.00  0.00    +0.251 C 
ATOM     13  O   UNL     1       0.601  -4.660  -1.180  0.00  0.00    -0.270 OA
ATOM     14  H   UNL     1      -0.278  -2.351   0.675  0.00  0.00    +0.155 HD
BRANCH  11  20
ATOM     15  C   UNL     1       0.141  -0.747  -1.430  0.00  0.00    +0.141 A 
ATOM     16  C   UNL     1       0.719   0.022  -2.427  0.00  0.00    +0.047 A 
ATOM     17  C   UNL     1       1.815  -0.456  -3.121  0.00  0.00    +0.004 A 
ATOM     18  C   UNL     1       2.339  -1.700  -2.822  0.00  0.00    +0.002 A 
ATOM     19  C   UNL     1       1.769  -2.473  -1.828  0.00  0.00    +0.027 A 
ATOM     20  C   UNL     1       0.672  -1.998  -1.124  0.00  0.00    +0.076 A 
BRANCH  15  22
ATOM     21  C   UNL     1      -1.427   1.012  -1.115  0.00  0.00    +0.277 C 
ATOM     22  O   UNL     1      -0.937  -0.279  -0.747  0.00  0.00    -0.493 OA
ENDBRANCH  15  22
ENDBRANCH  11  20
ENDBRANCH   1  12
BRANCH   5  23
ATOM     23  N   UNL     1       1.370  -5.226   2.233  0.00  0.00    -0.278 N 
ATOM     24  C   UNL     1       1.856  -5.769   3.367  0.00  0.00    +0.231 C 
ATOM     25  O   UNL     1       1.127  -6.416   4.090  0.00  0.00    -0.274 OA
ATOM     26  H   UNL     1       1.953  -4.708   1.655  0.00  0.00    +0.155 HD
BRANCH  24  27
ATOM     27  C   UNL     1       3.303  -5.572   3.738  0.00  0.00    +0.178 C 
BRANCH  27  28
ATOM     28  N   UNL     1       3.581  -6.257   5.007  0.00  0.00    -0.304 NA
ATOM     29  H   UNL     1       2.960  -5.936   5.735  0.00  0.00    +0.123 HD
BRANCH  28  30
ATOM     30  C   UNL     1       4.986  -6.086   5.401  0.00  0.00    +0.116 C 
BRANCH  30  31
ATOM     31  C   UNL     1       5.233  -6.800   6.704  0.00  0.00    -0.034 A 
ATOM     32  C   UNL     1       5.052  -6.135   7.902  0.00  0.00    +0.005 A 
ATOM     33  C   UNL     1       5.279  -6.790   9.098  0.00  0.00    +0.000 A 
ATOM     34  C   UNL     1       5.686  -8.111   9.096  0.00  0.00    +0.000 A 
ATOM     35  C   UNL     1       5.866  -8.777   7.898  0.00  0.00    +0.000 A 
ATOM     36  C   UNL     1       5.635  -8.123   6.702  0.00  0.00    +0.005 A 
ENDBRANCH  30  31
ENDBRANCH  28  30
ENDBRANCH  27  28
ENDBRANCH  24  27
ENDBRANCH   5  23
TORSDOF 8
