REMARK  Name = ZINC16780750
REMARK  12 active torsions:
REMARK  status: ('A' for Active; 'I' for Inactive)
REMARK    1  A    between atoms: C_1  and  C_2
REMARK    2  A    between atoms: C_2  and  N_58
REMARK    3  A    between atoms: C_3  and  C_4
REMARK    4  A    between atoms: C_3  and  N_58
REMARK    5  A    between atoms: C_5  and  C_6
REMARK    6  A    between atoms: C_5  and  N_58
REMARK    7  A    between atoms: C_9  and  C_12
REMARK    8  A    between atoms: C_12  and  N_13
REMARK    9  A    between atoms: C_14  and  C_16
REMARK   10  A    between atoms: C_18  and  S_23
REMARK   11  A    between atoms: S_23  and  N_26
REMARK   12  A    between atoms: N_26  and  C_27
REMARK                            x       y       z     vdW  Elec       q    Type
REMARK                         _______ _______ _______ _____ _____    ______ ____
ROOT
ATOM      1  N   UNL     1       1.127  -0.019   0.281  0.00  0.00    -0.307 N 
ATOM      2  C   UNL     1       2.420   0.359   0.300  0.00  0.00    +0.245 C 
ATOM      3  O   UNL     1       3.300  -0.479   0.248  0.00  0.00    -0.270 OA
ATOM      4  H   UNL     1       0.425   0.650   0.318  0.00  0.00    +0.149 HD
ENDROOT
BRANCH   2   5
ATOM      5  C   UNL     1       2.770   1.793   0.383  0.00  0.00    +0.052 A 
ATOM      6  C   UNL     1       1.762   2.758   0.437  0.00  0.00    +0.042 A 
ATOM      7  C   UNL     1       2.095   4.094   0.519  0.00  0.00    +0.106 A 
ATOM      8  C   UNL     1       3.424   4.480   0.538  0.00  0.00    +0.029 A 
ATOM      9  C   UNL     1       4.428   3.530   0.481  0.00  0.00    +0.018 A 
ATOM     10  C   UNL     1       4.109   2.188   0.403  0.00  0.00    +0.030 A 
ATOM     11 BR   UNL     1       5.482   0.890   0.325  0.00  0.00    -0.050 Br
BRANCH   7  12
ATOM     12  S   UNL     1       0.825   5.313   0.592  0.00  0.00    +0.059 S 
ATOM     13  O   UNL     1      -0.330   4.666   1.109  0.00  0.00    -0.153 OA
ATOM     14  O   UNL     1       1.397   6.458   1.210  0.00  0.00    -0.153 OA
BRANCH  12  15
ATOM     15  N   UNL     1       0.469   5.743  -0.967  0.00  0.00    -0.187 NA
ATOM     16  H   UNL     1       0.648   6.646  -1.273  0.00  0.00    +0.148 HD
BRANCH  15  17
ATOM     17  C   UNL     1      -0.117   4.761  -1.882  0.00  0.00    +0.077 C 
ATOM     18  C   UNL     1       0.270   4.854  -3.360  0.00  0.00    +0.022 C 
ATOM     19  C   UNL     1      -1.132   5.269  -2.908  0.00  0.00    +0.022 C 
ENDBRANCH  15  17
ENDBRANCH  12  15
ENDBRANCH   7  12
ENDBRANCH   2   5
BRANCH   1  20
ATOM     20  C   UNL     1       0.780  -1.440   0.198  0.00  0.00    +0.139 C 
BRANCH  20  24
ATOM     21  C   UNL     1      -3.469  -1.872   0.182  0.00  0.00    -0.064 A 
ATOM     22  C   UNL     1      -2.784  -1.731  -1.010  0.00  0.00    +0.002 A 
ATOM     23  C   UNL     1      -1.409  -1.592  -1.005  0.00  0.00    +0.005 A 
ATOM     24  C   UNL     1      -0.719  -1.593   0.192  0.00  0.00    -0.030 A 
ATOM     25  C   UNL     1      -1.403  -1.738   1.385  0.00  0.00    +0.005 A 
ATOM     26  C   UNL     1      -2.779  -1.873   1.380  0.00  0.00    +0.002 A 
BRANCH  21  27
ATOM     27  C   UNL     1      -4.969  -2.023   0.177  0.00  0.00    -0.043 C 
BRANCH  27  28
ATOM     28  N   UNL     1      -5.303  -3.461   0.114  0.00  0.00    +0.382 N 
ATOM     29  H   UNL     1      -4.791  -3.956   0.854  0.00  0.00    -0.081 HD
BRANCH  28  31
ATOM     30  C   UNL     1      -7.056  -3.514   1.816  0.00  0.00    -0.017 C 
ATOM     31  C   UNL     1      -6.753  -3.653   0.323  0.00  0.00    -0.082 C 
ENDBRANCH  28  31
BRANCH  28  32
ATOM     32  C   UNL     1      -4.904  -4.015  -1.198  0.00  0.00    -0.082 C 
ATOM     33  C   UNL     1      -4.914  -5.543  -1.109  0.00  0.00    -0.017 C 
ENDBRANCH  28  32
ENDBRANCH  27  28
ENDBRANCH  21  27
ENDBRANCH  20  24
ENDBRANCH   1  20
TORSDOF 10
