REMARK  Name = ZINC13063680
REMARK  12 active torsions:
REMARK  status: ('A' for Active; 'I' for Inactive)
REMARK    1  A    between atoms: C_1  and  C_2
REMARK    2  A    between atoms: C_2  and  C_3
REMARK    3  A    between atoms: C_10  and  C_15
REMARK    4  A    between atoms: C_15  and  N_69
REMARK    5  A    between atoms: C_16  and  C_17
REMARK    6  A    between atoms: C_16  and  N_69
REMARK    7  A    between atoms: C_23  and  C_25
REMARK    8  A    between atoms: C_23  and  C_27
REMARK    9  A    between atoms: C_23  and  N_69
REMARK   10  A    between atoms: C_25  and  C_26
REMARK   11  A    between atoms: N_31  and  C_32
REMARK   12  A    between atoms: C_32  and  C_33
REMARK                            x       y       z     vdW  Elec       q    Type
REMARK                         _______ _______ _______ _____ _____    ______ ____
ROOT
ATOM      1  N   UNL     1      -1.053   2.041   1.660  0.00  0.00    +0.392 N 
ATOM      2  H   UNL     1      -1.964   1.758   2.039  0.00  0.00    -0.080 HD
ENDROOT
BRANCH   1   3
ATOM      3  C   UNL     1      -0.901   1.475   0.303  0.00  0.00    -0.036 C 
BRANCH   3  11
ATOM      4  C   UNL     1      -4.514  -3.523  -0.204  0.00  0.00    -0.047 A 
ATOM      5  C   UNL     1      -3.547  -4.451   0.157  0.00  0.00    +0.005 A 
ATOM      6  C   UNL     1      -2.268  -4.048   0.473  0.00  0.00    +0.026 A 
ATOM      7  C   UNL     1      -1.940  -2.697   0.430  0.00  0.00    +0.049 A 
ATOM      8  C   UNL     1      -2.923  -1.758   0.063  0.00  0.00    -0.001 A 
ATOM      9  C   UNL     1      -4.215  -2.191  -0.253  0.00  0.00    +0.013 A 
ATOM     10  C   UNL     1      -2.568  -0.339   0.020  0.00  0.00    +0.017 A 
ATOM     11  C   UNL     1      -1.300   0.022   0.337  0.00  0.00    +0.001 A 
ATOM     12  C   UNL     1      -0.350  -0.960   0.693  0.00  0.00    +0.251 A 
ATOM     13  O   UNL     1       0.786  -0.614   0.969  0.00  0.00    -0.268 OA
ATOM     14  N   UNL     1      -0.668  -2.265   0.740  0.00  0.00    -0.322 N 
ATOM     15  H   UNL     1       0.009  -2.913   0.992  0.00  0.00    +0.169 HD
BRANCH   4  17
ATOM     16  C   UNL     1      -5.993  -4.284  -2.044  0.00  0.00    +0.009 C 
ATOM     17  C   UNL     1      -5.906  -3.989  -0.545  0.00  0.00    +0.032 C 
ENDBRANCH   4  17
ENDBRANCH   3  11
ENDBRANCH   1   3
BRANCH   1  18
ATOM     18  C   UNL     1       0.015   1.529   2.544  0.00  0.00    -0.042 C 
BRANCH  18  19
ATOM     19  C   UNL     1      -0.330   1.871   3.970  0.00  0.00    -0.064 A 
ATOM     20  C   UNL     1       0.198   3.006   4.556  0.00  0.00    +0.002 A 
ATOM     21  C   UNL     1      -0.122   3.323   5.862  0.00  0.00    +0.000 A 
ATOM     22  C   UNL     1      -0.962   2.498   6.587  0.00  0.00    +0.000 A 
ATOM     23  C   UNL     1      -1.486   1.360   6.004  0.00  0.00    +0.000 A 
ATOM     24  C   UNL     1      -1.169   1.046   4.695  0.00  0.00    +0.002 A 
ENDBRANCH  18  19
ENDBRANCH   1  18
BRANCH   1  25
ATOM     25  C   UNL     1      -0.996   3.517   1.601  0.00  0.00    +0.003 C 
BRANCH  25  26
ATOM     26  C   UNL     1      -2.372   4.039   1.276  0.00  0.00    +0.138 A 
ATOM     27  N   UNL     1      -3.182   3.585   0.351  0.00  0.00    -0.115 NA
ATOM     28  N   UNL     1      -4.259   4.292   0.384  0.00  0.00    -0.023 NA
ATOM     29  N   UNL     1      -4.157   5.184   1.306  0.00  0.00    -0.044 NA
ATOM     30  N   UNL     1      -3.009   5.057   1.883  0.00  0.00    -0.226 N 
BRANCH  30  31
ATOM     31  C   UNL     1      -2.495   5.870   2.987  0.00  0.00    +0.182 C 
BRANCH  31  32
ATOM     32  C   UNL     1      -1.754   7.059   2.433  0.00  0.00    -0.026 A 
ATOM     33  C   UNL     1      -0.398   6.971   2.180  0.00  0.00    +0.005 A 
ATOM     34  C   UNL     1       0.282   8.060   1.667  0.00  0.00    +0.000 A 
ATOM     35  C   UNL     1      -0.393   9.241   1.417  0.00  0.00    +0.000 A 
ATOM     36  C   UNL     1      -1.748   9.331   1.675  0.00  0.00    +0.000 A 
ATOM     37  C   UNL     1      -2.428   8.240   2.183  0.00  0.00    +0.005 A 
ENDBRANCH  31  32
ENDBRANCH  30  31
ENDBRANCH  25  26
BRANCH  25  38
ATOM     38  C   UNL     1      -0.010   3.970   0.522  0.00  0.00    -0.011 C 
ATOM     39  C   UNL     1       1.408   3.560   0.923  0.00  0.00    +0.002 C 
ENDBRANCH  25  38
ENDBRANCH   1  25
TORSDOF 10
