REMARK  Name = ZINC22965390
REMARK  7 active torsions:
REMARK  status: ('A' for Active; 'I' for Inactive)
REMARK    1  A    between atoms: C_1  and  C_2
REMARK    2  A    between atoms: C_5  and  N_8
REMARK    3  A    between atoms: N_8  and  C_9
REMARK    4  A    between atoms: C_9  and  C_10
REMARK    5  A    between atoms: C_15  and  C_17
REMARK    6  A    between atoms: C_17  and  C_18
REMARK    7  A    between atoms: C_21  and  C_23
REMARK                            x       y       z     vdW  Elec       q    Type
REMARK                         _______ _______ _______ _____ _____    ______ ____
ROOT
ATOM      1  N   UNL     1      -0.288   1.272  -2.443  0.00  0.00    -0.264 N 
ATOM      2  C   UNL     1      -0.599   1.789  -1.238  0.00  0.00    +0.226 C 
ATOM      3  O   UNL     1      -1.453   2.646  -1.147  0.00  0.00    -0.275 OA
ENDROOT
BRANCH   1   8
ATOM      4  C   UNL     1      -3.260   2.787  -7.032  0.00  0.00    +0.044 C 
ATOM      5  C   UNL     1      -2.471   2.385  -5.813  0.00  0.00    -0.050 A 
ATOM      6  C   UNL     1      -1.145   2.761  -5.694  0.00  0.00    +0.005 A 
ATOM      7  C   UNL     1      -0.419   2.394  -4.578  0.00  0.00    +0.024 A 
ATOM      8  C   UNL     1      -1.022   1.646  -3.575  0.00  0.00    +0.037 A 
ATOM      9  C   UNL     1      -2.351   1.266  -3.699  0.00  0.00    +0.024 A 
ATOM     10  C   UNL     1      -3.073   1.641  -4.816  0.00  0.00    +0.005 A 
ENDBRANCH   1   8
BRANCH   1  11
ATOM     11  C   UNL     1       0.817   0.319  -2.568  0.00  0.00    +0.187 C 
BRANCH  11  12
ATOM     12  C   UNL     1       0.294  -1.083  -2.383  0.00  0.00    +0.122 A 
ATOM     13  C   UNL     1      -0.163  -1.887  -3.359  0.00  0.00    +0.046 A 
ATOM     14  C   UNL     1      -0.549  -3.100  -2.742  0.00  0.00    +0.041 A 
ATOM     15  C   UNL     1      -0.304  -2.964  -1.427  0.00  0.00    +0.195 A 
ATOM     16  O   UNL     1       0.212  -1.742  -1.216  0.00  0.00    -0.466 OA
ENDBRANCH  11  12
ENDBRANCH   1  11
BRANCH   2  17
ATOM     17  C   UNL     1       0.115   1.303  -0.003  0.00  0.00    +0.152 C 
BRANCH  17  18
ATOM     18  C   UNL     1      -0.414   2.035   1.204  0.00  0.00    +0.058 A 
ATOM     19  C   UNL     1      -0.900   1.337   2.264  0.00  0.00    +0.071 A 
ATOM     20  S   UNL     1      -1.367   2.675   3.355  0.00  0.00    -0.072 S 
ATOM     21  C   UNL     1      -0.864   4.016   2.284  0.00  0.00    +0.144 A 
ATOM     22  N   UNL     1      -0.399   3.347   1.235  0.00  0.00    -0.240 NA
BRANCH  21  23
ATOM     23  C   UNL     1      -0.939   5.468   2.508  0.00  0.00    +0.160 A 
ATOM     24  C   UNL     1      -1.432   6.082   3.620  0.00  0.00    +0.052 A 
ATOM     25  C   UNL     1      -1.306   7.468   3.407  0.00  0.00    +0.042 A 
ATOM     26  C   UNL     1      -0.758   7.632   2.186  0.00  0.00    +0.196 A 
ATOM     27  O   UNL     1      -0.537   6.423   1.646  0.00  0.00    -0.461 OA
ENDBRANCH  21  23
ENDBRANCH  17  18
ENDBRANCH   2  17
TORSDOF 6
