REMARK  Name = ZINC22014999
REMARK  6 active torsions:
REMARK  status: ('A' for Active; 'I' for Inactive)
REMARK    1  A    between atoms: C_6  and  C_7
REMARK    2  A    between atoms: C_16  and  C_18
REMARK    3  A    between atoms: C_18  and  N_19
REMARK    4  A    between atoms: N_19  and  C_20
REMARK    5  A    between atoms: N_19  and  C_30
REMARK    6  A    between atoms: C_20  and  C_21
REMARK                            x       y       z     vdW  Elec       q    Type
REMARK                         _______ _______ _______ _____ _____    ______ ____
ROOT
ATOM      1  C   UNL     1       0.360  -0.754  -3.771  0.00  0.00    +0.004 A 
ATOM      2  C   UNL     1      -0.361   0.289  -3.293  0.00  0.00    +0.056 A 
ATOM      3  S   UNL     1      -1.945  -0.440  -2.923  0.00  0.00    -0.076 S 
ATOM      4  C   UNL     1      -1.607  -2.111  -3.413  0.00  0.00    +0.116 A 
ATOM      5  C   UNL     1      -0.275  -2.064  -3.858  0.00  0.00    +0.080 A 
ATOM      6  C   UNL     1       0.266  -3.304  -4.326  0.00  0.00    +0.260 A 
ATOM      7  O   UNL     1       1.415  -3.365  -4.728  0.00  0.00    -0.267 OA
ATOM      8  N   UNL     1      -0.513  -4.401  -4.316  0.00  0.00    -0.309 N 
ATOM      9  H   UNL     1      -0.152  -5.244  -4.632  0.00  0.00    +0.170 HD
ATOM     10  C   UNL     1      -1.795  -4.352  -3.871  0.00  0.00    +0.125 A 
ATOM     11  N   UNL     1      -2.314  -3.237  -3.428  0.00  0.00    -0.225 NA
ENDROOT
BRANCH   1  17
ATOM     12  C   UNL     1       2.097   0.471  -5.074  0.00  0.00    +0.011 A 
ATOM     13  C   UNL     1       3.406   0.642  -5.472  0.00  0.00    +0.039 A 
ATOM     14  C   UNL     1       4.392  -0.214  -5.008  0.00  0.00    +0.123 A 
ATOM     15  C   UNL     1       4.067  -1.246  -4.143  0.00  0.00    +0.039 A 
ATOM     16  C   UNL     1       2.760  -1.426  -3.739  0.00  0.00    +0.011 A 
ATOM     17  C   UNL     1       1.765  -0.566  -4.203  0.00  0.00    -0.016 A 
ATOM     18  F   UNL     1       5.673  -0.043  -5.401  0.00  0.00    -0.205 F 
ENDBRANCH   1  17
BRANCH  10  19
ATOM     19  C   UNL     1      -2.630  -5.606  -3.877  0.00  0.00    +0.159 C 
BRANCH  19  20
ATOM     20  N   UNL     1      -3.911  -5.345  -3.208  0.00  0.00    -0.288 NA
BRANCH  20  21
ATOM     21  C   UNL     1      -3.868  -5.770  -1.803  0.00  0.00    +0.057 C 
ATOM     22  C   UNL     1      -2.708  -5.064  -1.072  0.00  0.00    +0.019 C 
ATOM     23  C   UNL     1      -2.159  -6.140  -0.102  0.00  0.00    +0.002 C 
ATOM     24  C   UNL     1      -2.265  -7.439  -0.938  0.00  0.00    +0.002 C 
ATOM     25  C   UNL     1      -3.587  -7.281  -1.718  0.00  0.00    +0.019 C 
ENDBRANCH  20  21
BRANCH  20  26
ATOM     26  C   UNL     1      -5.019  -5.995  -3.921  0.00  0.00    +0.120 C 
BRANCH  26  27
ATOM     27  C   UNL     1      -6.331  -5.497  -3.371  0.00  0.00    -0.030 A 
ATOM     28  C   UNL     1      -6.987  -6.219  -2.391  0.00  0.00    +0.009 A 
ATOM     29  C   UNL     1      -8.190  -5.766  -1.883  0.00  0.00    +0.050 A 
ATOM     30  C   UNL     1      -8.742  -4.587  -2.356  0.00  0.00    +0.166 A 
ATOM     31  C   UNL     1      -8.082  -3.859  -3.344  0.00  0.00    +0.167 A 
ATOM     32  C   UNL     1      -6.874  -4.316  -3.844  0.00  0.00    +0.054 A 
ATOM     33  O   UNL     1      -8.822  -2.750  -3.636  0.00  0.00    -0.453 OA
ATOM     34  C   UNL     1     -10.137  -3.015  -3.114  0.00  0.00    +0.466 C 
ATOM     35  O   UNL     1      -9.895  -3.933  -2.030  0.00  0.00    -0.453 OA
ENDBRANCH  26  27
ENDBRANCH  20  26
ENDBRANCH  19  20
ENDBRANCH  10  19
TORSDOF 6
