REMARK  Name = ZINC01384118
REMARK  9 active torsions:
REMARK  status: ('A' for Active; 'I' for Inactive)
REMARK    1  A    between atoms: C_1  and  C_2
REMARK    2  A    between atoms: C_5  and  C_21
REMARK    3  A    between atoms: N_6  and  C_7
REMARK    4  A    between atoms: C_7  and  C_8
REMARK    5  A    between atoms: C_8  and  N_9
REMARK    6  A    between atoms: N_9  and  C_10
REMARK    7  A    between atoms: C_13  and  C_17
REMARK    8  A    between atoms: N_24  and  C_27
REMARK    9  A    between atoms: C_25  and  N_26
REMARK                            x       y       z     vdW  Elec       q    Type
REMARK                         _______ _______ _______ _____ _____    ______ ____
ROOT
ATOM      1  C   UNL     1       1.229   1.782   2.890  0.00  0.00    +0.088 C 
ATOM      2  C   UNL     1      -0.180   2.117   2.474  0.00  0.00    +0.131 A 
ATOM      3  N   UNL     1      -1.089   2.688   3.215  0.00  0.00    -0.134 NA
ATOM      4  N   UNL     1      -2.179   2.826   2.549  0.00  0.00    -0.129 NA
ATOM      5  C   UNL     1      -2.022   2.350   1.333  0.00  0.00    +0.169 A 
ATOM      6  N   UNL     1      -0.740   1.877   1.252  0.00  0.00    -0.309 N 
ENDROOT
BRANCH   5   7
ATOM      7  C   UNL     1      -3.037   2.327   0.260  0.00  0.00    +0.078 A 
ATOM      8  C   UNL     1      -2.844   2.715  -1.083  0.00  0.00    +0.148 A 
ATOM      9  N   UNL     1      -3.969   2.553  -1.724  0.00  0.00    -0.172 NA
ATOM     10  N   UNL     1      -4.934   2.059  -0.839  0.00  0.00    -0.218 N 
ATOM     11  C   UNL     1      -4.356   1.915   0.383  0.00  0.00    +0.131 A 
BRANCH  10  12
ATOM     12  C   UNL     1      -6.265   1.758  -1.159  0.00  0.00    +0.067 A 
ATOM     13  C   UNL     1      -6.901   0.685  -0.550  0.00  0.00    +0.028 A 
ATOM     14  C   UNL     1      -8.215   0.395  -0.862  0.00  0.00    +0.002 A 
ATOM     15  C   UNL     1      -8.893   1.165  -1.790  0.00  0.00    +0.000 A 
ATOM     16  C   UNL     1      -8.260   2.231  -2.401  0.00  0.00    +0.002 A 
ATOM     17  C   UNL     1      -6.948   2.530  -2.089  0.00  0.00    +0.028 A 
ENDBRANCH  10  12
BRANCH  11  18
ATOM     18  N   UNL     1      -4.969   1.449   1.535  0.00  0.00    -0.342 N 
ATOM     19  H   UNL     1      -4.465   1.387   2.361  0.00  0.00    +0.144 HD
ATOM     20  H   UNL     1      -5.902   1.184   1.514  0.00  0.00    +0.144 HD
ENDBRANCH  11  18
ENDBRANCH   5   7
BRANCH   6  21
ATOM     21  C   UNL     1      -0.100   1.251   0.093  0.00  0.00    +0.143 C 
BRANCH  21  22
ATOM     22  C   UNL     1      -0.419  -0.246   0.081  0.00  0.00    +0.123 C 
BRANCH  22  23
ATOM     23  N   UNL     1       0.221  -0.872  -1.078  0.00  0.00    -0.341 N 
ATOM     24  H   UNL     1       0.749  -0.336  -1.690  0.00  0.00    +0.146 HD
BRANCH  23  25
ATOM     25  C   UNL     1       0.072  -2.244  -1.302  0.00  0.00    +0.046 A 
ATOM     26  C   UNL     1      -0.683  -3.014  -0.427  0.00  0.00    +0.025 A 
ATOM     27  C   UNL     1      -0.829  -4.369  -0.652  0.00  0.00    +0.014 A 
ATOM     28  C   UNL     1      -0.225  -4.959  -1.746  0.00  0.00    +0.056 A 
ATOM     29  C   UNL     1       0.528  -4.196  -2.620  0.00  0.00    +0.034 A 
ATOM     30  C   UNL     1       0.674  -2.839  -2.405  0.00  0.00    +0.062 A 
ATOM     31 CL   UNL     1       1.613  -1.880  -3.506  0.00  0.00    -0.082 Cl
BRANCH  28  32
ATOM     32  C   UNL     1      -0.387  -6.438  -1.988  0.00  0.00    +0.417 C 
ATOM     33  F   UNL     1      -1.515  -6.659  -2.786  0.00  0.00    -0.166 F 
ATOM     34  F   UNL     1       0.748  -6.932  -2.639  0.00  0.00    -0.166 F 
ATOM     35  F   UNL     1      -0.545  -7.096  -0.764  0.00  0.00    -0.166 F 
ENDBRANCH  28  32
ENDBRANCH  23  25
ENDBRANCH  22  23
ENDBRANCH  21  22
ENDBRANCH   6  21
TORSDOF 8
