REMARK  Name = ZINC21796072
REMARK  12 active torsions:
REMARK  status: ('A' for Active; 'I' for Inactive)
REMARK    1  A    between atoms: C_1  and  C_2
REMARK    2  A    between atoms: C_5  and  C_9
REMARK    3  A    between atoms: C_7  and  C_8
REMARK    4  A    between atoms: C_12  and  C_14
REMARK    5  A    between atoms: C_14  and  C_15
REMARK    6  A    between atoms: C_15  and  C_16
REMARK    7  A    between atoms: C_16  and  O_18
REMARK    8  A    between atoms: O_18  and  C_19
REMARK    9  A    between atoms: C_19  and  C_20
REMARK   10  A    between atoms: N_22  and  C_23
REMARK   11  A    between atoms: C_28  and  C_29
REMARK   12  A    between atoms: C_29  and  C_31
REMARK                            x       y       z     vdW  Elec       q    Type
REMARK                         _______ _______ _______ _____ _____    ______ ____
ROOT
ATOM      1  O   UNL     1       2.395   1.065   0.008  0.00  0.00    -0.455 OA
ENDROOT
BRANCH   1   2
ATOM      2  C   UNL     1       3.627   1.598   0.013  0.00  0.00    +0.308 C 
ATOM      3  O   UNL     1       3.766   2.798   0.032  0.00  0.00    -0.251 OA
BRANCH   2   4
ATOM      4  C   UNL     1       4.837   0.699  -0.006  0.00  0.00    +0.130 C 
BRANCH   4   5
ATOM      5  C   UNL     1       6.106   1.553   0.004  0.00  0.00    +0.107 C 
BRANCH   5   9
ATOM      6  C   UNL     1       8.975  -0.589   0.639  0.00  0.00    +0.155 A 
ATOM      7  C   UNL     1       8.952  -0.554  -0.719  0.00  0.00    +0.161 A 
ATOM      8  N   UNL     1       7.916   0.215  -1.085  0.00  0.00    -0.221 NA
ATOM      9  C   UNL     1       7.316   0.654  -0.015  0.00  0.00    +0.197 A 
ATOM     10  O   UNL     1       7.944   0.172   1.067  0.00  0.00    -0.440 OA
BRANCH   6  15
ATOM     11  C   UNL     1      12.738  -3.433   3.934  0.00  0.00    +0.044 C 
ATOM     12  C   UNL     1      11.753  -2.688   3.071  0.00  0.00    -0.047 A 
ATOM     13  C   UNL     1      11.860  -2.750   1.693  0.00  0.00    +0.004 A 
ATOM     14  C   UNL     1      10.961  -2.070   0.897  0.00  0.00    +0.012 A 
ATOM     15  C   UNL     1       9.941  -1.319   1.485  0.00  0.00    +0.019 A 
ATOM     16  C   UNL     1       9.843  -1.257   2.876  0.00  0.00    +0.015 A 
ATOM     17  C   UNL     1      10.745  -1.945   3.660  0.00  0.00    -0.047 A 
ATOM     18  C   UNL     1      10.637  -1.883   5.162  0.00  0.00    +0.044 C 
ENDBRANCH   6  15
ENDBRANCH   5   9
ENDBRANCH   4   5
ENDBRANCH   2   4
ENDBRANCH   1   2
BRANCH   1  19
ATOM     19  C   UNL     1       1.276   1.991   0.027  0.00  0.00    +0.328 C 
BRANCH  19  20
ATOM     20  C   UNL     1      -0.017   1.216   0.019  0.00  0.00    +0.255 C 
ATOM     21  O   UNL     1       0.003   0.004  -0.001  0.00  0.00    -0.272 OA
ATOM     22  N   UNL     1      -1.194   1.871   0.028  0.00  0.00    -0.282 N 
ATOM     23  H   UNL     1      -1.214   2.967   0.121  0.00  0.00    +0.155 HD
BRANCH  22  24
ATOM     24  C   UNL     1      -2.388   1.161  -0.081  0.00  0.00    +0.048 A 
ATOM     25  C   UNL     1      -2.507  -0.090   0.503  0.00  0.00    +0.073 A 
ATOM     26  C   UNL     1      -3.693  -0.799   0.397  0.00  0.00    +0.168 A 
ATOM     27  C   UNL     1      -4.778  -0.255  -0.300  0.00  0.00    +0.167 A 
ATOM     28  C   UNL     1      -4.672   0.987  -0.885  0.00  0.00    +0.062 A 
ATOM     29  C   UNL     1      -3.477   1.713  -0.777  0.00  0.00    +0.042 A 
ATOM     30  O   UNL     1      -5.813  -1.146  -0.255  0.00  0.00    -0.453 OA
ATOM     31  C   UNL     1      -5.220  -2.404   0.120  0.00  0.00    +0.466 C 
ATOM     32  O   UNL     1      -4.054  -2.024   0.874  0.00  0.00    -0.453 OA
BRANCH  29  33
ATOM     33  C   UNL     1      -3.363   3.038  -1.393  0.00  0.00    +0.162 C 
ATOM     34  O   UNL     1      -2.298   3.620  -1.385  0.00  0.00    -0.292 OA
ATOM     35  C   UNL     1      -4.567   3.677  -2.035  0.00  0.00    +0.091 C 
ENDBRANCH  29  33
ENDBRANCH  22  24
ENDBRANCH  19  20
ENDBRANCH   1  19
TORSDOF 9
