REMARK  Name = ZINC32505120
REMARK  7 active torsions:
REMARK  status: ('A' for Active; 'I' for Inactive)
REMARK    1  A    between atoms: C_1  and  O_2
REMARK    2  A    between atoms: O_2  and  C_3
REMARK    3  A    between atoms: C_8  and  C_9
REMARK    4  A    between atoms: C_9  and  C_10
REMARK    5  A    between atoms: C_10  and  N_12
REMARK    6  A    between atoms: N_14  and  C_25
REMARK    7  A    between atoms: C_30  and  C_31
REMARK                            x       y       z     vdW  Elec       q    Type
REMARK                         _______ _______ _______ _____ _____    ______ ____
ROOT
ATOM      1  N   UNL     1      -1.561  -3.300   0.352  0.00  0.00    -0.159 NA
ATOM      2  C   UNL     1      -2.850  -3.620   0.360  0.00  0.00    +0.154 C 
ATOM      3  N   UNL     1      -3.802  -3.309  -0.616  0.00  0.00    -0.275 N 
ATOM      4  C   UNL     1      -5.082  -3.094  -0.002  0.00  0.00    +0.116 C 
ATOM      5  C   UNL     1      -6.365  -2.765  -0.734  0.00  0.00    +0.190 C 
ATOM      6  S   UNL     1      -7.603  -3.184   0.581  0.00  0.00    -0.028 S 
ATOM      7  O   UNL     1      -8.492  -4.175   0.083  0.00  0.00    -0.174 OA
ATOM      8  O   UNL     1      -8.128  -1.980   1.124  0.00  0.00    -0.174 OA
ATOM      9  C   UNL     1      -6.460  -3.961   1.819  0.00  0.00    +0.182 C 
ATOM     10  C   UNL     1      -5.356  -4.407   0.829  0.00  0.00    +0.097 C 
ATOM     11  S   UNL     1      -3.679  -4.494   1.551  0.00  0.00    -0.086 S 
ENDROOT
BRANCH   3  12
ATOM     12  C   UNL     1      -3.545  -3.220  -1.988  0.00  0.00    +0.047 A 
ATOM     13  C   UNL     1      -3.367  -1.978  -2.583  0.00  0.00    +0.024 A 
ATOM     14  C   UNL     1      -3.113  -1.893  -3.938  0.00  0.00    +0.002 A 
ATOM     15  C   UNL     1      -3.036  -3.044  -4.702  0.00  0.00    +0.001 A 
ATOM     16  C   UNL     1      -3.212  -4.282  -4.112  0.00  0.00    +0.014 A 
ATOM     17  C   UNL     1      -3.461  -4.373  -2.756  0.00  0.00    +0.076 A 
BRANCH  17  18
ATOM     18  C   UNL     1      -3.647  -5.723  -2.113  0.00  0.00    +0.419 C 
ATOM     19  F   UNL     1      -3.405  -6.727  -3.057  0.00  0.00    -0.166 F 
ATOM     20  F   UNL     1      -2.752  -5.860  -1.047  0.00  0.00    -0.166 F 
ATOM     21  F   UNL     1      -4.958  -5.837  -1.638  0.00  0.00    -0.166 F 
ENDBRANCH  17  18
ENDBRANCH   3  12
BRANCH   1  22
ATOM     22  C   UNL     1      -1.083  -2.485  -0.585  0.00  0.00    +0.243 C 
ATOM     23  O   UNL     1      -1.606  -1.404  -0.774  0.00  0.00    -0.273 OA
BRANCH  22  24
ATOM     24  C   UNL     1       0.105  -2.902  -1.412  0.00  0.00    +0.136 C 
BRANCH  24  30
ATOM     25  C   UNL     1       1.253  -0.752  -2.003  0.00  0.00    +0.124 A 
ATOM     26  C   UNL     1       1.567   0.251  -2.910  0.00  0.00    +0.046 A 
ATOM     27  C   UNL     1       1.067   0.197  -4.196  0.00  0.00    +0.004 A 
ATOM     28  C   UNL     1       0.256  -0.855  -4.581  0.00  0.00    +0.001 A 
ATOM     29  C   UNL     1      -0.058  -1.854  -3.680  0.00  0.00    +0.008 A 
ATOM     30  C   UNL     1       0.443  -1.808  -2.393  0.00  0.00    +0.003 A 
BRANCH  25  32
ATOM     31  C   UNL     1       2.571   0.415  -0.405  0.00  0.00    +0.277 C 
ATOM     32  O   UNL     1       1.743  -0.702  -0.736  0.00  0.00    -0.495 OA
ENDBRANCH  25  32
ENDBRANCH  24  30
ENDBRANCH  22  24
ENDBRANCH   1  22
TORSDOF 6
