REMARK  Name = ZINC09075898
REMARK  4 active torsions:
REMARK  status: ('A' for Active; 'I' for Inactive)
REMARK    1  A    between atoms: C_1  and  N_64
REMARK    2  A    between atoms: C_4  and  C_5
REMARK    3  A    between atoms: C_14  and  C_32
REMARK    4  A    between atoms: C_17  and  C_22
REMARK                            x       y       z     vdW  Elec       q    Type
REMARK                         _______ _______ _______ _____ _____    ______ ____
ROOT
ATOM      1  C   UNL     1      10.082   4.710  -2.997  0.00  0.00    -0.095 C 
ATOM      2  C   UNL     1      10.118   3.367  -5.016  0.00  0.00    -0.041 C 
ATOM      3  C   UNL     1       9.719   1.999  -5.532  0.00  0.00    -0.038 C 
ATOM      4  C   UNL     1      10.572   1.242  -6.240  0.00  0.00    +0.011 C 
ATOM      5  C   UNL     1       8.348   1.534  -5.223  0.00  0.00    +0.067 C 
ATOM      6  C   UNL     1       7.605   2.217  -4.329  0.00  0.00    -0.036 C 
ATOM      7  C   UNL     1       8.122   3.451  -3.646  0.00  0.00    -0.043 C 
ATOM      8  C   UNL     1       6.213   1.712  -4.020  0.00  0.00    +0.137 C 
ATOM      9  N   UNL     1       5.753   0.497  -4.741  0.00  0.00    -0.267 N 
ATOM     10  C   UNL     1       4.534  -0.142  -4.623  0.00  0.00    +0.050 C 
ATOM     11  C   UNL     1       4.267  -1.245  -5.345  0.00  0.00    +0.072 C 
ATOM     12  S   UNL     1       5.782  -1.461  -6.265  0.00  0.00    -0.060 S 
ATOM     13  C   UNL     1       6.662  -0.056  -5.614  0.00  0.00    +0.166 C 
ATOM     14  N   UNL     1       7.851   0.423  -5.834  0.00  0.00    -0.225 NA
ATOM     15  N   UNL     1       9.598   3.468  -3.631  0.00  0.00    +0.383 N 
ATOM     16  H   UNL     1       9.935   2.664  -3.089  0.00  0.00    -0.081 HD
ENDROOT
BRANCH  10  17
ATOM     17  C   UNL     1       3.510   0.395  -3.700  0.00  0.00    +0.001 A 
ATOM     18  C   UNL     1       3.123   1.732  -3.786  0.00  0.00    +0.013 A 
ATOM     19  C   UNL     1       2.169   2.230  -2.923  0.00  0.00    +0.050 A 
ATOM     20  C   UNL     1       1.593   1.406  -1.966  0.00  0.00    +0.162 A 
ATOM     21  C   UNL     1       1.973   0.071  -1.876  0.00  0.00    +0.163 A 
ATOM     22  C   UNL     1       2.931  -0.435  -2.739  0.00  0.00    +0.059 A 
ATOM     23  O   UNL     1       1.414  -0.752  -0.947  0.00  0.00    -0.485 OA
ATOM     24  C   UNL     1       0.732  -0.122   0.143  0.00  0.00    +0.270 C 
ATOM     25  C   UNL     1      -0.171   0.980  -0.428  0.00  0.00    +0.270 C 
ATOM     26  O   UNL     1       0.656   1.920  -1.122  0.00  0.00    -0.485 OA
ENDBRANCH  10  17
BRANCH   4  27
ATOM     27  C   UNL     1      11.868   1.796  -6.668  0.00  0.00    -0.025 A 
ATOM     28  C   UNL     1      11.965   3.134  -7.061  0.00  0.00    +0.008 A 
ATOM     29  C   UNL     1      13.182   3.647  -7.457  0.00  0.00    +0.001 A 
ATOM     30  C   UNL     1      14.305   2.838  -7.474  0.00  0.00    +0.000 A 
ATOM     31  C   UNL     1      14.216   1.512  -7.091  0.00  0.00    +0.001 A 
ATOM     32  C   UNL     1      13.007   0.986  -6.689  0.00  0.00    +0.008 A 
ENDBRANCH   4  27
BRANCH   8  33
ATOM     33  C   UNL     1       6.140   1.434  -2.541  0.00  0.00    -0.023 A 
ATOM     34  C   UNL     1       6.697   0.278  -2.026  0.00  0.00    +0.006 A 
ATOM     35  C   UNL     1       6.634   0.025  -0.669  0.00  0.00    +0.000 A 
ATOM     36  C   UNL     1       6.005   0.923   0.173  0.00  0.00    +0.000 A 
ATOM     37  C   UNL     1       5.442   2.076  -0.342  0.00  0.00    +0.000 A 
ATOM     38  C   UNL     1       5.510   2.332  -1.699  0.00  0.00    +0.006 A 
ENDBRANCH   8  33
TORSDOF 3
