REMARK  Name = ZINC09775622
REMARK  12 active torsions:
REMARK  status: ('A' for Active; 'I' for Inactive)
REMARK    1  A    between atoms: C_1  and  C_2
REMARK    2  A    between atoms: C_2  and  N_3
REMARK    3  A    between atoms: N_3  and  C_4
REMARK    4  A    between atoms: N_3  and  C_6
REMARK    5  A    between atoms: C_4  and  C_5
REMARK    6  A    between atoms: C_6  and  C_7
REMARK    7  A    between atoms: C_7  and  N_8
REMARK    8  A    between atoms: C_11  and  C_21
REMARK    9  A    between atoms: C_15  and  C_19
REMARK   10  A    between atoms: C_15  and  C_20
REMARK   11  A    between atoms: C_31  and  C_33
REMARK   12  A    between atoms: C_31  and  C_34
REMARK                            x       y       z     vdW  Elec       q    Type
REMARK                         _______ _______ _______ _____ _____    ______ ____
ROOT
ATOM      1  N   UNL     1      -1.382  -3.580  -1.830  0.00  0.00    -0.308 N 
ATOM      2  C   UNL     1      -1.429  -4.063  -3.109  0.00  0.00    +0.018 C 
ATOM      3  C   UNL     1      -2.050  -5.232  -3.370  0.00  0.00    +0.024 C 
ATOM      4  C   UNL     1      -2.701  -6.017  -2.262  0.00  0.00    +0.089 C 
ATOM      5  C   UNL     1      -2.173  -5.601  -0.914  0.00  0.00    +0.024 C 
ATOM      6  C   UNL     1      -1.540  -4.417  -0.760  0.00  0.00    +0.018 C 
ATOM      7  C   UNL     1      -0.995  -3.991   0.581  0.00  0.00    +0.058 C 
ATOM      8  C   UNL     1      -1.854  -4.590   1.698  0.00  0.00    -0.023 C 
ATOM      9  C   UNL     1      -1.849  -6.115   1.550  0.00  0.00    +0.086 C 
ATOM     10  C   UNL     1      -2.353  -6.473   0.173  0.00  0.00    +0.162 C 
ATOM     11  O   UNL     1      -2.913  -7.538  -0.002  0.00  0.00    -0.292 OA
ATOM     12  C   UNL     1      -1.270  -4.203   3.058  0.00  0.00    +0.011 C 
ATOM     13  C   UNL     1      -3.287  -4.067   1.581  0.00  0.00    +0.011 C 
ATOM     14  C   UNL     1      -2.111  -5.745  -4.678  0.00  0.00    +0.162 C 
ATOM     15  O   UNL     1      -2.663  -6.808  -4.878  0.00  0.00    -0.292 OA
ATOM     16  C   UNL     1      -1.503  -4.999  -5.835  0.00  0.00    +0.086 C 
ATOM     17  C   UNL     1      -1.519  -3.499  -5.525  0.00  0.00    -0.023 C 
ATOM     18  C   UNL     1      -0.772  -3.267  -4.209  0.00  0.00    +0.058 C 
ATOM     19  C   UNL     1      -2.964  -3.017  -5.388  0.00  0.00    +0.011 C 
ATOM     20  C   UNL     1      -0.822  -2.734  -6.653  0.00  0.00    +0.011 C 
ENDROOT
BRANCH   4  21
ATOM     21  C   UNL     1      -4.190  -5.786  -2.302  0.00  0.00    -0.033 A 
ATOM     22  C   UNL     1      -4.695  -4.507  -2.160  0.00  0.00    +0.005 A 
ATOM     23  C   UNL     1      -6.060  -4.294  -2.196  0.00  0.00    +0.003 A 
ATOM     24  C   UNL     1      -6.922  -5.360  -2.374  0.00  0.00    +0.038 A 
ATOM     25  C   UNL     1      -6.417  -6.641  -2.517  0.00  0.00    +0.124 A 
ATOM     26  C   UNL     1      -5.049  -6.853  -2.486  0.00  0.00    +0.043 A 
ATOM     27  F   UNL     1      -7.259  -7.684  -2.691  0.00  0.00    -0.205 F 
ENDBRANCH   4  21
BRANCH   1  28
ATOM     28  C   UNL     1      -1.155  -2.151  -1.604  0.00  0.00    +0.092 C 
BRANCH  28  29
ATOM     29  C   UNL     1       0.348  -1.884  -1.496  0.00  0.00    -0.059 C 
BRANCH  29  30
ATOM     30  N   UNL     1       0.576  -0.451  -1.269  0.00  0.00    +0.380 N 
ATOM     31  H   UNL     1       0.124   0.081  -1.998  0.00  0.00    -0.082 HD
BRANCH  30  33
ATOM     32  C   UNL     1       0.129   1.449   0.210  0.00  0.00    -0.017 C 
ATOM     33  C   UNL     1       0.019  -0.067   0.035  0.00  0.00    -0.082 C 
ENDBRANCH  30  33
BRANCH  30  34
ATOM     34  C   UNL     1       2.019  -0.176  -1.285  0.00  0.00    -0.082 C 
ATOM     35  C   UNL     1       2.573  -0.440  -2.687  0.00  0.00    -0.017 C 
ENDBRANCH  30  34
ENDBRANCH  29  30
ENDBRANCH  28  29
ENDBRANCH   1  28
TORSDOF 6
