REMARK  Name = ZINC01532761
REMARK  5 active torsions:
REMARK  status: ('A' for Active; 'I' for Inactive)
REMARK    1  A    between atoms: C_1  and  C_2
REMARK    2  A    between atoms: C_1  and  C_5
REMARK    3  A    between atoms: C_2  and  C_3
REMARK    4  A    between atoms: C_5  and  C_7
REMARK    5  A    between atoms: C_7  and  C_8
REMARK                            x       y       z     vdW  Elec       q    Type
REMARK                         _______ _______ _______ _____ _____    ______ ____
ROOT
ATOM      1  C   UNL     1      -3.794   1.665   0.029  0.00  0.00    +0.145 C 
ATOM      2  O   UNL     1      -3.810   2.873   0.036  0.00  0.00    -0.297 OA
ENDROOT
BRANCH   1   3
ATOM      3  C   UNL     1      -2.479   0.930   0.019  0.00  0.00    +0.086 C 
BRANCH   3   4
ATOM      4  C   UNL     1      -1.329   1.940   0.019  0.00  0.00    +0.132 C 
BRANCH   4   5
ATOM      5  C   UNL     1      -0.014   1.204   0.009  0.00  0.00    +0.356 C 
ATOM      6  O   UNL     1       0.002  -0.004   0.002  0.00  0.00    -0.246 OA
ATOM      7  O   UNL     1       1.139   1.891   0.001  0.00  0.00    -0.246 OA
ENDBRANCH   4   5
ENDBRANCH   3   4
ENDBRANCH   1   3
BRANCH   1   8
ATOM      8  C   UNL     1      -5.089   0.894   0.031  0.00  0.00    +0.199 C 
BRANCH   8   9
ATOM      9  C   UNL     1      -6.247   1.858   0.042  0.00  0.00    +0.363 C 
ATOM     10  O   UNL     1      -6.043   3.049   0.047  0.00  0.00    -0.246 OA
ATOM     11  O   UNL     1      -7.507   1.393   0.045  0.00  0.00    -0.246 OA
ENDBRANCH   8   9
ENDBRANCH   1   8
TORSDOF 5
