REMARK  Name = ZINC36764990
REMARK  4 active torsions:
REMARK  status: ('A' for Active; 'I' for Inactive)
REMARK    1  A    between atoms: C_1  and  C_2
REMARK    2  A    between atoms: C_7  and  C_9
REMARK    3  A    between atoms: C_7  and  N_18
REMARK    4  A    between atoms: C_11  and  C_14
REMARK                            x       y       z     vdW  Elec       q    Type
REMARK                         _______ _______ _______ _____ _____    ______ ____
ROOT
ATOM      1  C   UNL     1      -0.019   1.524   0.010  0.00  0.00    +0.007 C 
ATOM      2  C   UNL     1       0.002  -0.004   0.002  0.00  0.00    -0.015 C 
ATOM      3  C   UNL     1       0.627  -0.525  -1.285  0.00  0.00    +0.003 C 
ATOM      4  C   UNL     1       2.141  -0.325  -1.273  0.00  0.00    -0.001 C 
ATOM      5  C   UNL     1       2.734  -1.097  -0.096  0.00  0.00    -0.005 C 
ATOM      6  C   UNL     1       2.185  -0.560   1.223  0.00  0.00    -0.006 C 
ATOM      7  C   UNL     1       0.666  -0.561   1.247  0.00  0.00    -0.002 C 
ENDROOT
BRANCH   6   8
ATOM      8  C   UNL     1       2.674  -1.459   2.329  0.00  0.00    +0.161 A 
ATOM      9  N   UNL     1       3.950  -1.614   2.699  0.00  0.00    -0.190 NA
ATOM     10  C   UNL     1       4.031  -2.462   3.686  0.00  0.00    +0.332 A 
ATOM     11  O   UNL     1       2.794  -2.881   3.980  0.00  0.00    -0.329 OA
ATOM     12  N   UNL     1       1.923  -2.208   3.084  0.00  0.00    -0.062 NA
BRANCH  10  13
ATOM     13  C   UNL     1       5.298  -2.897   4.376  0.00  0.00    +0.472 C 
ATOM     14  F   UNL     1       5.560  -2.041   5.451  0.00  0.00    -0.162 F 
ATOM     15  F   UNL     1       5.148  -4.205   4.847  0.00  0.00    -0.162 F 
ATOM     16  F   UNL     1       6.363  -2.846   3.470  0.00  0.00    -0.162 F 
ENDBRANCH  10  13
ENDBRANCH   6   8
BRANCH   6  17
ATOM     17  N   UNL     1       2.717   0.786   1.476  0.00  0.00    +0.387 N 
ATOM     18  H   UNL     1       2.443   1.403   0.727  0.00  0.00    -0.089 HD
ATOM     19  H   UNL     1       2.350   1.133   2.349  0.00  0.00    -0.089 HD
ATOM     20  H   UNL     1       3.724   0.745   1.528  0.00  0.00    -0.089 HD
ENDBRANCH   6  17
TORSDOF 3
