REMARK  Name = ZINC38604547
REMARK  7 active torsions:
REMARK  status: ('A' for Active; 'I' for Inactive)
REMARK    1  A    between atoms: C_1  and  C_2
REMARK    2  A    between atoms: N_12  and  C_13
REMARK    3  A    between atoms: C_13  and  C_14
REMARK    4  A    between atoms: N_16  and  C_17
REMARK    5  A    between atoms: C_25  and  C_27
REMARK    6  A    between atoms: C_27  and  O_29
REMARK    7  A    between atoms: O_29  and  C_30
REMARK                            x       y       z     vdW  Elec       q    Type
REMARK                         _______ _______ _______ _____ _____    ______ ____
ROOT
ATOM      1  C   UNL     1       1.649   1.323   4.347  0.00  0.00    +0.234 C 
ATOM      2  O   UNL     1       0.649   0.928   3.786  0.00  0.00    -0.274 OA
ATOM      3  N   UNL     1       1.559   2.287   5.285  0.00  0.00    -0.285 N 
ATOM      4  H   UNL     1       2.354   2.582   5.755  0.00  0.00    +0.155 HD
ENDROOT
BRANCH   3   5
ATOM      5  C   UNL     1       0.350   2.847   5.572  0.00  0.00    +0.053 C 
ATOM      6  C   UNL     1       0.108   3.943   6.382  0.00  0.00    +0.019 A 
ATOM      7  C   UNL     1       0.967   4.787   7.128  0.00  0.00    +0.026 A 
ATOM      8  C   UNL     1       0.443   5.809   7.849  0.00  0.00    +0.019 A 
ATOM      9  C   UNL     1      -0.933   6.056   7.878  0.00  0.00    +0.017 A 
ATOM     10  C   UNL     1      -1.813   5.290   7.189  0.00  0.00    +0.027 A 
ATOM     11  C   UNL     1      -1.341   4.200   6.411  0.00  0.00    +0.045 A 
ATOM     12  N   UNL     1      -1.980   3.321   5.665  0.00  0.00    -0.367 N 
ATOM     13  C   UNL     1      -1.005   2.403   5.068  0.00  0.00    +0.234 C 
ATOM     14 BR   UNL     1       1.601   6.928   8.840  0.00  0.00    -0.050 Br
ATOM     15  H   UNL     1      -2.939   3.289   5.529  0.00  0.00    +0.161 HD
BRANCH  13  16
ATOM     16  C   UNL     1      -1.287   0.991   5.512  0.00  0.00    +0.335 C 
ATOM     17  O   UNL     1      -1.544   0.762   6.670  0.00  0.00    -0.248 OA
BRANCH  16  18
ATOM     18  O   UNL     1      -1.254  -0.013   4.621  0.00  0.00    -0.466 OA
ATOM     19  C   UNL     1      -1.531  -1.326   5.112  0.00  0.00    +0.280 C 
ENDBRANCH  16  18
ENDBRANCH  13  16
ENDBRANCH   3   5
BRANCH   1  20
ATOM     20  C   UNL     1       2.992   0.736   3.997  0.00  0.00    +0.201 C 
BRANCH  20  31
ATOM     21  C   UNL     1       2.750   1.595   1.382  0.00  0.00    +0.028 C 
ATOM     22  C   UNL     1       2.890   0.079   1.537  0.00  0.00    +0.071 C 
ATOM     23  C   UNL     1       1.733  -0.626   0.817  0.00  0.00    +0.027 C 
ATOM     24  C   UNL     1       1.932  -2.138   0.926  0.00  0.00    +0.039 C 
ATOM     25  C   UNL     1       2.162  -2.538   2.360  0.00  0.00    -0.024 A 
ATOM     26  C   UNL     1       1.936  -3.852   2.733  0.00  0.00    +0.043 A 
ATOM     27  C   UNL     1       2.141  -4.251   4.041  0.00  0.00    +0.124 A 
ATOM     28  C   UNL     1       2.575  -3.336   4.986  0.00  0.00    +0.040 A 
ATOM     29  C   UNL     1       2.802  -2.025   4.621  0.00  0.00    +0.026 A 
ATOM     30  C   UNL     1       2.594  -1.622   3.306  0.00  0.00    +0.034 A 
ATOM     31  N   UNL     1       2.823  -0.284   2.959  0.00  0.00    -0.318 N 
ATOM     32  F   UNL     1       1.917  -5.535   4.398  0.00  0.00    -0.205 F 
ENDBRANCH  20  31
ENDBRANCH   1  20
TORSDOF 5
