REMARK  Name = ZINC08424544
REMARK  7 active torsions:
REMARK  status: ('A' for Active; 'I' for Inactive)
REMARK    1  A    between atoms: C_1  and  N_2
REMARK    2  A    between atoms: N_2  and  C_3
REMARK    3  A    between atoms: N_2  and  C_4
REMARK    4  A    between atoms: C_7  and  C_13
REMARK    5  A    between atoms: C_9  and  N_10
REMARK    6  A    between atoms: N_14  and  N_15
REMARK    7  A    between atoms: C_16  and  C_17
REMARK                            x       y       z     vdW  Elec       q    Type
REMARK                         _______ _______ _______ _____ _____    ______ ____
ROOT
ATOM      1  C   UNL     1      -0.070  -3.576  -4.956  0.00  0.00    +0.140 C 
ATOM      2  N   UNL     1       1.183  -3.582  -5.457  0.00  0.00    -0.180 NA
ENDROOT
BRANCH   1   6
ATOM      3  C   UNL     1      -0.808  -1.911  -1.191  0.00  0.00    +0.060 A 
ATOM      4  C   UNL     1       0.502  -1.909  -1.697  0.00  0.00    +0.026 A 
ATOM      5  C   UNL     1       0.776  -2.441  -2.913  0.00  0.00    +0.011 A 
ATOM      6  C   UNL     1      -0.316  -3.022  -3.702  0.00  0.00    -0.003 A 
ATOM      7  C   UNL     1      -1.672  -3.007  -3.143  0.00  0.00    +0.044 A 
ATOM      8  C   UNL     1      -1.875  -2.464  -1.918  0.00  0.00    +0.148 A 
BRANCH   3  10
ATOM      9  C   UNL     1      -1.395   0.053   0.161  0.00  0.00    +0.129 C 
ATOM     10  N   UNL     1      -1.050  -1.366   0.042  0.00  0.00    -0.334 N 
ATOM     11  C   UNL     1      -0.964  -2.202   1.242  0.00  0.00    +0.129 C 
ENDBRANCH   3  10
BRANCH   8  12
ATOM     12  N   UNL     1      -3.239  -2.448  -1.342  0.00  0.00    +0.058 N 
ATOM     13  O   UNL     1      -4.245  -2.965  -2.017  0.00  0.00    -0.126 OA
ATOM     14  O   UNL     1      -3.446  -1.918  -0.154  0.00  0.00    -0.126 OA
ENDBRANCH   8  12
ENDBRANCH   1   6
BRANCH   2  15
ATOM     15  N   UNL     1       1.410  -4.095  -6.619  0.00  0.00    -0.263 N 
ATOM     16  C   UNL     1       2.677  -4.101  -7.125  0.00  0.00    +0.143 C 
ATOM     17  N   UNL     1       2.913  -4.635  -8.334  0.00  0.00    -0.342 N 
ATOM     18  H   UNL     1       2.172  -4.906  -8.898  0.00  0.00    +0.144 HD
ATOM     19  H   UNL     1       3.826  -4.750  -8.643  0.00  0.00    +0.144 HD
ATOM     20  H   UNL     1       0.681  -4.477  -7.132  0.00  0.00    +0.190 HD
BRANCH  16  21
ATOM     21  C   UNL     1       3.782  -3.523  -6.348  0.00  0.00    +0.187 A 
ATOM     22  C   UNL     1       5.063  -3.047  -6.891  0.00  0.00    +0.191 A 
ATOM     23  N   UNL     1       5.788  -2.603  -5.901  0.00  0.00    -0.033 NA
ATOM     24  O   UNL     1       5.044  -2.760  -4.707  0.00  0.00    -0.240 OA
ATOM     25  N   UNL     1       3.795  -3.336  -5.047  0.00  0.00    -0.044 NA
ATOM     26  N   UNL     1       5.437  -3.068  -8.225  0.00  0.00    -0.339 N 
ATOM     27  H   UNL     1       4.792  -3.315  -8.906  0.00  0.00    +0.144 HD
ATOM     28  H   UNL     1       6.345  -2.836  -8.479  0.00  0.00    +0.144 HD
ENDBRANCH  16  21
ENDBRANCH   2  15
TORSDOF 5
