REMARK  Name = ZINC67294787
REMARK  7 active torsions:
REMARK  status: ('A' for Active; 'I' for Inactive)
REMARK    1  A    between atoms: C_1  and  C_2
REMARK    2  A    between atoms: C_9  and  C_11
REMARK    3  A    between atoms: N_21  and  C_22
REMARK    4  A    between atoms: C_25  and  O_30
REMARK    5  A    between atoms: C_26  and  O_28
REMARK    6  A    between atoms: O_28  and  C_29
REMARK    7  A    between atoms: O_30  and  C_31
REMARK                            x       y       z     vdW  Elec       q    Type
REMARK                         _______ _______ _______ _____ _____    ______ ____
ROOT
ATOM      1  C   UNL     1      -0.171  -6.284  -0.944  0.00  0.00    +0.098 A 
ATOM      2  C   UNL     1      -0.157  -7.044  -2.106  0.00  0.00    +0.030 A 
ATOM      3  C   UNL     1      -0.206  -8.501  -1.958  0.00  0.00    +0.019 A 
ATOM      4  C   UNL     1       0.070  -9.341  -3.043  0.00  0.00    +0.026 A 
ATOM      5  C   UNL     1       0.020 -10.707  -2.877  0.00  0.00    +0.019 A 
ATOM      6  C   UNL     1      -0.303 -11.252  -1.641  0.00  0.00    +0.019 A 
ATOM      7  C   UNL     1      -0.579 -10.436  -0.563  0.00  0.00    +0.048 A 
ATOM      8  C   UNL     1      -0.535  -9.058  -0.708  0.00  0.00    +0.137 A 
ATOM      9  O   UNL     1      -0.811  -8.244   0.341  0.00  0.00    -0.439 OA
ATOM     10  C   UNL     1      -0.228  -7.016   0.337  0.00  0.00    +0.212 A 
ATOM     11  N   UNL     1       0.265  -6.493   1.438  0.00  0.00    -0.325 N 
ATOM     12 BR   UNL     1       0.392 -11.847  -4.339  0.00  0.00    -0.050 Br
ATOM     13  H   UNL     1       0.764  -5.662   1.400  0.00  0.00    +0.169 HD
ENDROOT
BRANCH   1  22
ATOM     14  C   UNL     1      -0.426   1.518   0.025  0.00  0.00    +0.045 C 
ATOM     15  C   UNL     1      -0.369   0.013   0.024  0.00  0.00    -0.032 A 
ATOM     16  C   UNL     1       0.212  -0.666  -1.039  0.00  0.00    +0.008 A 
ATOM     17  C   UNL     1       0.244  -2.049  -1.001  0.00  0.00    +0.044 A 
ATOM     18  C   UNL     1      -0.304  -2.708   0.094  0.00  0.00    +0.125 A 
ATOM     19  N   UNL     1      -0.849  -2.025   1.088  0.00  0.00    -0.240 NA
ATOM     20  C   UNL     1      -0.889  -0.706   1.082  0.00  0.00    +0.116 A 
ATOM     21  N   UNL     1      -0.279  -4.100   0.145  0.00  0.00    -0.266 N 
ATOM     22  C   UNL     1      -0.124  -4.813  -0.988  0.00  0.00    +0.254 C 
ATOM     23  O   UNL     1       0.055  -4.242  -2.047  0.00  0.00    -0.270 OA
ATOM     24  H   UNL     1      -0.373  -4.556   0.996  0.00  0.00    +0.157 HD
ENDBRANCH   1  22
BRANCH  11  25
ATOM     25  C   UNL     1       0.074  -7.121   2.639  0.00  0.00    +0.046 A 
ATOM     26  C   UNL     1      -1.184  -7.627   2.973  0.00  0.00    +0.029 A 
ATOM     27  C   UNL     1      -1.374  -8.260   4.184  0.00  0.00    +0.051 A 
ATOM     28  C   UNL     1      -0.318  -8.396   5.072  0.00  0.00    +0.162 A 
ATOM     29  C   UNL     1       0.939  -7.895   4.746  0.00  0.00    +0.163 A 
ATOM     30  C   UNL     1       1.139  -7.264   3.531  0.00  0.00    +0.075 A 
BRANCH  29  31
ATOM     31  O   UNL     1       1.973  -8.030   5.620  0.00  0.00    -0.491 OA
ATOM     32  C   UNL     1       3.235  -7.492   5.221  0.00  0.00    +0.277 C 
ENDBRANCH  29  31
BRANCH  28  33
ATOM     33  O   UNL     1      -0.511  -9.021   6.265  0.00  0.00    -0.491 OA
ATOM     34  C   UNL     1      -1.826  -9.511   6.536  0.00  0.00    +0.277 C 
ENDBRANCH  28  33
ENDBRANCH  11  25
TORSDOF 4
