REMARK  Name = ZINC39456606
REMARK  10 active torsions:
REMARK  status: ('A' for Active; 'I' for Inactive)
REMARK    1  A    between atoms: C_1  and  C_2
REMARK    2  A    between atoms: C_2  and  O_3
REMARK    3  A    between atoms: O_3  and  C_4
REMARK    4  A    between atoms: C_5  and  C_36
REMARK    5  A    between atoms: N_6  and  S_30
REMARK    6  A    between atoms: C_22  and  C_23
REMARK    7  A    between atoms: C_28  and  O_29
REMARK    8  A    between atoms: S_30  and  C_33
REMARK    9  A    between atoms: C_33  and  C_34
REMARK   10  A    between atoms: C_33  and  C_35
REMARK                            x       y       z     vdW  Elec       q    Type
REMARK                         _______ _______ _______ _____ _____    ______ ____
ROOT
ATOM      1  C   UNL     1       0.802  -1.827   1.306  0.00  0.00    +0.146 A 
ATOM      2  C   UNL     1      -0.081  -2.638   1.944  0.00  0.00    +0.082 A 
ATOM      3  N   UNL     1       0.381  -3.924   1.875  0.00  0.00    -0.214 N 
ATOM      4  C   UNL     1       1.566  -3.918   1.202  0.00  0.00    +0.098 A 
ATOM      5  C   UNL     1       1.840  -2.629   0.821  0.00  0.00    +0.024 A 
ATOM      6  C   UNL     1       3.037  -2.215   0.012  0.00  0.00    +0.049 C 
ATOM      7  C   UNL     1       4.316  -2.267   0.857  0.00  0.00    +0.084 C 
ATOM      8  C   UNL     1       4.315  -3.527   1.692  0.00  0.00    +0.166 C 
ATOM      9  O   UNL     1       4.664  -3.471   2.854  0.00  0.00    -0.292 OA
ATOM     10  C   UNL     1       3.904  -4.806   1.129  0.00  0.00    +0.053 A 
ATOM     11  C   UNL     1       2.476  -5.039   0.901  0.00  0.00    +0.101 A 
ATOM     12  N   UNL     1       2.053  -6.191   0.433  0.00  0.00    -0.244 NA
ATOM     13  C   UNL     1       2.903  -7.182   0.130  0.00  0.00    +0.072 A 
ATOM     14  C   UNL     1       2.410  -8.398  -0.377  0.00  0.00    +0.028 A 
ATOM     15  C   UNL     1       3.274  -9.400  -0.698  0.00  0.00    +0.002 A 
ATOM     16  C   UNL     1       4.647  -9.244  -0.531  0.00  0.00    +0.001 A 
ATOM     17  C   UNL     1       5.162  -8.082  -0.038  0.00  0.00    +0.010 A 
ATOM     18  C   UNL     1       4.300  -7.030   0.305  0.00  0.00    +0.009 A 
ATOM     19  C   UNL     1       4.816  -5.818   0.812  0.00  0.00    +0.007 A 
ATOM     20  C   UNL     1      -1.355  -2.196   2.616  0.00  0.00    +0.069 C 
ENDROOT
BRANCH  19  21
ATOM     21  C   UNL     1       6.266  -5.632   1.011  0.00  0.00    +0.025 A 
ATOM     22  C   UNL     1       6.861  -5.988   2.224  0.00  0.00    +0.012 A 
ATOM     23  C   UNL     1       8.216  -5.812   2.403  0.00  0.00    +0.001 A 
ATOM     24  C   UNL     1       8.992  -5.284   1.384  0.00  0.00    +0.004 A 
ATOM     25  C   UNL     1       8.417  -4.928   0.180  0.00  0.00    +0.046 A 
ATOM     26  C   UNL     1       7.056  -5.103  -0.019  0.00  0.00    +0.125 A 
BRANCH  26  27
ATOM     27  O   UNL     1       6.491  -4.759  -1.204  0.00  0.00    -0.506 OA
ATOM     28  H   UNL     1       6.181  -3.843  -1.241  0.00  0.00    +0.292 HD
ENDBRANCH  26  27
ENDBRANCH  19  21
BRANCH   3  29
ATOM     29  S   UNL     1      -0.372  -5.259   2.502  0.00  0.00    +0.058 S 
ATOM     30  O   UNL     1       0.678  -6.185   2.746  0.00  0.00    -0.153 OA
ATOM     31  O   UNL     1      -1.161  -4.760   3.574  0.00  0.00    -0.153 OA
BRANCH  29  32
ATOM     32  C   UNL     1      -1.440  -5.862   1.167  0.00  0.00    +0.148 C 
ATOM     33  C   UNL     1      -2.285  -7.031   1.678  0.00  0.00    +0.033 C 
ATOM     34  C   UNL     1      -2.361  -4.732   0.701  0.00  0.00    +0.033 C 
ENDBRANCH  29  32
ENDBRANCH   3  29
BRANCH   1  35
ATOM     35  O   UNL     1       0.693  -0.477   1.160  0.00  0.00    -0.490 OA
BRANCH  35  37
ATOM     36  C   UNL     1      -0.019   1.526   0.010  0.00  0.00    +0.048 C 
ATOM     37  C   UNL     1       0.002  -0.004   0.002  0.00  0.00    +0.226 C 
ENDBRANCH  35  37
ENDBRANCH   1  35
TORSDOF 6
