REMARK  Name = ZINC01788029
REMARK  9 active torsions:
REMARK  status: ('A' for Active; 'I' for Inactive)
REMARK    1  A    between atoms: C_1  and  C_2
REMARK    2  A    between atoms: C_2  and  C_3
REMARK    3  A    between atoms: C_3  and  O_4
REMARK    4  A    between atoms: O_4  and  C_5
REMARK    5  A    between atoms: C_10  and  N_11
REMARK    6  A    between atoms: C_12  and  C_14
REMARK    7  A    between atoms: C_14  and  C_15
REMARK    8  A    between atoms: C_22  and  C_28
REMARK    9  A    between atoms: C_23  and  C_27
REMARK                            x       y       z     vdW  Elec       q    Type
REMARK                         _______ _______ _______ _____ _____    ______ ____
ROOT
ATOM      1  C   UNL     1      -0.764   1.609  -1.217  0.00  0.00    +0.127 C 
ENDROOT
BRANCH   1   2
ATOM      2  C   UNL     1      -0.023   1.105   0.023  0.00  0.00    +0.166 C 
ATOM      3  C   UNL     1       1.387   1.638   0.020  0.00  0.00    +0.238 C 
ATOM      4  O   UNL     1       2.271   0.994  -0.505  0.00  0.00    -0.273 OA
ATOM      5  N   UNL     1       1.676   2.821   0.593  0.00  0.00    -0.282 N 
ATOM      6  C   UNL     1       0.708   3.522   1.320  0.00  0.00    +0.055 A 
ATOM      7  C   UNL     1       0.945   4.819   1.745  0.00  0.00    +0.028 A 
ATOM      8  C   UNL     1      -0.024   5.499   2.459  0.00  0.00    -0.046 A 
ATOM      9  C   UNL     1      -1.229   4.889   2.757  0.00  0.00    -0.046 A 
ATOM     10  C   UNL     1      -1.470   3.590   2.348  0.00  0.00    +0.028 A 
ATOM     11  C   UNL     1      -0.502   2.903   1.637  0.00  0.00    +0.049 A 
ATOM     12  N   UNL     1      -0.710   1.576   1.234  0.00  0.00    -0.331 N 
ATOM     13  C   UNL     1      -2.282   5.642   3.529  0.00  0.00    +0.044 C 
ATOM     14  C   UNL     1       0.233   6.913   2.914  0.00  0.00    +0.044 C 
ATOM     15  H   UNL     1       2.567   3.192   0.500  0.00  0.00    +0.155 HD
ATOM     16  H   UNL     1      -1.290   0.986   1.740  0.00  0.00    +0.147 HD
ENDBRANCH   1   2
BRANCH   1  18
ATOM     17  N   UNL     1      -2.970   1.281  -2.287  0.00  0.00    -0.283 N 
ATOM     18  C   UNL     1      -2.133   0.982  -1.274  0.00  0.00    +0.220 C 
ATOM     19  O   UNL     1      -2.482   0.207  -0.408  0.00  0.00    -0.275 OA
ATOM     20  H   UNL     1      -2.717   1.948  -2.944  0.00  0.00    +0.155 HD
BRANCH  17  26
ATOM     21  C   UNL     1      -4.740   0.341  -3.646  0.00  0.00    +0.142 A 
ATOM     22  C   UNL     1      -5.960  -0.309  -3.743  0.00  0.00    +0.047 A 
ATOM     23  C   UNL     1      -6.648  -0.662  -2.597  0.00  0.00    +0.004 A 
ATOM     24  C   UNL     1      -6.121  -0.373  -1.352  0.00  0.00    +0.002 A 
ATOM     25  C   UNL     1      -4.902   0.271  -1.246  0.00  0.00    +0.027 A 
ATOM     26  C   UNL     1      -4.205   0.628  -2.392  0.00  0.00    +0.076 A 
BRANCH  21  27
ATOM     27  O   UNL     1      -4.064   0.694  -4.771  0.00  0.00    -0.490 OA
BRANCH  27  28
ATOM     28  C   UNL     1      -4.673   0.368  -6.022  0.00  0.00    +0.229 C 
BRANCH  28  30
ATOM     29  C   UNL     1      -4.424   0.490  -8.505  0.00  0.00    +0.007 C 
ATOM     30  C   UNL     1      -3.772   0.839  -7.166  0.00  0.00    +0.038 C 
ENDBRANCH  28  30
ENDBRANCH  27  28
ENDBRANCH  21  27
ENDBRANCH  17  26
ENDBRANCH   1  18
TORSDOF 6
