REMARK  Name = ZINC39750453
REMARK  9 active torsions:
REMARK  status: ('A' for Active; 'I' for Inactive)
REMARK    1  A    between atoms: C_1  and  C_2
REMARK    2  A    between atoms: C_2  and  C_3
REMARK    3  A    between atoms: C_4  and  C_30
REMARK    4  A    between atoms: C_9  and  C_11
REMARK    5  A    between atoms: C_11  and  C_13
REMARK    6  A    between atoms: C_11  and  S_14
REMARK    7  A    between atoms: S_14  and  C_15
REMARK    8  A    between atoms: C_18  and  C_21
REMARK    9  A    between atoms: N_19  and  C_20
REMARK                            x       y       z     vdW  Elec       q    Type
REMARK                         _______ _______ _______ _____ _____    ______ ____
ROOT
ATOM      1  S   UNL     1       6.046  -3.449  -5.249  0.00  0.00    -0.074 S 
ENDROOT
BRANCH   1   2
ATOM      2  C   UNL     1       7.792  -3.680  -5.322  0.00  0.00    +0.192 A 
ATOM      3  N   UNL     1       8.688  -3.096  -4.559  0.00  0.00    -0.122 NA
ATOM      4  N   UNL     1       9.867  -3.493  -4.881  0.00  0.00    -0.128 NA
ATOM      5  C   UNL     1       9.796  -4.354  -5.870  0.00  0.00    +0.165 A 
ATOM      6  N   UNL     1       8.464  -4.506  -6.178  0.00  0.00    -0.305 N 
ATOM      7  C   UNL     1       7.888  -5.369  -7.212  0.00  0.00    +0.153 C 
BRANCH   5   8
ATOM      8  C   UNL     1      10.933  -5.037  -6.523  0.00  0.00    +0.023 A 
ATOM      9  C   UNL     1      12.172  -5.100  -5.884  0.00  0.00    +0.015 A 
ATOM     10  C   UNL     1      13.232  -5.738  -6.495  0.00  0.00    +0.050 A 
ATOM     11  C   UNL     1      13.070  -6.319  -7.744  0.00  0.00    +0.166 A 
ATOM     12  C   UNL     1      11.834  -6.261  -8.387  0.00  0.00    +0.167 A 
ATOM     13  C   UNL     1      10.768  -5.627  -7.777  0.00  0.00    +0.061 A 
ATOM     14  O   UNL     1      11.938  -6.901  -9.589  0.00  0.00    -0.453 OA
ATOM     15  C   UNL     1      13.350  -6.994  -9.854  0.00  0.00    +0.466 C 
ATOM     16  O   UNL     1      13.945  -6.997  -8.543  0.00  0.00    -0.453 OA
ENDBRANCH   5   8
ENDBRANCH   1   2
BRANCH   1  17
ATOM     17  C   UNL     1       5.819  -2.241  -3.914  0.00  0.00    +0.137 C 
ATOM     18  C   UNL     1       6.452  -0.908  -4.319  0.00  0.00    +0.029 C 
BRANCH  17  25
ATOM     19  C   UNL     1       0.669  -0.745  -1.117  0.00  0.00    +0.053 A 
ATOM     20  C   UNL     1      -0.040  -1.153  -2.198  0.00  0.00    +0.011 A 
ATOM     21  S   UNL     1       1.278  -1.687  -3.278  0.00  0.00    -0.057 S 
ATOM     22  C   UNL     1       2.570  -1.342  -2.257  0.00  0.00    +0.165 A 
ATOM     23  N   UNL     1       1.984  -0.852  -1.186  0.00  0.00    -0.229 NA
ATOM     24  N   UNL     1       3.928  -1.526  -2.490  0.00  0.00    -0.264 N 
ATOM     25  C   UNL     1       4.347  -2.042  -3.662  0.00  0.00    +0.232 C 
ATOM     26  O   UNL     1       3.539  -2.347  -4.513  0.00  0.00    -0.274 OA
ATOM     27  C   UNL     1      -1.529  -1.154  -2.426  0.00  0.00    +0.053 C 
ATOM     28  H   UNL     1       4.575  -1.282  -1.808  0.00  0.00    +0.157 HD
BRANCH  19  30
ATOM     29  C   UNL     1      -0.164   1.326  -0.037  0.00  0.00    +0.010 C 
ATOM     30  C   UNL     1      -0.012  -0.190   0.107  0.00  0.00    +0.053 C 
ENDBRANCH  19  30
ENDBRANCH  17  25
ENDBRANCH   1  17
TORSDOF 5
