REMARK  Name = ZINC39544687
REMARK  11 active torsions:
REMARK  status: ('A' for Active; 'I' for Inactive)
REMARK    1  A    between atoms: C_1  and  C_2
REMARK    2  A    between atoms: C_2  and  C_3
REMARK    3  A    between atoms: C_3  and  N_4
REMARK    4  A    between atoms: N_4  and  O_27
REMARK    5  A    between atoms: C_5  and  C_7
REMARK    6  A    between atoms: C_10  and  S_21
REMARK    7  A    between atoms: S_21  and  C_24
REMARK    8  A    between atoms: C_24  and  C_25
REMARK    9  A    between atoms: C_24  and  C_26
REMARK   10  A    between atoms: O_27  and  C_28
REMARK   11  A    between atoms: C_28  and  C_29
REMARK                            x       y       z     vdW  Elec       q    Type
REMARK                         _______ _______ _______ _____ _____    ______ ____
ROOT
ATOM      1  C   UNL     1      -0.967  -4.015   1.306  0.00  0.00    +0.152 C 
ATOM      2  C   UNL     1       0.209  -4.548   0.465  0.00  0.00    +0.088 C 
ATOM      3  C   UNL     1       1.151  -5.146   1.486  0.00  0.00    +0.102 C 
ATOM      4  C   UNL     1       0.640  -5.008   2.683  0.00  0.00    +0.096 C 
ATOM      5  N   UNL     1       1.242  -5.407   3.890  0.00  0.00    -0.302 N 
ATOM      6  C   UNL     1       1.015  -4.546   4.977  0.00  0.00    +0.037 A 
ATOM      7  C   UNL     1       1.654  -4.778   6.186  0.00  0.00    +0.023 A 
ATOM      8  C   UNL     1       1.423  -3.937   7.258  0.00  0.00    +0.002 A 
ATOM      9  C   UNL     1       0.557  -2.868   7.119  0.00  0.00    +0.000 A 
ATOM     10  C   UNL     1      -0.076  -2.634   5.913  0.00  0.00    +0.007 A 
ATOM     11  C   UNL     1       0.152  -3.469   4.832  0.00  0.00    -0.010 A 
ATOM     12  C   UNL     1      -0.532  -3.174   3.523  0.00  0.00    +0.124 C 
ATOM     13  N   UNL     1      -0.615  -4.377   2.689  0.00  0.00    -0.368 NA
ATOM     14  H   UNL     1       1.773  -6.215   3.966  0.00  0.00    +0.153 HD
ATOM     15  H   UNL     1      -1.311  -5.004   3.064  0.00  0.00    +0.129 HD
ENDROOT
BRANCH   1  17
ATOM     16  N   UNL     1      -2.283  -1.954   0.929  0.00  0.00    -0.179 N 
ATOM     17  C   UNL     1      -1.082  -2.519   1.165  0.00  0.00    +0.258 C 
ATOM     18  O   UNL     1      -0.093  -1.823   1.263  0.00  0.00    -0.271 OA
BRANCH  16  19
ATOM     19  C   UNL     1      -2.413  -0.496   0.900  0.00  0.00    +0.140 C 
BRANCH  19  21
ATOM     20  C   UNL     1      -1.963   1.566  -0.437  0.00  0.00    +0.005 C 
ATOM     21  C   UNL     1      -1.827   0.043  -0.406  0.00  0.00    +0.018 C 
ENDBRANCH  19  21
ENDBRANCH  16  19
BRANCH  16  22
ATOM     22  O   UNL     1      -3.418  -2.771   0.710  0.00  0.00    -0.277 OA
BRANCH  22  23
ATOM     23  C   UNL     1      -3.579  -3.192  -0.646  0.00  0.00    +0.187 C 
ATOM     24  C   UNL     1      -4.756  -4.164  -0.742  0.00  0.00    +0.036 C 
ENDBRANCH  22  23
ENDBRANCH  16  22
ENDBRANCH   1  17
BRANCH   3  25
ATOM     25  S   UNL     1       2.696  -5.910   1.121  0.00  0.00    -0.002 S 
ATOM     26  O   UNL     1       3.381  -4.971   0.304  0.00  0.00    -0.169 OA
ATOM     27  O   UNL     1       3.221  -6.290   2.386  0.00  0.00    -0.169 OA
BRANCH  25  28
ATOM     28  C   UNL     1       2.269  -7.384   0.154  0.00  0.00    +0.130 C 
ATOM     29  C   UNL     1       3.535  -8.200  -0.117  0.00  0.00    +0.032 C 
ATOM     30  C   UNL     1       1.270  -8.238   0.938  0.00  0.00    +0.032 C 
ENDBRANCH  25  28
ENDBRANCH   3  25
TORSDOF 7
