REMARK  Name = ZINC20759600
REMARK  7 active torsions:
REMARK  status: ('A' for Active; 'I' for Inactive)
REMARK    1  A    between atoms: C_1  and  C_2
REMARK    2  A    between atoms: C_2  and  C_3
REMARK    3  A    between atoms: C_16  and  C_19
REMARK    4  A    between atoms: N_23  and  C_26
REMARK    5  A    between atoms: C_26  and  C_27
REMARK    6  A    between atoms: C_30  and  O_33
REMARK    7  A    between atoms: O_33  and  C_34
REMARK                            x       y       z     vdW  Elec       q    Type
REMARK                         _______ _______ _______ _____ _____    ______ ____
ROOT
ATOM      1  C   UNL     1      -4.142   0.562   0.193  0.00  0.00    +0.073 A 
ATOM      2  C   UNL     1      -4.703   1.732   0.611  0.00  0.00    +0.260 A 
ATOM      3  N   UNL     1      -5.251   2.586  -0.313  0.00  0.00    -0.275 N 
ATOM      4  C   UNL     1      -5.237   2.274  -1.622  0.00  0.00    +0.332 A 
ATOM      5  N   UNL     1      -4.688   1.124  -2.054  0.00  0.00    -0.256 N 
ATOM      6  C   UNL     1      -4.133   0.261  -1.180  0.00  0.00    +0.263 A 
ATOM      7  O   UNL     1      -3.632  -0.777  -1.577  0.00  0.00    -0.267 OA
ATOM      8  O   UNL     1      -5.728   3.043  -2.426  0.00  0.00    -0.246 OA
ATOM      9  O   UNL     1      -4.720   2.048   1.923  0.00  0.00    -0.267 OA
ATOM     10  H   UNL     1      -5.652   3.419  -0.020  0.00  0.00    +0.173 HD
ENDROOT
BRANCH   1  23
ATOM     11  C   UNL     1      -1.427  -0.520   0.022  0.00  0.00    -0.066 C 
ATOM     12  C   UNL     1      -1.401  -2.049  -0.117  0.00  0.00    +0.022 C 
ATOM     13  C   UNL     1      -2.796  -2.559   0.146  0.00  0.00    -0.022 A 
ATOM     14  C   UNL     1      -3.372  -3.852  -0.144  0.00  0.00    +0.003 A 
ATOM     15  C   UNL     1      -2.860  -5.011  -0.736  0.00  0.00    +0.010 A 
ATOM     16  C   UNL     1      -3.715  -6.079  -0.854  0.00  0.00    +0.001 A 
ATOM     17  C   UNL     1      -5.026  -6.024  -0.411  0.00  0.00    +0.002 A 
ATOM     18  C   UNL     1      -5.560  -4.891   0.179  0.00  0.00    +0.026 A 
ATOM     19  C   UNL     1      -4.715  -3.791   0.311  0.00  0.00    +0.047 A 
ATOM     20  N   UNL     1      -4.912  -2.544   0.834  0.00  0.00    -0.359 N 
ATOM     21  H   UNL     1      -5.743  -2.225   1.218  0.00  0.00    +0.166 HD
ATOM     22  C   UNL     1      -3.760  -1.813   0.733  0.00  0.00    +0.011 A 
ATOM     23  C   UNL     1      -3.533  -0.392   1.189  0.00  0.00    +0.018 C 
ATOM     24  N   UNL     1      -2.085  -0.154   1.284  0.00  0.00    +0.390 N 
ATOM     25  H   UNL     1      -1.703  -0.710   2.034  0.00  0.00    -0.084 HD
ATOM     26  H   UNL     1      -1.918   0.823   1.476  0.00  0.00    -0.084 HD
BRANCH  11  28
ATOM     27  C   UNL     1      -0.023   1.546   0.033  0.00  0.00    +0.002 C 
ATOM     28  C   UNL     1       0.006   0.017   0.020  0.00  0.00    -0.019 C 
ENDBRANCH  11  28
ENDBRANCH   1  23
BRANCH   5  29
ATOM     29  C   UNL     1      -4.689   0.811  -3.485  0.00  0.00    +0.165 C 
BRANCH  29  30
ATOM     30  C   UNL     1      -3.434   1.356  -4.118  0.00  0.00    -0.027 A 
ATOM     31  C   UNL     1      -3.421   2.640  -4.630  0.00  0.00    +0.009 A 
ATOM     32  C   UNL     1      -2.273   3.142  -5.211  0.00  0.00    +0.046 A 
ATOM     33  C   UNL     1      -1.133   2.356  -5.282  0.00  0.00    +0.120 A 
ATOM     34  C   UNL     1      -1.148   1.067  -4.768  0.00  0.00    +0.046 A 
ATOM     35  C   UNL     1      -2.297   0.572  -4.183  0.00  0.00    +0.009 A 
BRANCH  33  36
ATOM     36  O   UNL     1      -0.002   2.847  -5.854  0.00  0.00    -0.495 OA
ATOM     37  C   UNL     1       1.135   1.982  -5.892  0.00  0.00    +0.277 C 
ENDBRANCH  33  36
ENDBRANCH  29  30
ENDBRANCH   5  29
TORSDOF 5
