REMARK  Name = ZINC08788456
REMARK  10 active torsions:
REMARK  status: ('A' for Active; 'I' for Inactive)
REMARK    1  A    between atoms: C_1  and  C_2
REMARK    2  A    between atoms: C_7  and  C_8
REMARK    3  A    between atoms: C_7  and  N_62
REMARK    4  A    between atoms: C_9  and  O_33
REMARK    5  A    between atoms: C_15  and  C_29
REMARK    6  A    between atoms: C_16  and  O_19
REMARK    7  A    between atoms: O_19  and  C_20
REMARK    8  A    between atoms: C_25  and  C_26
REMARK    9  A    between atoms: C_26  and  C_27
REMARK   10  A    between atoms: C_26  and  C_28
REMARK                            x       y       z     vdW  Elec       q    Type
REMARK                         _______ _______ _______ _____ _____    ______ ____
ROOT
ATOM      1  C   UNL     1       0.232   5.868  -2.778  0.00  0.00    +0.020 A 
ATOM      2  C   UNL     1      -1.113   6.150  -2.954  0.00  0.00    +0.122 A 
ATOM      3  C   UNL     1      -1.604   6.508  -4.207  0.00  0.00    +0.046 A 
ATOM      4  C   UNL     1      -0.765   6.586  -5.282  0.00  0.00    +0.019 A 
ATOM      5  C   UNL     1       0.593   6.305  -5.122  0.00  0.00    +0.068 A 
ATOM      6  C   UNL     1       1.098   5.948  -3.859  0.00  0.00    +0.144 A 
ATOM      7  O   UNL     1       2.411   5.673  -3.717  0.00  0.00    -0.447 OA
ATOM      8  C   UNL     1       3.272   5.736  -4.740  0.00  0.00    +0.254 A 
ATOM      9  C   UNL     1       2.896   6.072  -5.990  0.00  0.00    +0.222 A 
ATOM     10  C   UNL     1       1.531   6.377  -6.255  0.00  0.00    +0.235 A 
ATOM     11  O   UNL     1       1.154   6.684  -7.373  0.00  0.00    -0.283 OA
ENDROOT
BRANCH   8  12
ATOM     12  C   UNL     1       4.723   5.418  -4.484  0.00  0.00    +0.454 C 
ATOM     13  F   UNL     1       5.402   6.589  -4.132  0.00  0.00    -0.163 F 
ATOM     14  F   UNL     1       4.819   4.492  -3.439  0.00  0.00    -0.163 F 
ATOM     15  F   UNL     1       5.293   4.877  -5.641  0.00  0.00    -0.163 F 
ENDBRANCH   8  12
BRANCH   2  16
ATOM     16  O   UNL     1      -1.960   6.077  -1.895  0.00  0.00    -0.506 OA
ATOM     17  H   UNL     1      -2.050   6.907  -1.406  0.00  0.00    +0.292 HD
ENDBRANCH   2  16
BRANCH   1  18
ATOM     18  C   UNL     1       0.752   5.481  -1.418  0.00  0.00    -0.036 C 
BRANCH  18  25
ATOM     19  C   UNL     1       0.002  -0.004   0.002  0.00  0.00    +0.007 C 
ATOM     20  C   UNL     1      -0.019   1.526   0.010  0.00  0.00    -0.018 C 
ATOM     21  C   UNL     1      -0.752   2.034  -1.234  0.00  0.00    -0.016 C 
ATOM     22  C   UNL     1      -0.717   3.564  -1.251  0.00  0.00    -0.078 C 
ATOM     23  C   UNL     1       1.390   3.586  -0.053  0.00  0.00    -0.078 C 
ATOM     24  C   UNL     1       1.417   2.057  -0.000  0.00  0.00    -0.016 C 
ATOM     25  N   UNL     1       0.692   4.011  -1.286  0.00  0.00    +0.383 N 
ATOM     26  H   UNL     1       1.157   3.584  -2.095  0.00  0.00    -0.081 HD
ENDBRANCH  18  25
ENDBRANCH   1  18
BRANCH   9  27
ATOM     27  O   UNL     1       3.816   6.119  -6.993  0.00  0.00    -0.448 OA
BRANCH  27  28
ATOM     28  C   UNL     1       4.457   7.296  -7.216  0.00  0.00    +0.132 A 
ATOM     29  C   UNL     1       4.162   8.406  -6.436  0.00  0.00    +0.046 A 
ATOM     30  C   UNL     1       4.819   9.601  -6.662  0.00  0.00    +0.004 A 
ATOM     31  C   UNL     1       5.760   9.694  -7.671  0.00  0.00    +0.001 A 
ATOM     32  C   UNL     1       6.051   8.591  -8.452  0.00  0.00    +0.007 A 
ATOM     33  C   UNL     1       5.402   7.392  -8.227  0.00  0.00    -0.003 A 
BRANCH  33  34
ATOM     34  C   UNL     1       5.720   6.191  -9.079  0.00  0.00    +0.016 C 
ATOM     35  C   UNL     1       5.412   6.508 -10.544  0.00  0.00    +0.012 C 
ATOM     36  C   UNL     1       7.202   5.840  -8.934  0.00  0.00    +0.012 C 
ENDBRANCH  33  34
ENDBRANCH  27  28
ENDBRANCH   9  27
TORSDOF 7
