REMARK  Name = ZINC00719908
REMARK  9 active torsions:
REMARK  status: ('A' for Active; 'I' for Inactive)
REMARK    1  A    between atoms: C_1  and  N_2
REMARK    2  A    between atoms: N_2  and  C_3
REMARK    3  A    between atoms: C_6  and  O_9
REMARK    4  A    between atoms: O_9  and  C_10
REMARK    5  A    between atoms: C_14  and  C_16
REMARK    6  A    between atoms: C_21  and  C_35
REMARK    7  A    between atoms: C_24  and  C_27
REMARK    8  A    between atoms: C_30  and  O_33
REMARK    9  A    between atoms: O_33  and  C_34
REMARK                            x       y       z     vdW  Elec       q    Type
REMARK                         _______ _______ _______ _____ _____    ______ ____
ROOT
ATOM      1  C   UNL     1      -0.194   0.300  -2.383  0.00  0.00    +0.149 A 
ATOM      2  C   UNL     1      -0.268  -0.183  -3.709  0.00  0.00    +0.078 A 
ATOM      3  C   UNL     1      -0.273   0.884  -4.532  0.00  0.00    +0.119 A 
ATOM      4  N   UNL     1      -0.207   2.013  -3.764  0.00  0.00    -0.238 N 
ATOM      5  N   UNL     1      -0.162   1.620  -2.427  0.00  0.00    -0.164 NA
ATOM      6  C   UNL     1      -0.197   3.371  -4.315  0.00  0.00    +0.215 C 
ATOM      7  C   UNL     1      -0.745   3.330  -5.746  0.00  0.00    +0.063 C 
ATOM      8  C   UNL     1      -0.032   2.236  -6.547  0.00  0.00    +0.104 C 
ATOM      9  N   UNL     1      -0.331   0.930  -5.928  0.00  0.00    -0.322 N 
ATOM     10  H   UNL     1      -0.555   0.149  -6.458  0.00  0.00    +0.148 HD
ENDROOT
BRANCH   8  11
ATOM     11  C   UNL     1      -0.523   2.249  -7.972  0.00  0.00    -0.027 A 
ATOM     12  C   UNL     1      -1.730   1.654  -8.291  0.00  0.00    +0.009 A 
ATOM     13  C   UNL     1      -2.183   1.665  -9.596  0.00  0.00    +0.046 A 
ATOM     14  C   UNL     1      -1.426   2.273 -10.587  0.00  0.00    +0.120 A 
ATOM     15  C   UNL     1      -0.216   2.870 -10.264  0.00  0.00    +0.046 A 
ATOM     16  C   UNL     1       0.230   2.861  -8.956  0.00  0.00    +0.009 A 
BRANCH  14  17
ATOM     17  O   UNL     1      -1.869   2.285 -11.871  0.00  0.00    -0.495 OA
ATOM     18  C   UNL     1      -1.038   2.929 -12.838  0.00  0.00    +0.277 C 
ENDBRANCH  14  17
ENDBRANCH   8  11
BRANCH   1  21
ATOM     19  C   UNL     1      -0.439   1.503   0.158  0.00  0.00    +0.138 C 
ATOM     20  N   UNL     1      -0.213   0.060   0.052  0.00  0.00    -0.269 N 
ATOM     21  C   UNL     1      -0.163  -0.527  -1.160  0.00  0.00    +0.271 C 
ATOM     22  O   UNL     1      -0.093  -1.738  -1.247  0.00  0.00    -0.268 OA
BRANCH  20  23
ATOM     23  C   UNL     1      -0.050  -0.710   1.210  0.00  0.00    +0.037 A 
ATOM     24  C   UNL     1       0.331  -2.042   1.111  0.00  0.00    +0.027 A 
ATOM     25  C   UNL     1       0.491  -2.800   2.254  0.00  0.00    +0.048 A 
ATOM     26  C   UNL     1       0.273  -2.232   3.501  0.00  0.00    +0.130 A 
ATOM     27  C   UNL     1      -0.107  -0.902   3.600  0.00  0.00    +0.048 A 
ATOM     28  C   UNL     1      -0.263  -0.141   2.459  0.00  0.00    +0.027 A 
BRANCH  26  29
ATOM     29  O   UNL     1       0.431  -2.980   4.625  0.00  0.00    -0.406 OA
BRANCH  29  30
ATOM     30  C   UNL     1       0.189  -2.331   5.875  0.00  0.00    +0.575 C 
ATOM     31  F   UNL     1      -1.131  -1.869   5.913  0.00  0.00    -0.133 F 
ATOM     32  F   UNL     1       0.396  -3.238   6.920  0.00  0.00    -0.133 F 
ATOM     33  F   UNL     1       1.066  -1.250   6.016  0.00  0.00    -0.133 F 
ENDBRANCH  29  30
ENDBRANCH  26  29
ENDBRANCH  20  23
ENDBRANCH   1  21
BRANCH   6  34
ATOM     34  C   UNL     1      -1.075   4.280  -3.453  0.00  0.00    +0.412 C 
ATOM     35  F   UNL     1      -0.578   4.305  -2.145  0.00  0.00    -0.168 F 
ATOM     36  F   UNL     1      -1.063   5.576  -3.980  0.00  0.00    -0.168 F 
ATOM     37  F   UNL     1      -2.385   3.792  -3.445  0.00  0.00    -0.168 F 
ENDBRANCH   6  34
TORSDOF 7
