REMARK  Name = ZINC39773428
REMARK  11 active torsions:
REMARK  status: ('A' for Active; 'I' for Inactive)
REMARK    1  A    between atoms: C_1  and  C_2
REMARK    2  A    between atoms: C_5  and  C_11
REMARK    3  A    between atoms: C_7  and  N_8
REMARK    4  A    between atoms: C_11  and  C_13
REMARK    5  A    between atoms: C_13  and  S_14
REMARK    6  A    between atoms: S_14  and  C_15
REMARK    7  A    between atoms: C_18  and  C_21
REMARK    8  A    between atoms: N_19  and  C_20
REMARK    9  A    between atoms: C_21  and  C_23
REMARK   10  A    between atoms: C_21  and  N_24
REMARK   11  A    between atoms: C_25  and  C_27
REMARK                            x       y       z     vdW  Elec       q    Type
REMARK                         _______ _______ _______ _____ _____    ______ ____
ROOT
ATOM      1  C   UNL     1       0.694  -7.412  -2.732  0.00  0.00    +0.192 A 
ATOM      2  N   UNL     1       0.350  -6.793  -3.838  0.00  0.00    -0.122 NA
ATOM      3  N   UNL     1       0.321  -7.629  -4.814  0.00  0.00    -0.132 NA
ATOM      4  C   UNL     1       0.641  -8.820  -4.393  0.00  0.00    +0.154 A 
ATOM      5  N   UNL     1       0.895  -8.723  -3.053  0.00  0.00    -0.308 N 
ATOM      6  C   UNL     1       1.298  -9.803  -2.148  0.00  0.00    +0.152 C 
ENDROOT
BRANCH   4   7
ATOM      7  C   UNL     1       0.721 -10.071  -5.229  0.00  0.00    +0.138 C 
ATOM      8  C   UNL     1      -0.692 -10.564  -5.546  0.00  0.00    +0.036 C 
BRANCH   7   9
ATOM      9  N   UNL     1       1.429  -9.779  -6.478  0.00  0.00    -0.302 N 
ATOM     10  C   UNL     1       2.062 -10.767  -7.141  0.00  0.00    +0.245 C 
ATOM     11  O   UNL     1       2.046 -11.901  -6.702  0.00  0.00    -0.270 OA
ATOM     12  H   UNL     1       1.442  -8.874  -6.828  0.00  0.00    +0.150 HD
BRANCH  10  13
ATOM     13  C   UNL     1       2.776 -10.472  -8.401  0.00  0.00    +0.038 A 
ATOM     14  C   UNL     1       2.801  -9.170  -8.904  0.00  0.00    +0.014 A 
ATOM     15  C   UNL     1       3.468  -8.900 -10.080  0.00  0.00    +0.022 A 
ATOM     16  C   UNL     1       4.113  -9.918 -10.763  0.00  0.00    +0.059 A 
ATOM     17  C   UNL     1       4.092 -11.213 -10.269  0.00  0.00    +0.060 A 
ATOM     18  C   UNL     1       3.432 -11.494  -9.090  0.00  0.00    +0.034 A 
ATOM     19 CL   UNL     1       4.903 -12.483 -11.132  0.00  0.00    -0.082 Cl
ATOM     20 CL   UNL     1       4.950  -9.571 -12.244  0.00  0.00    -0.082 Cl
ENDBRANCH  10  13
ENDBRANCH   7   9
ENDBRANCH   4   7
BRANCH   1  21
ATOM     21  S   UNL     1       0.869  -6.684  -1.136  0.00  0.00    -0.078 S 
BRANCH  21  22
ATOM     22  C   UNL     1       0.459  -4.937  -1.403  0.00  0.00    +0.157 C 
BRANCH  22  23
ATOM     23  C   UNL     1       0.571  -4.190  -0.099  0.00  0.00    +0.173 C 
ATOM     24  O   UNL     1       0.895  -4.779   0.911  0.00  0.00    -0.291 OA
BRANCH  23  29
ATOM     25  C   UNL     1      -0.538   1.447   0.089  0.00  0.00    +0.046 C 
ATOM     26  C   UNL     1      -0.247  -0.031   0.040  0.00  0.00    -0.020 A 
ATOM     27  C   UNL     1      -0.351  -0.713  -1.160  0.00  0.00    +0.006 A 
ATOM     28  C   UNL     1      -0.086  -2.065  -1.213  0.00  0.00    +0.012 A 
ATOM     29  C   UNL     1       0.288  -2.747  -0.051  0.00  0.00    +0.020 A 
ATOM     30  C   UNL     1       0.390  -2.051   1.157  0.00  0.00    +0.044 A 
ATOM     31  C   UNL     1       0.127  -0.697   1.193  0.00  0.00    +0.130 A 
BRANCH  31  32
ATOM     32  N   UNL     1       0.241   0.043   2.470  0.00  0.00    +0.057 N 
ATOM     33  O   UNL     1       0.675   1.172   2.477  0.00  0.00    -0.126 OA
ATOM     34  O   UNL     1      -0.100  -0.480   3.505  0.00  0.00    -0.126 OA
ENDBRANCH  31  32
ENDBRANCH  23  29
ENDBRANCH  22  23
ENDBRANCH  21  22
ENDBRANCH   1  21
TORSDOF 8
