REMARK  Name = ZINC31056258
REMARK  5 active torsions:
REMARK  status: ('A' for Active; 'I' for Inactive)
REMARK    1  A    between atoms: C_10  and  N_11
REMARK    2  A    between atoms: C_12  and  C_14
REMARK    3  A    between atoms: N_19  and  C_21
REMARK    4  A    between atoms: C_21  and  C_22
REMARK    5  A    between atoms: C_24  and  C_27
REMARK                            x       y       z     vdW  Elec       q    Type
REMARK                         _______ _______ _______ _____ _____    ______ ____
ROOT
ATOM      1  C   UNL     1      -4.006   7.609  -2.824  0.00  0.00    +0.059 C 
ATOM      2  C   UNL     1      -2.685   7.709  -3.591  0.00  0.00    +0.009 C 
ATOM      3  C   UNL     1      -1.947   6.371  -3.498  0.00  0.00    -0.018 C 
ATOM      4  C   UNL     1      -1.720   6.021  -2.026  0.00  0.00    -0.078 C 
ATOM      5  N   UNL     1      -3.013   5.936  -1.336  0.00  0.00    +0.386 N 
ATOM      6  C   UNL     1      -3.719   7.223  -1.371  0.00  0.00    -0.065 C 
ATOM      7  H   UNL     1      -3.631   5.200  -1.871  0.00  0.00    -0.081 HD
ENDROOT
BRANCH   1   9
ATOM      8  N   UNL     1      -5.066   9.483  -4.043  0.00  0.00    -0.285 N 
ATOM      9  C   UNL     1      -4.712   8.940  -2.861  0.00  0.00    +0.219 C 
ATOM     10  O   UNL     1      -4.961   9.523  -1.827  0.00  0.00    -0.275 OA
ATOM     11  H   UNL     1      -4.775   8.991  -4.983  0.00  0.00    +0.155 HD
BRANCH   8  21
ATOM     12  C   UNL     1      -8.687  11.339  -7.030  0.00  0.00    +0.001 A 
ATOM     13  C   UNL     1      -7.963  10.148  -7.018  0.00  0.00    +0.001 A 
ATOM     14  C   UNL     1      -7.020   9.912  -6.064  0.00  0.00    +0.010 A 
ATOM     15  C   UNL     1      -6.771  10.879  -5.078  0.00  0.00    +0.003 A 
ATOM     16  C   UNL     1      -7.507  12.089  -5.089  0.00  0.00    -0.016 A 
ATOM     17  C   UNL     1      -8.472  12.299  -6.090  0.00  0.00    +0.008 A 
ATOM     18  C   UNL     1      -7.259  13.059  -4.103  0.00  0.00    +0.008 A 
ATOM     19  C   UNL     1      -6.317  12.830  -3.146  0.00  0.00    +0.002 A 
ATOM     20  C   UNL     1      -5.593  11.642  -3.121  0.00  0.00    +0.024 A 
ATOM     21  C   UNL     1      -5.802  10.668  -4.074  0.00  0.00    +0.041 A 
ENDBRANCH   8  21
ENDBRANCH   1   9
BRANCH   5  22
ATOM     22  C   UNL     1      -2.843   5.466   0.045  0.00  0.00    +0.022 C 
BRANCH  22  23
ATOM     23  C   UNL     1      -2.342   4.045   0.035  0.00  0.00    +0.211 A 
ATOM     24  N   UNL     1      -1.090   3.663   0.032  0.00  0.00    -0.192 NA
ATOM     25  C   UNL     1      -1.123   2.309   0.020  0.00  0.00    +0.209 A 
ATOM     26  N   UNL     1      -2.385   1.955   0.025  0.00  0.00    -0.056 NA
ATOM     27  O   UNL     1      -3.093   2.939   0.033  0.00  0.00    -0.340 OA
BRANCH  25  28
ATOM     28  C   UNL     1       0.043   1.403   0.009  0.00  0.00    +0.060 A 
ATOM     29  C   UNL     1       0.071   0.033   0.001  0.00  0.00    +0.019 A 
ATOM     30  C   UNL     1       1.292  -0.604  -0.014  0.00  0.00    +0.008 A 
ATOM     31  C   UNL     1       2.427   0.142  -0.021  0.00  0.00    +0.046 A 
ATOM     32  S   UNL     1       1.782   1.806  -0.006  0.00  0.00    -0.093 S 
ENDBRANCH  25  28
ENDBRANCH  22  23
ENDBRANCH   5  22
TORSDOF 5
