REMARK  Name = ZINC64074411
REMARK  7 active torsions:
REMARK  status: ('A' for Active; 'I' for Inactive)
REMARK    1  A    between atoms: C_1  and  C_2
REMARK    2  A    between atoms: C_3  and  C_15
REMARK    3  A    between atoms: C_5  and  C_7
REMARK    4  A    between atoms: C_10  and  S_13
REMARK    5  A    between atoms: S_13  and  C_14
REMARK    6  A    between atoms: C_15  and  N_16
REMARK    7  A    between atoms: C_20  and  C_22
REMARK                            x       y       z     vdW  Elec       q    Type
REMARK                         _______ _______ _______ _____ _____    ______ ____
ROOT
ATOM      1  N   UNL     1      -2.988  -0.231  -1.370  0.00  0.00    -0.290 NA
ATOM      2  C   UNL     1      -3.090  -1.545  -2.040  0.00  0.00    +0.085 C 
ATOM      3  C   UNL     1      -4.586  -1.931  -1.929  0.00  0.00    +0.017 C 
ATOM      4  C   UNL     1      -5.279  -0.555  -2.112  0.00  0.00    +0.024 C 
ATOM      5  C   UNL     1      -4.311   0.418  -1.406  0.00  0.00    +0.100 C 
ENDROOT
BRANCH   5   6
ATOM      6  C   UNL     1      -4.227   1.729  -2.191  0.00  0.00    +0.192 C 
ATOM      7  N   UNL     1      -3.306   2.658  -1.523  0.00  0.00    -0.362 N 
ATOM      8  C   UNL     1      -3.988   3.717  -1.198  0.00  0.00    +0.060 A 
ATOM      9  C   UNL     1      -3.623   4.969  -0.519  0.00  0.00    +0.030 A 
ATOM     10  C   UNL     1      -4.563   5.913  -0.314  0.00  0.00    +0.040 A 
ATOM     11  C   UNL     1      -5.901   5.753  -0.726  0.00  0.00    +0.125 A 
ATOM     12  C   UNL     1      -6.339   4.642  -1.358  0.00  0.00    +0.065 A 
ATOM     13  C   UNL     1      -5.401   3.548  -1.634  0.00  0.00    +0.063 A 
ATOM     14  N   UNL     1      -5.538   2.388  -2.214  0.00  0.00    -0.362 N 
ATOM     15  F   UNL     1      -6.780   6.750  -0.480  0.00  0.00    -0.205 F 
ATOM     16  H   UNL     1      -2.363   2.508  -1.355  0.00  0.00    +0.162 HD
ATOM     17  H   UNL     1      -6.356   2.027  -2.590  0.00  0.00    +0.162 HD
ENDBRANCH   5   6
BRANCH   1  18
ATOM     18  C   UNL     1      -2.513  -0.380   0.012  0.00  0.00    +0.143 C 
BRANCH  18  21
ATOM     19  C   UNL     1      -0.018   1.503   0.010  0.00  0.00    +0.088 C 
ATOM     20  C   UNL     1       0.002  -0.004   0.002  0.00  0.00    +0.127 A 
ATOM     21  C   UNL     1      -1.070  -0.816   0.003  0.00  0.00    +0.097 A 
ATOM     22  N   UNL     1      -0.627  -2.083  -0.006  0.00  0.00    -0.212 NA
ATOM     23  C   UNL     1       0.686  -2.068  -0.012  0.00  0.00    +0.228 A 
ATOM     24  O   UNL     1       1.099  -0.788  -0.013  0.00  0.00    -0.440 OA
BRANCH  23  25
ATOM     25  C   UNL     1       1.562  -3.257  -0.022  0.00  0.00    +0.037 A 
ATOM     26  C   UNL     1       1.004  -4.538  -0.032  0.00  0.00    +0.014 A 
ATOM     27  C   UNL     1       1.823  -5.644  -0.041  0.00  0.00    +0.015 A 
ATOM     28  C   UNL     1       3.206  -5.488  -0.041  0.00  0.00    +0.008 A 
ATOM     29  C   UNL     1       3.765  -4.214  -0.031  0.00  0.00    +0.015 A 
ATOM     30  C   UNL     1       2.950  -3.103  -0.028  0.00  0.00    +0.014 A 
BRANCH  28  31
ATOM     31  S   UNL     1       4.251  -6.907  -0.052  0.00  0.00    -0.129 S 
ATOM     32  C   UNL     1       5.928  -6.216  -0.048  0.00  0.00    +0.090 C 
ENDBRANCH  28  31
ENDBRANCH  23  25
ENDBRANCH  18  21
ENDBRANCH   1  18
TORSDOF 5
