REMARK  Name = ZINC22637291
REMARK  11 active torsions:
REMARK  status: ('A' for Active; 'I' for Inactive)
REMARK    1  A    between atoms: C_1  and  C_2
REMARK    2  A    between atoms: C_2  and  C_27
REMARK    3  A    between atoms: N_3  and  N_4
REMARK    4  A    between atoms: C_5  and  C_7
REMARK    5  A    between atoms: C_7  and  N_18
REMARK    6  A    between atoms: C_8  and  C_9
REMARK    7  A    between atoms: C_12  and  N_15
REMARK    8  A    between atoms: N_15  and  C_16
REMARK    9  A    between atoms: N_15  and  C_17
REMARK   10  A    between atoms: C_19  and  C_21
REMARK   11  A    between atoms: C_32  and  O_33
REMARK                            x       y       z     vdW  Elec       q    Type
REMARK                         _______ _______ _______ _____ _____    ______ ____
ROOT
ATOM      1  C   UNL     1      -0.167   0.006   4.915  0.00  0.00    +0.098 C 
ATOM      2  C   UNL     1       0.191  -0.713   6.006  0.00  0.00    +0.036 C 
ENDROOT
BRANCH   2   3
ATOM      3  C   UNL     1       0.335  -0.049   7.309  0.00  0.00    -0.023 A 
ATOM      4  C   UNL     1      -0.301   1.176   7.547  0.00  0.00    +0.010 A 
ATOM      5  C   UNL     1      -0.164   1.794   8.769  0.00  0.00    +0.023 A 
ATOM      6  C   UNL     1       0.607   1.204   9.767  0.00  0.00    +0.029 A 
ATOM      7  C   UNL     1       1.241  -0.013   9.534  0.00  0.00    +0.023 A 
ATOM      8  C   UNL     1       1.104  -0.641   8.318  0.00  0.00    +0.010 A 
BRANCH   6   9
ATOM      9  N   UNL     1       0.743   1.834  11.002  0.00  0.00    -0.336 N 
ATOM     10  C   UNL     1       0.077   3.115  11.248  0.00  0.00    +0.129 C 
ATOM     11  C   UNL     1       1.553   1.215  12.054  0.00  0.00    +0.129 C 
ENDBRANCH   6   9
ENDBRANCH   2   3
BRANCH   1  13
ATOM     12  N   UNL     1      -0.815   0.038   2.564  0.00  0.00    -0.202 N 
ATOM     13  C   UNL     1      -0.459  -0.677   3.650  0.00  0.00    +0.277 C 
ATOM     14  O   UNL     1      -0.380  -1.890   3.580  0.00  0.00    -0.267 OA
ATOM     15  H   UNL     1      -0.878   1.005   2.620  0.00  0.00    +0.178 HD
BRANCH  12  18
ATOM     16  C   UNL     1      -1.535   1.576   0.396  0.00  0.00    +0.068 C 
ATOM     17  C   UNL     1      -1.437   0.075   0.311  0.00  0.00    +0.067 C 
ATOM     18  N   UNL     1      -1.094  -0.614   1.356  0.00  0.00    -0.184 NA
BRANCH  17  19
ATOM     19  C   UNL     1      -1.731  -0.611  -0.960  0.00  0.00    +0.039 A 
ATOM     20  C   UNL     1      -2.095   0.127  -2.089  0.00  0.00    +0.013 A 
ATOM     21  C   UNL     1      -2.368  -0.521  -3.275  0.00  0.00    +0.001 A 
ATOM     22  C   UNL     1      -2.284  -1.901  -3.352  0.00  0.00    +0.004 A 
ATOM     23  C   UNL     1      -1.925  -2.643  -2.242  0.00  0.00    +0.046 A 
ATOM     24  C   UNL     1      -1.641  -2.007  -1.044  0.00  0.00    +0.126 A 
BRANCH  24  25
ATOM     25  O   UNL     1      -1.283  -2.735   0.045  0.00  0.00    -0.506 OA
ATOM     26  H   UNL     1      -2.028  -3.014   0.594  0.00  0.00    +0.292 HD
ENDBRANCH  24  25
ENDBRANCH  17  19
ENDBRANCH  12  18
ENDBRANCH   1  13
BRANCH   1  27
ATOM     27  N   UNL     1      -0.258   1.400   4.995  0.00  0.00    -0.277 N 
ATOM     28  C   UNL     1      -1.420   2.018   4.701  0.00  0.00    +0.248 C 
ATOM     29  O   UNL     1      -2.355   1.377   4.262  0.00  0.00    -0.270 OA
ATOM     30  H   UNL     1       0.515   1.922   5.261  0.00  0.00    +0.155 HD
BRANCH  28  31
ATOM     31  C   UNL     1      -1.557   3.474   4.913  0.00  0.00    +0.037 A 
ATOM     32  C   UNL     1      -0.451   4.233   5.302  0.00  0.00    +0.013 A 
ATOM     33  C   UNL     1      -0.586   5.592   5.498  0.00  0.00    +0.001 A 
ATOM     34  C   UNL     1      -1.813   6.202   5.311  0.00  0.00    +0.000 A 
ATOM     35  C   UNL     1      -2.913   5.456   4.926  0.00  0.00    +0.001 A 
ATOM     36  C   UNL     1      -2.791   4.097   4.721  0.00  0.00    +0.013 A 
ENDBRANCH  28  31
ENDBRANCH   1  27
TORSDOF 8
