REMARK  Name = ZINC38901382
REMARK  7 active torsions:
REMARK  status: ('A' for Active; 'I' for Inactive)
REMARK    1  A    between atoms: C_4  and  N_31
REMARK    2  A    between atoms: C_5  and  C_7
REMARK    3  A    between atoms: C_7  and  N_8
REMARK    4  A    between atoms: C_9  and  C_11
REMARK    5  A    between atoms: N_16  and  C_18
REMARK    6  A    between atoms: C_18  and  C_19
REMARK    7  A    between atoms: C_21  and  C_24
REMARK                            x       y       z     vdW  Elec       q    Type
REMARK                         _______ _______ _______ _____ _____    ______ ____
ROOT
ATOM      1  C   UNL     1       1.816  -4.512   2.961  0.00  0.00    +0.058 C 
ATOM      2  C   UNL     1       0.712  -4.024   3.903  0.00  0.00    +0.009 C 
ATOM      3  C   UNL     1       0.950  -4.609   5.299  0.00  0.00    -0.018 C 
ATOM      4  C   UNL     1       0.999  -6.135   5.205  0.00  0.00    -0.078 C 
ATOM      5  N   UNL     1       2.091  -6.539   4.311  0.00  0.00    +0.386 N 
ATOM      6  C   UNL     1       1.834  -6.042   2.953  0.00  0.00    -0.065 C 
ATOM      7  H   UNL     1       2.961  -6.155   4.649  0.00  0.00    -0.081 HD
ENDROOT
BRANCH   1   9
ATOM      8  N   UNL     1       1.486  -2.680   1.333  0.00  0.00    -0.311 N 
ATOM      9  C   UNL     1       1.549  -4.005   1.567  0.00  0.00    +0.215 C 
ATOM     10  O   UNL     1       1.390  -4.790   0.656  0.00  0.00    -0.276 OA
ATOM     11  H   UNL     1       1.614  -2.052   2.061  0.00  0.00    +0.149 HD
BRANCH   8  12
ATOM     12  C   UNL     1       1.226  -2.187  -0.022  0.00  0.00    +0.141 C 
BRANCH  12  17
ATOM     13  C   UNL     1      -0.017   1.378   0.010  0.00  0.00    +0.000 A 
ATOM     14  C   UNL     1       1.170   2.089   0.002  0.00  0.00    +0.002 A 
ATOM     15  C   UNL     1       2.377   1.419  -0.013  0.00  0.00    +0.026 A 
ATOM     16  C   UNL     1       2.399   0.030  -0.021  0.00  0.00    +0.052 A 
ATOM     17  C   UNL     1       1.207  -0.680  -0.013  0.00  0.00    -0.007 A 
ATOM     18  C   UNL     1       0.002  -0.004   0.002  0.00  0.00    +0.007 A 
BRANCH  16  19
ATOM     19  N   UNL     1       3.624  -0.653  -0.037  0.00  0.00    -0.306 N 
ATOM     20  C   UNL     1       4.674  -0.423  -0.888  0.00  0.00    +0.112 A 
ATOM     21  C   UNL     1       5.643  -1.298  -0.558  0.00  0.00    +0.130 A 
ATOM     22  N   UNL     1       5.201  -2.044   0.466  0.00  0.00    -0.244 NA
ATOM     23  C   UNL     1       3.996  -1.663   0.790  0.00  0.00    +0.204 A 
ENDBRANCH  16  19
ENDBRANCH  12  17
ENDBRANCH   8  12
ENDBRANCH   1   9
BRANCH   5  24
ATOM     24  C   UNL     1       2.183  -8.005   4.285  0.00  0.00    +0.022 C 
BRANCH  24  25
ATOM     25  C   UNL     1       2.578  -8.508   5.649  0.00  0.00    +0.211 A 
ATOM     26  N   UNL     1       1.758  -8.836   6.606  0.00  0.00    -0.193 NA
ATOM     27  C   UNL     1       2.449  -9.242   7.686  0.00  0.00    +0.202 A 
ATOM     28  N   UNL     1       3.729  -9.172   7.415  0.00  0.00    -0.056 NA
ATOM     29  O   UNL     1       3.832  -8.698   6.081  0.00  0.00    -0.340 OA
BRANCH  27  30
ATOM     30  C   UNL     1       1.860  -9.694   8.971  0.00  0.00    +0.023 A 
ATOM     31  C   UNL     1       0.476  -9.727   9.132  0.00  0.00    +0.014 A 
ATOM     32  C   UNL     1      -0.068 -10.148  10.328  0.00  0.00    +0.039 A 
ATOM     33  C   UNL     1       0.760 -10.538  11.369  0.00  0.00    +0.123 A 
ATOM     34  C   UNL     1       2.137 -10.505  11.213  0.00  0.00    +0.039 A 
ATOM     35  C   UNL     1       2.689 -10.091  10.018  0.00  0.00    +0.014 A 
ATOM     36  F   UNL     1       0.224 -10.949  12.538  0.00  0.00    -0.205 F 
ENDBRANCH  27  30
ENDBRANCH  24  25
ENDBRANCH   5  24
TORSDOF 7
