REMARK  Name = ZINC59791817
REMARK  10 active torsions:
REMARK  status: ('A' for Active; 'I' for Inactive)
REMARK    1  A    between atoms: C_2  and  C_3
REMARK    2  A    between atoms: C_3  and  N_4
REMARK    3  A    between atoms: C_5  and  C_25
REMARK    4  A    between atoms: C_8  and  S_9
REMARK    5  A    between atoms: S_9  and  C_10
REMARK    6  A    between atoms: C_10  and  C_11
REMARK    7  A    between atoms: N_13  and  C_14
REMARK    8  A    between atoms: C_17  and  O_20
REMARK    9  A    between atoms: O_20  and  C_21
REMARK   10  A    between atoms: C_28  and  N_31
REMARK                            x       y       z     vdW  Elec       q    Type
REMARK                         _______ _______ _______ _____ _____    ______ ____
ROOT
ATOM      1  N   UNL     1      -1.606  -1.869  -0.913  0.00  0.00    -0.298 N 
ATOM      2  C   UNL     1      -1.832  -1.630  -2.249  0.00  0.00    +0.165 A 
ATOM      3  N   UNL     1      -1.508  -2.725  -2.897  0.00  0.00    -0.128 NA
ATOM      4  N   UNL     1      -1.100  -3.619  -2.069  0.00  0.00    -0.122 NA
ATOM      5  C   UNL     1      -1.133  -3.148  -0.842  0.00  0.00    +0.193 A 
ENDROOT
BRANCH   2   6
ATOM      6  C   UNL     1      -2.344  -0.377  -2.843  0.00  0.00    +0.019 A 
ATOM      7  C   UNL     1      -2.934  -0.390  -4.107  0.00  0.00    +0.014 A 
ATOM      8  C   UNL     1      -3.410   0.783  -4.656  0.00  0.00    +0.033 A 
ATOM      9  C   UNL     1      -3.303   1.971  -3.955  0.00  0.00    +0.126 A 
ATOM     10  C   UNL     1      -2.718   1.992  -2.701  0.00  0.00    +0.033 A 
ATOM     11  C   UNL     1      -2.243   0.825  -2.139  0.00  0.00    +0.014 A 
BRANCH   9  12
ATOM     12  N   UNL     1      -3.816   3.226  -4.550  0.00  0.00    +0.056 N 
ATOM     13  O   UNL     1      -4.327   3.212  -5.645  0.00  0.00    -0.126 OA
ATOM     14  O   UNL     1      -3.723   4.266  -3.940  0.00  0.00    -0.126 OA
ENDBRANCH   9  12
ENDBRANCH   2   6
BRANCH   1  15
ATOM     15  C   UNL     1      -1.821  -0.942   0.201  0.00  0.00    +0.152 C 
BRANCH  15  17
ATOM     16  C   UNL     1      -0.470   1.048   0.621  0.00  0.00    +0.005 C 
ATOM     17  C   UNL     1      -0.522  -0.259   0.543  0.00  0.00    -0.013 C 
ENDBRANCH  15  17
ENDBRANCH   1  15
BRANCH   5  18
ATOM     18  S   UNL     1      -0.660  -4.009   0.621  0.00  0.00    -0.077 S 
BRANCH  18  19
ATOM     19  C   UNL     1      -0.135  -5.638   0.021  0.00  0.00    +0.173 C 
BRANCH  19  20
ATOM     20  C   UNL     1       0.301  -6.486   1.188  0.00  0.00    +0.227 C 
ATOM     21  O   UNL     1       0.261  -6.036   2.314  0.00  0.00    -0.275 OA
ATOM     22  N   UNL     1       0.736  -7.745   0.982  0.00  0.00    -0.285 N 
ATOM     23  H   UNL     1       0.833  -8.082   0.077  0.00  0.00    +0.155 HD
BRANCH  22  24
ATOM     24  C   UNL     1       1.047  -8.567   2.073  0.00  0.00    +0.034 A 
ATOM     25  C   UNL     1       2.080  -9.490   1.975  0.00  0.00    +0.027 A 
ATOM     26  C   UNL     1       2.387 -10.299   3.051  0.00  0.00    +0.048 A 
ATOM     27  C   UNL     1       1.663 -10.191   4.229  0.00  0.00    +0.130 A 
ATOM     28  C   UNL     1       0.631  -9.269   4.328  0.00  0.00    +0.048 A 
ATOM     29  C   UNL     1       0.327  -8.455   3.255  0.00  0.00    +0.027 A 
BRANCH  27  30
ATOM     30  O   UNL     1       1.965 -10.988   5.288  0.00  0.00    -0.406 OA
BRANCH  30  31
ATOM     31  C   UNL     1       1.180 -10.822   6.470  0.00  0.00    +0.575 C 
ATOM     32  F   UNL     1      -0.164 -11.080   6.177  0.00  0.00    -0.133 F 
ATOM     33  F   UNL     1       1.622 -11.714   7.453  0.00  0.00    -0.133 F 
ATOM     34  F   UNL     1       1.311  -9.511   6.938  0.00  0.00    -0.133 F 
ENDBRANCH  30  31
ENDBRANCH  27  30
ENDBRANCH  22  24
ENDBRANCH  19  20
ENDBRANCH  18  19
ENDBRANCH   5  18
TORSDOF 10
