REMARK  Name = ZINC12833138
REMARK  11 active torsions:
REMARK  status: ('A' for Active; 'I' for Inactive)
REMARK    1  A    between atoms: C_1  and  C_2
REMARK    2  A    between atoms: C_5  and  C_36
REMARK    3  A    between atoms: C_9  and  C_14
REMARK    4  A    between atoms: C_14  and  N_70
REMARK    5  A    between atoms: C_15  and  C_16
REMARK    6  A    between atoms: C_15  and  N_70
REMARK    7  A    between atoms: N_20  and  C_21
REMARK    8  A    between atoms: C_21  and  C_22
REMARK    9  A    between atoms: C_25  and  O_28
REMARK   10  A    between atoms: O_28  and  C_29
REMARK   11  A    between atoms: C_30  and  N_70
REMARK                            x       y       z     vdW  Elec       q    Type
REMARK                         _______ _______ _______ _____ _____    ______ ____
ROOT
ATOM      1  N   UNL     1       2.908   4.028   1.382  0.00  0.00    +0.389 N 
ATOM      2  H   UNL     1       1.996   4.369   1.708  0.00  0.00    -0.080 HD
ENDROOT
BRANCH   1   3
ATOM      3  C   UNL     1       3.255   2.797   2.123  0.00  0.00    -0.068 C 
ATOM      4  C   UNL     1       2.756   2.937   3.562  0.00  0.00    -0.015 C 
ATOM      5  C   UNL     1       3.091   1.665   4.344  0.00  0.00    -0.002 C 
ATOM      6  C   UNL     1       4.606   1.452   4.347  0.00  0.00    -0.000 C 
ATOM      7  C   UNL     1       5.104   1.312   2.908  0.00  0.00    -0.002 C 
ATOM      8  C   UNL     1       4.770   2.584   2.126  0.00  0.00    -0.015 C 
ENDBRANCH   1   3
BRANCH   1   9
ATOM      9  C   UNL     1       2.823   3.740  -0.066  0.00  0.00    -0.037 C 
BRANCH   9  18
ATOM     10  C   UNL     1      -2.054   5.047  -1.340  0.00  0.00    +0.044 C 
ATOM     11  C   UNL     1      -2.005   3.544  -1.240  0.00  0.00    -0.041 A 
ATOM     12  C   UNL     1      -3.125   2.802  -1.488  0.00  0.00    +0.004 A 
ATOM     13  C   UNL     1      -3.090   1.418  -1.399  0.00  0.00    +0.005 A 
ATOM     14  C   UNL     1      -1.923   0.763  -1.068  0.00  0.00    -0.026 A 
ATOM     15  C   UNL     1      -0.767   1.496  -0.821  0.00  0.00    +0.052 A 
ATOM     16  C   UNL     1      -0.808   2.901  -0.907  0.00  0.00    +0.002 A 
ATOM     17  C   UNL     1       0.416   3.663  -0.652  0.00  0.00    +0.017 A 
ATOM     18  C   UNL     1       1.547   2.986  -0.334  0.00  0.00    +0.001 A 
ATOM     19  C   UNL     1       1.532   1.576  -0.255  0.00  0.00    +0.251 A 
ATOM     20  O   UNL     1       2.560   0.987   0.033  0.00  0.00    -0.268 OA
ATOM     21  N   UNL     1       0.414   0.868  -0.488  0.00  0.00    -0.322 N 
ATOM     22  H   UNL     1       0.439  -0.100  -0.425  0.00  0.00    +0.169 HD
ATOM     23  C   UNL     1      -1.900  -0.741  -0.973  0.00  0.00    +0.046 C 
ENDBRANCH   9  18
ENDBRANCH   1   9
BRANCH   1  24
ATOM     24  C   UNL     1       3.927   5.071   1.630  0.00  0.00    +0.001 C 
BRANCH  24  25
ATOM     25  C   UNL     1       3.873   5.468   3.083  0.00  0.00    +0.135 A 
ATOM     26  N   UNL     1       4.641   5.021   4.045  0.00  0.00    -0.115 NA
ATOM     27  N   UNL     1       4.285   5.599   5.140  0.00  0.00    -0.023 NA
ATOM     28  N   UNL     1       3.309   6.404   4.901  0.00  0.00    -0.044 NA
ATOM     29  N   UNL     1       3.029   6.355   3.642  0.00  0.00    -0.227 N 
BRANCH  29  30
ATOM     30  C   UNL     1       1.986   7.119   2.953  0.00  0.00    +0.182 C 
BRANCH  30  31
ATOM     31  C   UNL     1       0.698   6.337   2.967  0.00  0.00    -0.026 A 
ATOM     32  C   UNL     1       0.409   5.463   1.935  0.00  0.00    +0.009 A 
ATOM     33  C   UNL     1      -0.768   4.741   1.950  0.00  0.00    +0.046 A 
ATOM     34  C   UNL     1      -1.667   4.902   2.994  0.00  0.00    +0.120 A 
ATOM     35  C   UNL     1      -1.377   5.784   4.026  0.00  0.00    +0.046 A 
ATOM     36  C   UNL     1      -0.196   6.499   4.010  0.00  0.00    +0.009 A 
BRANCH  34  37
ATOM     37  O   UNL     1      -2.829   4.197   3.008  0.00  0.00    -0.495 OA
ATOM     38  C   UNL     1      -3.060   3.307   1.914  0.00  0.00    +0.277 C 
ENDBRANCH  34  37
ENDBRANCH  30  31
ENDBRANCH  29  30
ENDBRANCH  24  25
ENDBRANCH   1  24
TORSDOF 8
