REMARK  Name = ZINC36072475
REMARK  12 active torsions:
REMARK  status: ('A' for Active; 'I' for Inactive)
REMARK    1  A    between atoms: C_1  and  C_2
REMARK    2  A    between atoms: C_2  and  O_3
REMARK    3  A    between atoms: O_3  and  C_4
REMARK    4  A    between atoms: C_4  and  C_6
REMARK    5  A    between atoms: C_12  and  C_14
REMARK    6  A    between atoms: C_17  and  C_19
REMARK    7  A    between atoms: C_19  and  N_20
REMARK    8  A    between atoms: N_20  and  C_21
REMARK    9  A    between atoms: N_20  and  C_29
REMARK   10  A    between atoms: C_21  and  C_22
REMARK   11  A    between atoms: C_29  and  C_30
REMARK   12  A    between atoms: C_35  and  C_36
REMARK                            x       y       z     vdW  Elec       q    Type
REMARK                         _______ _______ _______ _____ _____    ______ ____
ROOT
ATOM      1  C   UNL     1       3.144  -9.616   3.671  0.00  0.00    +0.020 C 
ENDROOT
BRANCH   1   5
ATOM      2  C   UNL     1       5.496  -6.874   3.932  0.00  0.00    +0.164 A 
ATOM      3  C   UNL     1       6.077  -7.601   2.939  0.00  0.00    +0.230 A 
ATOM      4  O   UNL     1       5.296  -8.673   2.731  0.00  0.00    -0.449 OA
ATOM      5  C   UNL     1       4.259  -8.607   3.577  0.00  0.00    +0.179 A 
ATOM      6  N   UNL     1       4.368  -7.537   4.306  0.00  0.00    -0.210 NA
BRANCH   2  13
ATOM      7  C   UNL     1       3.438  -2.986   6.356  0.00  0.00    +0.101 C 
ATOM      8  C   UNL     1       4.838  -2.578   5.889  0.00  0.00    +0.033 C 
ATOM      9  C   UNL     1       5.800  -3.754   6.085  0.00  0.00    +0.109 C 
ATOM     10  N   UNL     1       5.254  -4.931   5.397  0.00  0.00    -0.296 N 
ATOM     11  C   UNL     1       3.881  -5.356   5.705  0.00  0.00    +0.109 C 
ATOM     12  C   UNL     1       2.941  -4.163   5.513  0.00  0.00    +0.033 C 
ATOM     13  C   UNL     1       5.997  -5.609   4.500  0.00  0.00    +0.268 C 
ATOM     14  O   UNL     1       7.082  -5.177   4.159  0.00  0.00    -0.268 OA
BRANCH   7  15
ATOM     15  C   UNL     1       2.496  -1.821   6.196  0.00  0.00    +0.310 C 
ATOM     16  O   UNL     1       1.526  -1.921   5.482  0.00  0.00    -0.251 OA
BRANCH  15  17
ATOM     17  O   UNL     1       2.734  -0.671   6.846  0.00  0.00    -0.465 OA
BRANCH  17  19
ATOM     18  C   UNL     1       2.234   1.611   7.465  0.00  0.00    +0.048 C 
ATOM     19  C   UNL     1       1.800   0.392   6.649  0.00  0.00    +0.229 C 
ENDBRANCH  17  19
ENDBRANCH  15  17
ENDBRANCH   7  15
ENDBRANCH   2  13
ENDBRANCH   1   5
BRANCH   1  20
ATOM     20  N   UNL     1       2.769 -10.059   2.321  0.00  0.00    +0.391 N 
ATOM     21  H   UNL     1       3.601 -10.282   1.797  0.00  0.00    -0.080 HD
BRANCH  20  22
ATOM     22  C   UNL     1       1.915 -11.251   2.416  0.00  0.00    -0.042 C 
BRANCH  22  23
ATOM     23  C   UNL     1       1.631 -11.777   1.033  0.00  0.00    -0.064 A 
ATOM     24  C   UNL     1       0.529 -11.320   0.333  0.00  0.00    +0.004 A 
ATOM     25  C   UNL     1       0.268 -11.802  -0.935  0.00  0.00    +0.038 A 
ATOM     26  C   UNL     1       1.110 -12.741  -1.506  0.00  0.00    +0.123 A 
ATOM     27  C   UNL     1       2.213 -13.197  -0.804  0.00  0.00    +0.038 A 
ATOM     28  C   UNL     1       2.475 -12.711   0.462  0.00  0.00    +0.004 A 
ATOM     29  F   UNL     1       0.855 -13.213  -2.746  0.00  0.00    -0.205 F 
ENDBRANCH  22  23
ENDBRANCH  20  22
BRANCH  20  30
ATOM     30  C   UNL     1       2.035  -8.984   1.640  0.00  0.00    -0.042 C 
BRANCH  30  31
ATOM     31  C   UNL     1       2.948  -7.802   1.439  0.00  0.00    -0.061 A 
ATOM     32  C   UNL     1       2.800  -6.673   2.224  0.00  0.00    +0.002 A 
ATOM     33  C   UNL     1       3.637  -5.589   2.040  0.00  0.00    +0.000 A 
ATOM     34  C   UNL     1       4.622  -5.633   1.071  0.00  0.00    +0.000 A 
ATOM     35  C   UNL     1       4.770  -6.761   0.286  0.00  0.00    +0.003 A 
ATOM     36  C   UNL     1       3.936  -7.848   0.474  0.00  0.00    -0.049 A 
ATOM     37  C   UNL     1       4.100  -9.080  -0.378  0.00  0.00    +0.044 C 
ENDBRANCH  30  31
ENDBRANCH  20  30
ENDBRANCH   1  20
TORSDOF 10
