REMARK  Name = ZINC13020463
REMARK  10 active torsions:
REMARK  status: ('A' for Active; 'I' for Inactive)
REMARK    1  A    between atoms: C_1  and  C_2
REMARK    2  A    between atoms: C_2  and  C_4
REMARK    3  A    between atoms: C_2  and  N_6
REMARK    4  A    between atoms: C_7  and  C_30
REMARK    5  A    between atoms: C_10  and  S_11
REMARK    6  A    between atoms: S_11  and  C_12
REMARK    7  A    between atoms: C_12  and  C_14
REMARK    8  A    between atoms: C_12  and  C_15
REMARK    9  A    between atoms: C_27  and  C_28
REMARK   10  A    between atoms: C_27  and  C_29
REMARK                            x       y       z     vdW  Elec       q    Type
REMARK                         _______ _______ _______ _____ _____    ______ ____
ROOT
ATOM      1  C   UNL     1       1.251  -0.736   3.604  0.00  0.00    +0.137 C 
ATOM      2  C   UNL     1       0.276  -1.807   4.098  0.00  0.00    +0.029 C 
ENDROOT
BRANCH   1   3
ATOM      3  C   UNL     1       0.618   0.039   2.478  0.00  0.00    +0.234 C 
ATOM      4  O   UNL     1       0.611  -0.420   1.355  0.00  0.00    -0.274 OA
ATOM      5  N   UNL     1       0.060   1.242   2.717  0.00  0.00    -0.255 N 
ATOM      6  C   UNL     1       0.062   1.797   4.007  0.00  0.00    +0.059 A 
ATOM      7  C   UNL     1       0.052   0.992   5.131  0.00  0.00    +0.025 A 
ATOM      8  C   UNL     1       0.050   1.569   6.389  0.00  0.00    +0.002 A 
ATOM      9  C   UNL     1       0.057   2.946   6.522  0.00  0.00    +0.002 A 
ATOM     10  C   UNL     1       0.068   3.756   5.401  0.00  0.00    +0.025 A 
ATOM     11  C   UNL     1       0.072   3.187   4.138  0.00  0.00    +0.055 A 
ATOM     12  N   UNL     1       0.089   3.989   2.991  0.00  0.00    -0.282 N 
ATOM     13  C   UNL     1      -0.185   3.466   1.782  0.00  0.00    +0.241 C 
ATOM     14  O   UNL     1      -0.121   4.170   0.796  0.00  0.00    -0.273 OA
ATOM     15  C   UNL     1      -0.570   2.015   1.637  0.00  0.00    +0.113 C 
ATOM     16  C   UNL     1      -0.087   1.490   0.283  0.00  0.00    +0.042 C 
ATOM     17  C   UNL     1      -2.091   1.876   1.727  0.00  0.00    +0.042 C 
ATOM     18  H   UNL     1       0.301   4.932   3.069  0.00  0.00    +0.155 HD
ENDBRANCH   1   3
BRANCH   1  19
ATOM     19  S   UNL     1       2.769  -1.527   3.015  0.00  0.00    -0.073 S 
BRANCH  19  24
ATOM     20  N   UNL     1       4.507  -2.943   4.689  0.00  0.00    -0.288 N 
ATOM     21  C   UNL     1       4.555  -3.263   6.028  0.00  0.00    +0.172 A 
ATOM     22  N   UNL     1       3.487  -2.737   6.587  0.00  0.00    -0.128 NA
ATOM     23  N   UNL     1       2.790  -2.116   5.703  0.00  0.00    -0.122 NA
ATOM     24  C   UNL     1       3.362  -2.214   4.525  0.00  0.00    +0.193 A 
BRANCH  21  25
ATOM     25  C   UNL     1       5.602  -4.044   6.705  0.00  0.00    +0.056 A 
ATOM     26  C   UNL     1       5.860  -4.163   8.047  0.00  0.00    +0.019 A 
ATOM     27  C   UNL     1       6.907  -4.961   8.450  0.00  0.00    +0.008 A 
ATOM     28  C   UNL     1       7.650  -5.603   7.512  0.00  0.00    +0.046 A 
ATOM     29  S   UNL     1       6.864  -5.088   5.994  0.00  0.00    -0.094 S 
ENDBRANCH  21  25
BRANCH  20  31
ATOM     30  C   UNL     1       4.788  -4.140   2.575  0.00  0.00    +0.043 C 
ATOM     31  C   UNL     1       5.480  -3.308   3.657  0.00  0.00    +0.201 C 
BRANCH  31  32
ATOM     32  C   UNL     1       6.052  -2.058   3.040  0.00  0.00    +0.378 C 
ATOM     33  O   UNL     1       5.919  -1.852   1.857  0.00  0.00    -0.244 OA
ATOM     34  O   UNL     1       6.708  -1.171   3.805  0.00  0.00    -0.244 OA
ENDBRANCH  31  32
ENDBRANCH  20  31
ENDBRANCH  19  24
ENDBRANCH   1  19
TORSDOF 6
