REMARK  Name = ZINC00937295
REMARK  9 active torsions:
REMARK  status: ('A' for Active; 'I' for Inactive)
REMARK    1  A    between atoms: C_1  and  C_2
REMARK    2  A    between atoms: C_2  and  C_3
REMARK    3  A    between atoms: C_3  and  C_5
REMARK    4  A    between atoms: C_3  and  S_6
REMARK    5  A    between atoms: S_6  and  C_7
REMARK    6  A    between atoms: C_18  and  C_20
REMARK    7  A    between atoms: C_23  and  C_26
REMARK    8  A    between atoms: C_31  and  C_33
REMARK    9  A    between atoms: C_31  and  C_34
REMARK                            x       y       z     vdW  Elec       q    Type
REMARK                         _______ _______ _______ _____ _____    ______ ____
ROOT
ATOM      1  C   UNL     1      -1.602   4.510  -3.426  0.00  0.00    +0.171 A 
ATOM      2  N   UNL     1      -1.817   3.170  -3.539  0.00  0.00    -0.302 N 
ATOM      3  H   UNL     1      -2.027   2.784  -4.404  0.00  0.00    +0.171 HD
ATOM      4  C   UNL     1      -1.737   2.376  -2.449  0.00  0.00    +0.258 A 
ATOM      5  O   UNL     1      -1.926   1.174  -2.541  0.00  0.00    -0.267 OA
ATOM      6  C   UNL     1      -1.434   2.959  -1.213  0.00  0.00    +0.069 A 
ATOM      7  C   UNL     1      -1.228   4.326  -1.152  0.00  0.00    +0.135 A 
ATOM      8  N   UNL     1      -1.317   5.063  -2.265  0.00  0.00    -0.208 NA
ATOM      9  N   UNL     1      -0.933   4.920   0.059  0.00  0.00    -0.302 N 
ATOM     10  C   UNL     1      -1.224   4.283   1.235  0.00  0.00    +0.017 C 
ATOM     11  C   UNL     1      -1.423   2.950   1.270  0.00  0.00    +0.024 C 
ATOM     12  C   UNL     1      -1.334   2.112   0.020  0.00  0.00    +0.092 C 
ATOM     13  C   UNL     1      -1.720   2.293   2.479  0.00  0.00    +0.162 C 
ATOM     14  O   UNL     1      -1.911   1.093   2.474  0.00  0.00    -0.292 OA
ATOM     15  C   UNL     1      -1.804   3.048   3.777  0.00  0.00    +0.086 C 
ATOM     16  C   UNL     1      -0.894   4.279   3.698  0.00  0.00    -0.023 C 
ATOM     17  C   UNL     1      -1.320   5.117   2.490  0.00  0.00    +0.058 C 
ATOM     18  C   UNL     1       0.560   3.834   3.530  0.00  0.00    +0.011 C 
ATOM     19  C   UNL     1      -1.035   5.107   4.976  0.00  0.00    +0.011 C 
ATOM     20  H   UNL     1      -0.517   5.796   0.077  0.00  0.00    +0.153 HD
ENDROOT
BRANCH  12  21
ATOM     21  C   UNL     1      -0.017   1.379   0.010  0.00  0.00    -0.035 A 
ATOM     22  C   UNL     1       1.168   2.094   0.002  0.00  0.00    +0.006 A 
ATOM     23  C   UNL     1       2.377   1.430  -0.013  0.00  0.00    +0.019 A 
ATOM     24  C   UNL     1       2.404   0.034  -0.021  0.00  0.00    +0.052 A 
ATOM     25  C   UNL     1       1.204  -0.681  -0.013  0.00  0.00    +0.019 A 
ATOM     26  C   UNL     1       0.002  -0.004   0.002  0.00  0.00    +0.006 A 
BRANCH  24  27
ATOM     27  C   UNL     1       3.655  -0.662  -0.038  0.00  0.00    +0.099 C 
ATOM     28  N   UNL     1       4.648  -1.214  -0.051  0.00  0.00    -0.191 NA
ENDBRANCH  24  27
ENDBRANCH  12  21
BRANCH   1  29
ATOM     29  S   UNL     1      -1.708   5.525  -4.863  0.00  0.00    -0.085 S 
BRANCH  29  30
ATOM     30  C   UNL     1      -1.344   7.141  -4.133  0.00  0.00    +0.051 C 
ATOM     31  C   UNL     1      -2.458   7.521  -3.155  0.00  0.00    +0.019 C 
BRANCH  30  33
ATOM     32  C   UNL     1      -0.066   7.880  -6.149  0.00  0.00    +0.005 C 
ATOM     33  C   UNL     1      -1.258   8.192  -5.241  0.00  0.00    +0.011 C 
ENDBRANCH  30  33
ENDBRANCH  29  30
ENDBRANCH   1  29
TORSDOF 5
