REMARK  Name = ZINC54641659
REMARK  10 active torsions:
REMARK  status: ('A' for Active; 'I' for Inactive)
REMARK    1  A    between atoms: C_1  and  C_2
REMARK    2  A    between atoms: C_3  and  C_31
REMARK    3  A    between atoms: C_4  and  C_21
REMARK    4  A    between atoms: C_9  and  S_11
REMARK    5  A    between atoms: S_11  and  C_12
REMARK    6  A    between atoms: C_12  and  C_13
REMARK    7  A    between atoms: C_24  and  C_27
REMARK    8  A    between atoms: C_27  and  O_29
REMARK    9  A    between atoms: O_29  and  C_30
REMARK   10  A    between atoms: C_31  and  C_33
REMARK                            x       y       z     vdW  Elec       q    Type
REMARK                         _______ _______ _______ _____ _____    ______ ____
ROOT
ATOM      1  C   UNL     1      -0.018   1.503   0.010  0.00  0.00    +0.061 C 
ATOM      2  C   UNL     1       0.002  -0.004   0.002  0.00  0.00    +0.016 C 
ATOM      3  C   UNL     1      -1.168  -0.672   0.004  0.00  0.00    +0.040 C 
ATOM      4  C   UNL     1      -1.255  -2.175   0.007  0.00  0.00    +0.175 C 
ATOM      5  N   UNL     1       0.061  -2.737  -0.284  0.00  0.00    -0.220 N 
ATOM      6  C   UNL     1       1.206  -2.011  -0.281  0.00  0.00    +0.219 A 
ATOM      7  N   UNL     1       2.195  -2.811  -0.572  0.00  0.00    -0.187 NA
ATOM      8  C   UNL     1       1.725  -4.051  -0.772  0.00  0.00    +0.211 A 
ATOM      9  N   UNL     1       0.419  -4.046  -0.605  0.00  0.00    -0.141 NA
ATOM     10  N   UNL     1       1.209  -0.650  -0.013  0.00  0.00    -0.287 N 
ATOM     11  H   UNL     1       2.037  -0.174   0.161  0.00  0.00    +0.155 HD
ENDROOT
BRANCH   4  12
ATOM     12  C   UNL     1      -1.716  -2.649   1.361  0.00  0.00    -0.018 A 
ATOM     13  C   UNL     1      -0.969  -2.348   2.487  0.00  0.00    +0.007 A 
ATOM     14  C   UNL     1      -1.385  -2.779   3.730  0.00  0.00    +0.015 A 
ATOM     15  C   UNL     1      -2.562  -3.520   3.850  0.00  0.00    +0.059 A 
ATOM     16  C   UNL     1      -3.311  -3.820   2.710  0.00  0.00    +0.015 A 
ATOM     17  C   UNL     1      -2.886  -3.378   1.474  0.00  0.00    +0.007 A 
BRANCH  15  18
ATOM     18  C   UNL     1      -3.014  -3.985   5.178  0.00  0.00    +0.339 C 
ATOM     19  O   UNL     1      -2.360  -3.723   6.167  0.00  0.00    -0.245 OA
BRANCH  18  20
ATOM     20  O   UNL     1      -4.150  -4.700   5.290  0.00  0.00    -0.464 OA
ATOM     21  C   UNL     1      -4.526  -5.117   6.604  0.00  0.00    +0.280 C 
ENDBRANCH  18  20
ENDBRANCH  15  18
ENDBRANCH   4  12
BRANCH   3  22
ATOM     22  C   UNL     1      -2.361   0.068   0.003  0.00  0.00    +0.160 C 
ATOM     23  O   UNL     1      -2.322   1.282  -0.000  0.00  0.00    -0.293 OA
ATOM     24  C   UNL     1      -3.689  -0.644   0.005  0.00  0.00    +0.091 C 
ENDBRANCH   3  22
BRANCH   8  25
ATOM     25  S   UNL     1       2.697  -5.459  -1.190  0.00  0.00    -0.080 S 
BRANCH  25  26
ATOM     26  C   UNL     1       4.391  -4.814  -1.270  0.00  0.00    +0.115 C 
BRANCH  26  27
ATOM     27  C   UNL     1       5.338  -5.932  -1.625  0.00  0.00    -0.002 A 
ATOM     28  C   UNL     1       5.915  -6.692  -0.625  0.00  0.00    +0.007 A 
ATOM     29  C   UNL     1       6.784  -7.717  -0.949  0.00  0.00    +0.000 A 
ATOM     30  C   UNL     1       7.075  -7.984  -2.274  0.00  0.00    +0.003 A 
ATOM     31  C   UNL     1       6.499  -7.226  -3.275  0.00  0.00    +0.038 A 
ATOM     32  C   UNL     1       5.625  -6.202  -2.952  0.00  0.00    +0.127 A 
ATOM     33  F   UNL     1       5.057  -5.463  -3.930  0.00  0.00    -0.205 F 
ENDBRANCH  26  27
ENDBRANCH  25  26
ENDBRANCH   8  25
TORSDOF 7
