REMARK  Name = ZINC39467067
REMARK  4 active torsions:
REMARK  status: ('A' for Active; 'I' for Inactive)
REMARK    1  A    between atoms: C_4  and  C_7
REMARK    2  A    between atoms: C_7  and  C_8
REMARK    3  A    between atoms: P_17  and  C_27
REMARK    4  A    between atoms: C_32  and  O_33
REMARK                            x       y       z     vdW  Elec       q    Type
REMARK                         _______ _______ _______ _____ _____    ______ ____
ROOT
ATOM      1  C   UNL     1       4.164  -0.959   1.377  0.00  0.00    -0.029 C 
ATOM      2  C   UNL     1       3.893  -2.119   1.968  0.00  0.00    -0.018 C 
ATOM      3  C   UNL     1       4.361  -2.364   3.382  0.00  0.00    +0.016 C 
ATOM      4  C   UNL     1       3.368  -1.717   4.348  0.00  0.00    -0.003 C 
ATOM      5  C   UNL     1       3.873  -1.826   5.792  0.00  0.00    -0.020 C 
ATOM      6  C   UNL     1       2.824  -1.154   6.688  0.00  0.00    +0.157 C 
ATOM      7  O   UNL     1       3.222  -1.273   8.066  0.00  0.00    -0.316 OA
ATOM      8  P   UNL     1       4.738  -0.828   8.456  0.00  0.00    +0.291 P 
ATOM      9  O   UNL     1       5.159  -1.487   9.712  0.00  0.00    -0.269 OA
ATOM     10  N   UNL     1       5.676  -1.339   7.198  0.00  0.00    -0.288 NA
ATOM     11  N   UNL     1       5.179  -1.175   5.922  0.00  0.00    +0.398 N 
ATOM     12  C   UNL     1       6.158  -1.811   5.026  0.00  0.00    -0.046 C 
ATOM     13  C   UNL     1       5.737  -1.715   3.564  0.00  0.00    +0.006 C 
ATOM     14  C   UNL     1       5.668  -0.270   3.150  0.00  0.00    -0.005 C 
ATOM     15  C   UNL     1       4.916   0.076   2.108  0.00  0.00    +0.040 C 
ATOM     16 CL   UNL     1       4.817   1.739   1.619  0.00  0.00    -0.084 Cl
ATOM     17  H   UNL     1       6.546  -1.739   7.353  0.00  0.00    +0.111 HD
ATOM     18  H   UNL     1       5.092  -0.193   5.710  0.00  0.00    -0.055 HD
ENDROOT
BRANCH   8  19
ATOM     19  C   UNL     1       4.839   0.975   8.628  0.00  0.00    +0.091 A 
ATOM     20  C   UNL     1       5.142   1.759   7.531  0.00  0.00    +0.018 A 
ATOM     21  C   UNL     1       5.220   3.133   7.662  0.00  0.00    +0.001 A 
ATOM     22  C   UNL     1       4.994   3.727   8.890  0.00  0.00    +0.004 A 
ATOM     23  C   UNL     1       4.690   2.948   9.990  0.00  0.00    +0.046 A 
ATOM     24  C   UNL     1       4.606   1.569   9.860  0.00  0.00    +0.131 A 
BRANCH  24  25
ATOM     25  O   UNL     1       4.301   0.801  10.939  0.00  0.00    -0.506 OA
ATOM     26  H   UNL     1       5.072   0.512  11.446  0.00  0.00    +0.292 HD
ENDBRANCH  24  25
ENDBRANCH   8  19
BRANCH   1  27
ATOM     27  C   UNL     1       3.711  -0.707  -0.038  0.00  0.00    +0.071 C 
BRANCH  27  31
ATOM     28  C   UNL     1      -0.017   1.378   0.010  0.00  0.00    +0.000 A 
ATOM     29  C   UNL     1       1.171   2.086   0.002  0.00  0.00    +0.000 A 
ATOM     30  C   UNL     1       2.377   1.411  -0.013  0.00  0.00    +0.004 A 
ATOM     31  C   UNL     1       2.396   0.029  -0.020  0.00  0.00    -0.043 A 
ATOM     32  C   UNL     1       1.208  -0.679  -0.012  0.00  0.00    +0.004 A 
ATOM     33  C   UNL     1       0.002  -0.004   0.002  0.00  0.00    +0.000 A 
ENDBRANCH  27  31
ENDBRANCH   1  27
TORSDOF 4
