REMARK  Name = ZINC08997436
REMARK  10 active torsions:
REMARK  status: ('A' for Active; 'I' for Inactive)
REMARK    1  A    between atoms: C_1  and  C_2
REMARK    2  A    between atoms: C_3  and  C_25
REMARK    3  A    between atoms: C_4  and  C_16
REMARK    4  A    between atoms: C_19  and  N_22
REMARK    5  A    between atoms: N_22  and  C_23
REMARK    6  A    between atoms: N_22  and  C_24
REMARK    7  A    between atoms: C_25  and  O_27
REMARK    8  A    between atoms: O_27  and  C_28
REMARK    9  A    between atoms: C_28  and  C_29
REMARK   10  A    between atoms: C_28  and  C_30
REMARK                            x       y       z     vdW  Elec       q    Type
REMARK                         _______ _______ _______ _____ _____    ______ ____
ROOT
ATOM      1  C   UNL     1      -0.018   1.503   0.010  0.00  0.00    +0.061 C 
ATOM      2  C   UNL     1       0.002  -0.004   0.002  0.00  0.00    +0.020 C 
ATOM      3  C   UNL     1      -1.164  -0.667   0.004  0.00  0.00    +0.080 C 
ATOM      4  C   UNL     1      -1.259  -2.168   0.007  0.00  0.00    +0.159 C 
ATOM      5  N   UNL     1       0.052  -2.744  -0.296  0.00  0.00    -0.300 N 
ATOM      6  C   UNL     1       0.387  -4.026  -0.621  0.00  0.00    +0.071 A 
ATOM      7  C   UNL     1      -0.360  -5.187  -0.781  0.00  0.00    +0.028 A 
ATOM      8  C   UNL     1       0.329  -6.340  -1.122  0.00  0.00    +0.002 A 
ATOM      9  C   UNL     1       1.702  -6.348  -1.298  0.00  0.00    +0.002 A 
ATOM     10  C   UNL     1       2.468  -5.207  -1.146  0.00  0.00    +0.030 A 
ATOM     11  C   UNL     1       1.793  -4.030  -0.803  0.00  0.00    +0.091 A 
ATOM     12  N   UNL     1       2.230  -2.773  -0.587  0.00  0.00    -0.214 NA
ATOM     13  C   UNL     1       1.215  -2.007  -0.291  0.00  0.00    +0.202 A 
ATOM     14  N   UNL     1       1.213  -0.649  -0.013  0.00  0.00    -0.288 N 
ATOM     15  H   UNL     1       2.038  -0.173   0.168  0.00  0.00    +0.155 HD
ENDROOT
BRANCH   4  16
ATOM     16  C   UNL     1      -1.711  -2.639   1.366  0.00  0.00    -0.020 A 
ATOM     17  C   UNL     1      -0.955  -2.344   2.485  0.00  0.00    +0.008 A 
ATOM     18  C   UNL     1      -1.366  -2.774   3.731  0.00  0.00    +0.023 A 
ATOM     19  C   UNL     1      -2.541  -3.504   3.860  0.00  0.00    +0.029 A 
ATOM     20  C   UNL     1      -3.298  -3.798   2.733  0.00  0.00    +0.023 A 
ATOM     21  C   UNL     1      -2.884  -3.360   1.490  0.00  0.00    +0.008 A 
BRANCH  19  22
ATOM     22  N   UNL     1      -2.960  -3.941   5.118  0.00  0.00    -0.336 N 
ATOM     23  C   UNL     1      -2.159  -3.629   6.305  0.00  0.00    +0.129 C 
ATOM     24  C   UNL     1      -4.199  -4.710   5.252  0.00  0.00    +0.129 C 
ENDBRANCH  19  22
ENDBRANCH   4  16
BRANCH   3  25
ATOM     25  C   UNL     1      -2.362   0.082   0.004  0.00  0.00    +0.339 C 
ATOM     26  O   UNL     1      -2.319   1.299   0.001  0.00  0.00    -0.245 OA
BRANCH  25  27
ATOM     27  O   UNL     1      -3.554  -0.551   0.005  0.00  0.00    -0.459 OA
BRANCH  27  28
ATOM     28  C   UNL     1      -4.724   0.269   0.005  0.00  0.00    +0.171 C 
ATOM     29  C   UNL     1      -5.143   0.559  -1.438  0.00  0.00    +0.052 C 
ATOM     30  C   UNL     1      -5.858  -0.460   0.728  0.00  0.00    +0.052 C 
ENDBRANCH  27  28
ENDBRANCH  25  27
ENDBRANCH   3  25
TORSDOF 5
