REMARK  Name = ZINC28809464
REMARK  13 active torsions:
REMARK  status: ('A' for Active; 'I' for Inactive)
REMARK    1  A    between atoms: C_1  and  C_2
REMARK    2  A    between atoms: C_3  and  C_12
REMARK    3  A    between atoms: C_12  and  C_14
REMARK    4  A    between atoms: C_14  and  O_15
REMARK    5  A    between atoms: O_15  and  C_16
REMARK    6  A    between atoms: C_16  and  C_18
REMARK    7  A    between atoms: C_21  and  O_26
REMARK    8  A    between atoms: C_22  and  O_24
REMARK    9  A    between atoms: O_24  and  C_25
REMARK   10  A    between atoms: O_26  and  C_27
REMARK   11  A    between atoms: C_27  and  C_28
REMARK   12  A    between atoms: C_29  and  C_34
REMARK   13  A    between atoms: C_32  and  C_33
REMARK                            x       y       z     vdW  Elec       q    Type
REMARK                         _______ _______ _______ _____ _____    ______ ____
ROOT
ATOM      1  C   UNL     1      -3.676   1.525   0.144  0.00  0.00    +0.340 C 
ATOM      2  O   UNL     1      -3.847   2.725   0.057  0.00  0.00    -0.245 OA
ENDROOT
BRANCH   1   3
ATOM      3  C   UNL     1      -4.836   0.622   0.265  0.00  0.00    +0.063 A 
ATOM      4  C   UNL     1      -4.641  -0.759   0.360  0.00  0.00    +0.019 A 
ATOM      5  C   UNL     1      -5.725  -1.601   0.479  0.00  0.00    +0.050 A 
ATOM      6  C   UNL     1      -7.013  -1.082   0.494  0.00  0.00    +0.162 A 
ATOM      7  C   UNL     1      -7.215   0.294   0.394  0.00  0.00    +0.162 A 
ATOM      8  C   UNL     1      -6.132   1.144   0.281  0.00  0.00    +0.064 A 
BRANCH   7   9
ATOM      9  O   UNL     1      -8.477   0.799   0.410  0.00  0.00    -0.491 OA
ATOM     10  C   UNL     1      -8.610   2.218   0.304  0.00  0.00    +0.277 C 
ENDBRANCH   7   9
BRANCH   6  11
ATOM     11  O   UNL     1      -8.079  -1.916   0.605  0.00  0.00    -0.484 OA
BRANCH  11  12
ATOM     12  C   UNL     1      -7.800  -3.314   0.704  0.00  0.00    +0.270 C 
BRANCH  12  13
ATOM     13  C   UNL     1      -9.094  -4.078   0.819  0.00  0.00    +0.054 A 
ATOM     14  C   UNL     1      -9.890  -4.606  -0.224  0.00  0.00    +0.087 A 
ATOM     15  N   UNL     1     -10.908  -5.182   0.347  0.00  0.00    -0.083 NA
ATOM     16  O   UNL     1     -10.856  -5.087   1.551  0.00  0.00    -0.359 OA
ATOM     17  C   UNL     1      -9.762  -4.421   1.946  0.00  0.00    +0.141 A 
ATOM     18  C   UNL     1      -9.356  -4.114   3.365  0.00  0.00    +0.089 C 
ATOM     19  C   UNL     1      -9.613  -4.519  -1.702  0.00  0.00    +0.069 C 
ENDBRANCH  12  13
ENDBRANCH  11  12
ENDBRANCH   6  11
ENDBRANCH   1   3
BRANCH   1  20
ATOM     20  O   UNL     1      -2.427   1.020   0.130  0.00  0.00    -0.453 OA
BRANCH  20  21
ATOM     21  C   UNL     1      -1.334   1.967   0.008  0.00  0.00    +0.312 C 
BRANCH  21  22
ATOM     22  C   UNL     1      -0.023   1.225   0.009  0.00  0.00    +0.203 C 
ATOM     23  O   UNL     1      -0.013   0.011   0.007  0.00  0.00    -0.288 OA
BRANCH  22  26
ATOM     24  C   UNL     1       1.616   1.949  -2.521  0.00  0.00    +0.064 C 
ATOM     25  C   UNL     1       1.957   2.285  -1.092  0.00  0.00    +0.025 A 
ATOM     26  C   UNL     1       1.199   1.944   0.008  0.00  0.00    +0.049 A 
ATOM     27  C   UNL     1       1.919   2.471   1.184  0.00  0.00    +0.011 A 
ATOM     28  C   UNL     1       1.677   2.450   2.554  0.00  0.00    +0.011 A 
ATOM     29  C   UNL     1       2.571   3.051   3.413  0.00  0.00    +0.001 A 
ATOM     30  C   UNL     1       3.706   3.675   2.917  0.00  0.00    +0.002 A 
ATOM     31  C   UNL     1       3.957   3.704   1.563  0.00  0.00    +0.026 A 
ATOM     32  C   UNL     1       3.066   3.102   0.679  0.00  0.00    +0.047 A 
ATOM     33  N   UNL     1       3.047   2.969  -0.695  0.00  0.00    -0.358 N 
ATOM     34  H   UNL     1       3.769   3.333  -1.440  0.00  0.00    +0.166 HD
ENDBRANCH  22  26
ENDBRANCH  21  22
ENDBRANCH  20  21
ENDBRANCH   1  20
TORSDOF 9
