REMARK  Name = ZINC11867130
REMARK  8 active torsions:
REMARK  status: ('A' for Active; 'I' for Inactive)
REMARK    1  A    between atoms: C_1  and  C_2
REMARK    2  A    between atoms: C_6  and  O_29
REMARK    3  A    between atoms: C_7  and  C_28
REMARK    4  A    between atoms: C_12  and  C_13
REMARK    5  A    between atoms: C_13  and  C_14
REMARK    6  A    between atoms: C_19  and  O_27
REMARK    7  A    between atoms: O_29  and  C_30
REMARK    8  A    between atoms: C_30  and  C_31
REMARK                            x       y       z     vdW  Elec       q    Type
REMARK                         _______ _______ _______ _____ _____    ______ ____
ROOT
ATOM      1  C   UNL     1      -6.095  -2.742  -3.478  0.00  0.00    +0.045 C 
ATOM      2  C   UNL     1      -6.650  -1.946  -4.630  0.00  0.00    -0.029 A 
ATOM      3  C   UNL     1      -7.061  -2.605  -5.872  0.00  0.00    +0.021 A 
ATOM      4  C   UNL     1      -6.950  -3.992  -6.021  0.00  0.00    +0.015 A 
ATOM      5  C   UNL     1      -7.340  -4.582  -7.189  0.00  0.00    +0.047 A 
ATOM      6  C   UNL     1      -7.848  -3.811  -8.233  0.00  0.00    +0.127 A 
ATOM      7  C   UNL     1      -7.966  -2.438  -8.102  0.00  0.00    +0.034 A 
ATOM      8  C   UNL     1      -7.574  -1.822  -6.922  0.00  0.00    +0.146 A 
ATOM      9  O   UNL     1      -7.680  -0.484  -6.774  0.00  0.00    -0.422 OA
ATOM     10  C   UNL     1      -7.311   0.126  -5.636  0.00  0.00    +0.341 A 
ATOM     11  O   UNL     1      -7.430   1.335  -5.546  0.00  0.00    -0.245 OA
ATOM     12  C   UNL     1      -6.783  -0.596  -4.546  0.00  0.00    +0.049 A 
ATOM     13  C   UNL     1      -8.518  -1.614  -9.237  0.00  0.00    +0.051 C 
ENDROOT
BRANCH  12  14
ATOM     14  C   UNL     1      -6.374   0.126  -3.289  0.00  0.00    +0.138 C 
BRANCH  14  15
ATOM     15  C   UNL     1      -4.925   0.529  -3.390  0.00  0.00    +0.220 C 
ATOM     16  O   UNL     1      -4.288   0.256  -4.385  0.00  0.00    -0.275 OA
ATOM     17  N   UNL     1      -4.338   1.192  -2.374  0.00  0.00    -0.301 N 
ATOM     18  C   UNL     1      -5.096   1.531  -1.162  0.00  0.00    +0.110 C 
ATOM     19  C   UNL     1      -4.336   0.999   0.057  0.00  0.00    +0.054 C 
ATOM     20  C   UNL     1      -2.905   1.543   0.041  0.00  0.00    +0.072 C 
ATOM     21  C   UNL     1      -2.159   1.034   1.276  0.00  0.00    +0.035 C 
ATOM     22  C   UNL     1      -0.730   1.580   1.266  0.00  0.00    +0.003 C 
ATOM     23  C   UNL     1      -0.013   1.086   0.008  0.00  0.00    +0.001 C 
ATOM     24  C   UNL     1      -0.753   1.593  -1.231  0.00  0.00    +0.008 C 
ATOM     25  C   UNL     1      -2.188   1.062  -1.223  0.00  0.00    +0.038 C 
ATOM     26  C   UNL     1      -2.924   1.586  -2.461  0.00  0.00    +0.114 C 
BRANCH  20  27
ATOM     27  O   UNL     1      -2.936   2.972   0.057  0.00  0.00    -0.388 OA
ATOM     28  H   UNL     1      -3.376   3.347   0.832  0.00  0.00    +0.210 HD
ENDBRANCH  20  27
ENDBRANCH  14  15
ENDBRANCH  12  14
BRANCH   6  29
ATOM     29  O   UNL     1      -8.232  -4.413  -9.388  0.00  0.00    -0.487 OA
BRANCH  29  30
ATOM     30  C   UNL     1      -8.086  -5.832  -9.460  0.00  0.00    +0.264 C 
BRANCH  30  31
ATOM     31  C   UNL     1      -8.559  -6.318 -10.806  0.00  0.00    -0.009 A 
ATOM     32  C   UNL     1      -7.671  -6.405 -11.861  0.00  0.00    +0.007 A 
ATOM     33  C   UNL     1      -8.104  -6.851 -13.095  0.00  0.00    +0.002 A 
ATOM     34  C   UNL     1      -9.427  -7.211 -13.275  0.00  0.00    +0.020 A 
ATOM     35  C   UNL     1     -10.316  -7.125 -12.220  0.00  0.00    +0.041 A 
ATOM     36  C   UNL     1      -9.881  -6.683 -10.983  0.00  0.00    +0.027 A 
ATOM     37 CL   UNL     1     -11.977  -7.577 -12.444  0.00  0.00    -0.084 Cl
ENDBRANCH  30  31
ENDBRANCH  29  30
ENDBRANCH   6  29
TORSDOF 6
