REMARK  Name = ZINC01102624
REMARK  9 active torsions:
REMARK  status: ('A' for Active; 'I' for Inactive)
REMARK    1  A    between atoms: C_1  and  C_2
REMARK    2  A    between atoms: C_2  and  C_3
REMARK    3  A    between atoms: C_2  and  C_4
REMARK    4  A    between atoms: C_16  and  C_18
REMARK    5  A    between atoms: C_22  and  O_24
REMARK    6  A    between atoms: O_24  and  C_25
REMARK    7  A    between atoms: C_29  and  C_32
REMARK    8  A    between atoms: C_35  and  O_38
REMARK    9  A    between atoms: O_38  and  C_39
REMARK                            x       y       z     vdW  Elec       q    Type
REMARK                         _______ _______ _______ _____ _____    ______ ____
ROOT
ATOM      1  C   UNL     1       6.176   8.526  -1.508  0.00  0.00    +0.223 C 
ATOM      2  O   UNL     1       5.957   9.338  -0.635  0.00  0.00    -0.275 OA
ATOM      3  N   UNL     1       6.058   7.209  -1.248  0.00  0.00    -0.258 N 
ATOM      4  C   UNL     1       6.312   6.283  -2.259  0.00  0.00    +0.058 A 
ATOM      5  C   UNL     1       7.588   6.112  -2.776  0.00  0.00    +0.025 A 
ATOM      6  C   UNL     1       7.812   5.127  -3.721  0.00  0.00    +0.002 A 
ATOM      7  C   UNL     1       6.776   4.318  -4.152  0.00  0.00    +0.002 A 
ATOM      8  C   UNL     1       5.497   4.501  -3.655  0.00  0.00    +0.025 A 
ATOM      9  C   UNL     1       5.268   5.499  -2.724  0.00  0.00    +0.053 A 
ATOM     10  N   UNL     1       4.001   5.772  -2.221  0.00  0.00    -0.316 N 
ATOM     11  C   UNL     1       3.633   5.626  -0.922  0.00  0.00    +0.017 C 
ATOM     12  C   UNL     1       4.338   6.064   0.134  0.00  0.00    +0.037 C 
ATOM     13  C   UNL     1       5.670   6.776   0.076  0.00  0.00    +0.147 C 
ATOM     14  C   UNL     1       3.856   5.860   1.448  0.00  0.00    +0.163 C 
ATOM     15  O   UNL     1       4.502   6.292   2.383  0.00  0.00    -0.292 OA
ATOM     16  C   UNL     1       2.578   5.128   1.729  0.00  0.00    +0.088 C 
ATOM     17  C   UNL     1       2.327   4.131   0.591  0.00  0.00    +0.032 C 
ATOM     18  C   UNL     1       2.303   4.918  -0.718  0.00  0.00    +0.059 C 
ATOM     19  H   UNL     1       3.330   6.091  -2.845  0.00  0.00    +0.152 HD
ENDROOT
BRANCH  13  20
ATOM     20  C   UNL     1       6.731   5.847   0.607  0.00  0.00    -0.019 A 
ATOM     21  C   UNL     1       7.005   4.662  -0.052  0.00  0.00    +0.006 A 
ATOM     22  C   UNL     1       7.982   3.811   0.429  0.00  0.00    +0.004 A 
ATOM     23  C   UNL     1       8.680   4.136   1.576  0.00  0.00    +0.045 A 
ATOM     24  C   UNL     1       8.403   5.321   2.242  0.00  0.00    +0.120 A 
ATOM     25  C   UNL     1       7.426   6.176   1.754  0.00  0.00    +0.051 A 
BRANCH  24  26
ATOM     26  O   UNL     1       9.088   5.643   3.371  0.00  0.00    -0.495 OA
ATOM     27  C   UNL     1      10.080   4.715   3.815  0.00  0.00    +0.277 C 
ENDBRANCH  24  26
ENDBRANCH  13  20
BRANCH  17  28
ATOM     28  C   UNL     1       1.003   3.442   0.797  0.00  0.00    -0.043 A 
ATOM     29  C   UNL     1       0.954   2.068   0.937  0.00  0.00    +0.007 A 
ATOM     30  C   UNL     1      -0.258   1.434   1.126  0.00  0.00    +0.046 A 
ATOM     31  C   UNL     1      -1.429   2.177   1.171  0.00  0.00    +0.120 A 
ATOM     32  C   UNL     1      -1.377   3.557   1.036  0.00  0.00    +0.046 A 
ATOM     33  C   UNL     1      -0.162   4.186   0.847  0.00  0.00    +0.007 A 
BRANCH  31  34
ATOM     34  O   UNL     1      -2.624   1.555   1.351  0.00  0.00    -0.495 OA
ATOM     35  C   UNL     1      -3.787   2.384   1.387  0.00  0.00    +0.277 C 
ENDBRANCH  31  34
ENDBRANCH  17  28
BRANCH   1  37
ATOM     36  C   UNL     1       5.554   8.500  -3.909  0.00  0.00    +0.017 C 
ATOM     37  C   UNL     1       6.580   8.989  -2.884  0.00  0.00    +0.069 C 
ATOM     38  C   UNL     1       6.640  10.517  -2.911  0.00  0.00    +0.017 C 
ENDBRANCH   1  37
TORSDOF 5
