REMARK  Name = ZINC24350985
REMARK  4 active torsions:
REMARK  status: ('A' for Active; 'I' for Inactive)
REMARK    1  A    between atoms: C_6  and  C_7
REMARK    2  A    between atoms: C_10  and  C_12
REMARK    3  A    between atoms: N_14  and  N_15
REMARK    4  A    between atoms: C_16  and  C_18
REMARK                            x       y       z     vdW  Elec       q    Type
REMARK                         _______ _______ _______ _____ _____    ______ ____
ROOT
ATOM      1  C   UNL     1      -6.641  -3.681   0.018  0.00  0.00    +0.267 C 
ATOM      2  O   UNL     1      -7.844  -3.490   0.027  0.00  0.00    -0.268 OA
ATOM      3  N   UNL     1      -6.159  -4.940   0.008  0.00  0.00    -0.230 N 
ATOM      4  H   UNL     1      -5.072  -5.112   0.000  0.00  0.00    +0.173 HD
ENDROOT
BRANCH   1   8
ATOM      5  C   UNL     1      -3.676  -0.780   0.019  0.00  0.00    +0.020 A 
ATOM      6  C   UNL     1      -4.974  -0.295   0.035  0.00  0.00    +0.017 A 
ATOM      7  C   UNL     1      -6.009  -1.187   0.029  0.00  0.00    +0.021 A 
ATOM      8  C   UNL     1      -5.720  -2.544   0.020  0.00  0.00    +0.076 A 
ATOM      9  S   UNL     1      -3.934  -2.546   0.009  0.00  0.00    -0.084 S 
BRANCH   5  15
ATOM     10  C   UNL     1      -2.417   1.368   0.025  0.00  0.00    +0.013 A 
ATOM     11  C   UNL     1      -1.228   2.067   0.019  0.00  0.00    +0.050 A 
ATOM     12  C   UNL     1      -0.017   1.388   0.010  0.00  0.00    +0.162 A 
ATOM     13  C   UNL     1       0.002  -0.004   0.002  0.00  0.00    +0.163 A 
ATOM     14  C   UNL     1      -1.187  -0.711   0.004  0.00  0.00    +0.058 A 
ATOM     15  C   UNL     1      -2.405  -0.028   0.016  0.00  0.00    -0.008 A 
ATOM     16  O   UNL     1       1.181  -0.684  -0.006  0.00  0.00    -0.485 OA
ATOM     17  C   UNL     1       2.347   0.054  -0.387  0.00  0.00    +0.270 C 
ATOM     18  C   UNL     1       2.334   1.392   0.365  0.00  0.00    +0.270 C 
ATOM     19  O   UNL     1       1.144   2.099   0.002  0.00  0.00    -0.485 OA
ENDBRANCH   5  15
ENDBRANCH   1   8
BRANCH   3  20
ATOM     20  N   UNL     1      -7.041  -6.028   0.007  0.00  0.00    -0.234 N 
ATOM     21  C   UNL     1      -6.558  -7.287  -0.004  0.00  0.00    +0.235 C 
ATOM     22  O   UNL     1      -5.360  -7.477  -0.012  0.00  0.00    -0.274 OA
ATOM     23  H   UNL     1      -8.127  -5.856   0.015  0.00  0.00    +0.173 HD
BRANCH  21  24
ATOM     24  C   UNL     1      -7.507  -8.457  -0.005  0.00  0.00    +0.049 C 
ATOM     25  C   UNL     1      -8.381  -8.407   1.250  0.00  0.00    +0.019 C 
ATOM     26  C   UNL     1      -9.344  -9.596   1.249  0.00  0.00    -0.009 C 
ATOM     27  C   UNL     1      -8.544 -10.900   1.236  0.00  0.00    +0.007 C 
ATOM     28  C   UNL     1      -7.670 -10.950  -0.019  0.00  0.00    -0.009 C 
ATOM     29  C   UNL     1      -6.707  -9.762  -0.018  0.00  0.00    +0.019 C 
ATOM     30  C   UNL     1      -8.559 -10.885  -1.262  0.00  0.00    +0.007 C 
ATOM     31  C   UNL     1      -9.359  -9.581  -1.250  0.00  0.00    -0.009 C 
ATOM     32  C   UNL     1     -10.233  -9.531   0.005  0.00  0.00    +0.007 C 
ATOM     33  C   UNL     1      -8.396  -8.392  -1.248  0.00  0.00    +0.019 C 
ENDBRANCH  21  24
ENDBRANCH   3  20
TORSDOF 4
