REMARK  Name = ZINC20104059
REMARK  12 active torsions:
REMARK  status: ('A' for Active; 'I' for Inactive)
REMARK    1  A    between atoms: C_1  and  C_2
REMARK    2  A    between atoms: C_2  and  C_4
REMARK    3  A    between atoms: C_2  and  S_16
REMARK    4  A    between atoms: S_16  and  C_17
REMARK    5  A    between atoms: C_20  and  C_26
REMARK    6  A    between atoms: N_21  and  C_22
REMARK    7  A    between atoms: C_22  and  C_23
REMARK    8  A    between atoms: C_23  and  C_24
REMARK    9  A    between atoms: C_23  and  C_25
REMARK   10  A    between atoms: C_26  and  C_28
REMARK   11  A    between atoms: C_26  and  O_29
REMARK   12  A    between atoms: O_29  and  C_30
REMARK                            x       y       z     vdW  Elec       q    Type
REMARK                         _______ _______ _______ _____ _____    ______ ____
ROOT
ATOM      1  C   UNL     1      -2.235   0.458  -1.620  0.00  0.00    +0.192 A 
ATOM      2  N   UNL     1      -1.766   1.198  -2.599  0.00  0.00    -0.122 NA
ATOM      3  N   UNL     1      -2.613   1.232  -3.565  0.00  0.00    -0.130 NA
ATOM      4  C   UNL     1      -3.664   0.522  -3.263  0.00  0.00    +0.175 A 
ATOM      5  N   UNL     1      -3.458  -0.001  -2.017  0.00  0.00    -0.303 N 
ENDROOT
BRANCH   4   6
ATOM      6  C   UNL     1      -4.878   0.312  -4.131  0.00  0.00    +0.238 C 
ATOM      7  C   UNL     1      -5.734   1.580  -4.126  0.00  0.00    +0.060 C 
BRANCH   6   8
ATOM      8  O   UNL     1      -4.465   0.021  -5.467  0.00  0.00    -0.480 OA
BRANCH   8   9
ATOM      9  C   UNL     1      -5.330  -0.685  -6.242  0.00  0.00    +0.140 A 
ATOM     10  C   UNL     1      -6.596  -0.993  -5.765  0.00  0.00    +0.047 A 
ATOM     11  C   UNL     1      -7.474  -1.710  -6.554  0.00  0.00    +0.004 A 
ATOM     12  C   UNL     1      -7.093  -2.122  -7.818  0.00  0.00    +0.002 A 
ATOM     13  C   UNL     1      -5.832  -1.817  -8.296  0.00  0.00    +0.023 A 
ATOM     14  C   UNL     1      -4.951  -1.094  -7.513  0.00  0.00    +0.083 A 
ATOM     15 CL   UNL     1      -3.370  -0.705  -8.115  0.00  0.00    -0.080 Cl
ENDBRANCH   8   9
ENDBRANCH   6   8
ENDBRANCH   4   6
BRANCH   1  16
ATOM     16  S   UNL     1      -1.433   0.117  -0.089  0.00  0.00    -0.075 S 
BRANCH  16  18
ATOM     17  C   UNL     1      -0.144   2.523  -0.261  0.00  0.00    +0.027 C 
ATOM     18  C   UNL     1       0.136   1.020  -0.204  0.00  0.00    +0.117 C 
BRANCH  18  19
ATOM     19  C   UNL     1       0.982   0.712   1.004  0.00  0.00    +0.124 A 
ATOM     20  N   UNL     1       2.330   0.643   0.846  0.00  0.00    -0.309 N 
ATOM     21  H   UNL     1       2.719   0.791  -0.030  0.00  0.00    +0.170 HD
ATOM     22  C   UNL     1       3.134   0.370   1.900  0.00  0.00    +0.259 A 
ATOM     23  O   UNL     1       4.343   0.306   1.773  0.00  0.00    -0.267 OA
ATOM     24  C   UNL     1       2.491   0.153   3.204  0.00  0.00    +0.065 A 
ATOM     25  C   UNL     1       3.228  -0.134   4.351  0.00  0.00    +0.015 A 
ATOM     26  C   UNL     1       2.573  -0.328   5.548  0.00  0.00    +0.001 A 
ATOM     27  C   UNL     1       1.189  -0.240   5.618  0.00  0.00    +0.002 A 
ATOM     28  C   UNL     1       0.442   0.043   4.497  0.00  0.00    +0.028 A 
ATOM     29  C   UNL     1       1.083   0.244   3.272  0.00  0.00    +0.078 A 
ATOM     30  N   UNL     1       0.387   0.530   2.144  0.00  0.00    -0.233 NA
ENDBRANCH  18  19
ENDBRANCH  16  18
ENDBRANCH   1  16
BRANCH   5  31
ATOM     31  C   UNL     1      -4.364  -0.870  -1.261  0.00  0.00    +0.128 C 
BRANCH  31  32
ATOM     32  C   UNL     1      -5.305  -0.012  -0.413  0.00  0.00    +0.003 C 
ATOM     33  C   UNL     1      -6.330  -0.911   0.279  0.00  0.00    +0.009 C 
ATOM     34  C   UNL     1      -4.494   0.743   0.643  0.00  0.00    +0.009 C 
ENDBRANCH  31  32
ENDBRANCH   5  31
TORSDOF 8
