REMARK  Name = ZINC14537825
REMARK  8 active torsions:
REMARK  status: ('A' for Active; 'I' for Inactive)
REMARK    1  A    between atoms: C_2  and  C_3
REMARK    2  A    between atoms: C_3  and  N_4
REMARK    3  A    between atoms: C_7  and  C_9
REMARK    4  A    between atoms: C_17  and  N_21
REMARK    5  A    between atoms: N_21  and  C_22
REMARK    6  A    between atoms: C_22  and  C_23
REMARK    7  A    between atoms: C_28  and  O_29
REMARK    8  A    between atoms: O_29  and  C_30
REMARK                            x       y       z     vdW  Elec       q    Type
REMARK                         _______ _______ _______ _____ _____    ______ ____
ROOT
ATOM      1  N   UNL     1       2.118   1.410   1.121  0.00  0.00    -0.264 N 
ATOM      2  C   UNL     1       3.012   0.409   1.070  0.00  0.00    +0.044 A 
ATOM      3  C   UNL     1       3.579   0.316   2.298  0.00  0.00    +0.007 A 
ATOM      4  C   UNL     1       2.972   1.312   3.081  0.00  0.00    +0.151 A 
ATOM      5  N   UNL     1       2.106   1.933   2.298  0.00  0.00    -0.166 NA
ATOM      6  C   UNL     1       4.642  -0.680   2.675  0.00  0.00    +0.058 C 
ATOM      7  C   UNL     1       5.241  -1.255   1.385  0.00  0.00    +0.059 C 
ATOM      8  C   UNL     1       4.113  -1.709   0.455  0.00  0.00    +0.025 C 
ATOM      9  C   UNL     1       3.369  -0.483  -0.090  0.00  0.00    +0.057 C 
ENDROOT
BRANCH   4  10
ATOM     10  C   UNL     1       3.252   1.612   4.500  0.00  0.00    +0.267 C 
ATOM     11  O   UNL     1       4.082   0.963   5.106  0.00  0.00    -0.268 OA
ATOM     12  N   UNL     1       2.586   2.604   5.123  0.00  0.00    -0.296 N 
ATOM     13  C   UNL     1       1.565   3.468   4.511  0.00  0.00    +0.108 C 
ATOM     14  C   UNL     1       1.103   4.468   5.591  0.00  0.00    +0.020 C 
ATOM     15  C   UNL     1       2.298   4.485   6.581  0.00  0.00    +0.020 C 
ATOM     16  C   UNL     1       2.765   3.008   6.529  0.00  0.00    +0.108 C 
ENDBRANCH   4  10
BRANCH   7  17
ATOM     17  N   UNL     1       6.097  -2.404   1.713  0.00  0.00    -0.309 NA
ATOM     18  H   UNL     1       6.601  -2.223   2.674  0.00  0.00    +0.123 HD
BRANCH  17  19
ATOM     19  C   UNL     1       7.118  -2.611   0.678  0.00  0.00    +0.120 C 
BRANCH  19  20
ATOM     20  C   UNL     1       7.975  -3.795   1.048  0.00  0.00    +0.008 A 
ATOM     21  C   UNL     1       9.217  -3.597   1.621  0.00  0.00    +0.008 A 
ATOM     22  C   UNL     1      10.001  -4.683   1.964  0.00  0.00    +0.001 A 
ATOM     23  C   UNL     1       9.550  -5.968   1.727  0.00  0.00    +0.004 A 
ATOM     24  C   UNL     1       8.311  -6.171   1.150  0.00  0.00    +0.046 A 
ATOM     25  C   UNL     1       7.520  -5.083   0.808  0.00  0.00    +0.134 A 
BRANCH  25  26
ATOM     26  O   UNL     1       6.301  -5.280   0.241  0.00  0.00    -0.405 OA
BRANCH  26  27
ATOM     27  C   UNL     1       5.897  -6.633   0.023  0.00  0.00    +0.575 C 
ATOM     28  F   UNL     1       5.856  -7.310   1.247  0.00  0.00    -0.133 F 
ATOM     29  F   UNL     1       4.627  -6.653  -0.564  0.00  0.00    -0.133 F 
ATOM     30  F   UNL     1       6.813  -7.263  -0.826  0.00  0.00    -0.133 F 
ENDBRANCH  26  27
ENDBRANCH  25  26
ENDBRANCH  19  20
ENDBRANCH  17  19
ENDBRANCH   7  17
BRANCH   1  31
ATOM     31  C   UNL     1       1.282   1.847  -0.000  0.00  0.00    +0.170 C 
BRANCH  31  33
ATOM     32  C   UNL     1      -1.156   1.715   0.017  0.00  0.00    +0.006 C 
ATOM     33  C   UNL     1      -0.013   1.076   0.008  0.00  0.00    -0.012 C 
ENDBRANCH  31  33
ENDBRANCH   1  31
TORSDOF 8
