REMARK  Name = ZINC33782071
REMARK  12 active torsions:
REMARK  status: ('A' for Active; 'I' for Inactive)
REMARK    1  A    between atoms: C_1  and  C_2
REMARK    2  A    between atoms: C_2  and  C_3
REMARK    3  A    between atoms: C_3  and  O_4
REMARK    4  A    between atoms: O_4  and  C_5
REMARK    5  A    between atoms: C_5  and  C_7
REMARK    6  A    between atoms: C_8  and  C_38
REMARK    7  A    between atoms: C_12  and  C_14
REMARK    8  A    between atoms: C_20  and  C_25
REMARK    9  A    between atoms: C_28  and  C_34
REMARK   10  A    between atoms: C_30  and  C_33
REMARK   11  A    between atoms: C_34  and  O_36
REMARK   12  A    between atoms: O_36  and  C_37
REMARK                            x       y       z     vdW  Elec       q    Type
REMARK                         _______ _______ _______ _____ _____    ______ ____
ROOT
ATOM      1  C   UNL     1       2.320  -0.078   0.399  0.00  0.00    +0.065 C 
ATOM      2  C   UNL     1       1.122  -0.687   0.386  0.00  0.00    +0.016 C 
ATOM      3  N   UNL     1       0.002  -0.004   0.002  0.00  0.00    -0.321 N 
ATOM      4  C   UNL     1      -0.017   1.365   0.009  0.00  0.00    +0.016 C 
ATOM      5  C   UNL     1       1.137   2.066   0.002  0.00  0.00    +0.025 C 
ATOM      6  C   UNL     1       2.469   1.357  -0.014  0.00  0.00    +0.099 C 
ATOM      7  C   UNL     1       1.132   3.472   0.005  0.00  0.00    +0.176 C 
ATOM      8  O   UNL     1       2.188   4.072   0.013  0.00  0.00    -0.291 OA
ATOM      9  C   UNL     1      -0.158   4.246  -0.003  0.00  0.00    +0.171 C 
ATOM     10  C   UNL     1      -1.238   3.409  -0.696  0.00  0.00    +0.013 C 
ATOM     11  C   UNL     1      -1.352   2.067   0.032  0.00  0.00    +0.055 C 
ATOM     12  C   UNL     1      -2.578   4.144  -0.631  0.00  0.00    +0.009 C 
ATOM     13  C   UNL     1       1.013  -2.132   0.799  0.00  0.00    +0.061 C 
ATOM     14  H   UNL     1      -0.895  -0.554  -0.317  0.00  0.00    +0.152 HD
ENDROOT
BRANCH   6  15
ATOM     15  C   UNL     1       3.043   1.415  -1.406  0.00  0.00    +0.047 A 
ATOM     16  C   UNL     1       2.390   0.840  -2.432  0.00  0.00    +0.204 A 
ATOM     17  O   UNL     1       2.848   0.864  -3.688  0.00  0.00    -0.462 OA
ATOM     18  C   UNL     1       4.012   1.458  -4.021  0.00  0.00    +0.138 A 
ATOM     19  C   UNL     1       4.463   1.460  -5.336  0.00  0.00    +0.047 A 
ATOM     20  C   UNL     1       5.656   2.075  -5.652  0.00  0.00    +0.007 A 
ATOM     21  C   UNL     1       6.415   2.695  -4.671  0.00  0.00    -0.050 A 
ATOM     22  C   UNL     1       5.986   2.704  -3.362  0.00  0.00    +0.018 A 
ATOM     23  C   UNL     1       4.782   2.086  -3.029  0.00  0.00    +0.064 A 
ATOM     24  C   UNL     1       4.281   2.070  -1.641  0.00  0.00    +0.197 A 
ATOM     25  O   UNL     1       4.903   2.597  -0.735  0.00  0.00    -0.287 OA
ATOM     26  C   UNL     1       7.716   3.361  -5.038  0.00  0.00    +0.044 C 
ENDBRANCH   6  15
BRANCH   1  27
ATOM     27  C   UNL     1       3.463  -0.803   0.810  0.00  0.00    +0.338 C 
ATOM     28  O   UNL     1       3.356  -1.967   1.146  0.00  0.00    -0.245 OA
BRANCH  27  29
ATOM     29  O   UNL     1       4.672  -0.204   0.827  0.00  0.00    -0.461 OA
BRANCH  29  30
ATOM     30  C   UNL     1       5.783  -0.996   1.253  0.00  0.00    +0.232 C 
BRANCH  30  32
ATOM     31  C   UNL     1       8.247  -1.001   1.663  0.00  0.00    +0.007 C 
ATOM     32  C   UNL     1       7.058  -0.153   1.207  0.00  0.00    +0.038 C 
ENDBRANCH  30  32
ENDBRANCH  29  30
ENDBRANCH  27  29
ENDBRANCH   1  27
BRANCH   9  33
ATOM     33  C   UNL     1       0.035   5.540  -0.751  0.00  0.00    +0.318 C 
ATOM     34  O   UNL     1      -0.629   5.774  -1.733  0.00  0.00    -0.250 OA
BRANCH  33  35
ATOM     35  O   UNL     1       0.945   6.431  -0.327  0.00  0.00    -0.467 OA
ATOM     36  C   UNL     1       1.077   7.655  -1.097  0.00  0.00    +0.280 C 
ENDBRANCH  33  35
ENDBRANCH   9  33
TORSDOF 7
