REMARK  Name = ZINC31840185
REMARK  12 active torsions:
REMARK  status: ('A' for Active; 'I' for Inactive)
REMARK    1  A    between atoms: C_1  and  C_2
REMARK    2  A    between atoms: C_2  and  C_3
REMARK    3  A    between atoms: C_3  and  C_4
REMARK    4  A    between atoms: C_4  and  C_5
REMARK    5  A    between atoms: C_5  and  N_6
REMARK    6  A    between atoms: C_19  and  S_20
REMARK    7  A    between atoms: S_20  and  C_21
REMARK    8  A    between atoms: C_21  and  C_22
REMARK    9  A    between atoms: N_24  and  C_25
REMARK   10  A    between atoms: N_29  and  C_30
REMARK   11  A    between atoms: C_30  and  C_31
REMARK   12  A    between atoms: C_30  and  C_32
REMARK                            x       y       z     vdW  Elec       q    Type
REMARK                         _______ _______ _______ _____ _____    ______ ____
ROOT
ATOM      1  N   UNL     1      -3.260  -8.374   5.816  0.00  0.00    -0.277 N 
ATOM      2  C   UNL     1      -3.908  -8.253   6.993  0.00  0.00    +0.263 A 
ATOM      3  O   UNL     1      -4.251  -9.241   7.615  0.00  0.00    -0.267 OA
ATOM      4  C   UNL     1      -4.203  -6.903   7.506  0.00  0.00    +0.064 A 
ATOM      5  C   UNL     1      -4.878  -6.720   8.712  0.00  0.00    +0.015 A 
ATOM      6  C   UNL     1      -5.136  -5.441   9.160  0.00  0.00    +0.001 A 
ATOM      7  C   UNL     1      -4.727  -4.343   8.419  0.00  0.00    +0.002 A 
ATOM      8  C   UNL     1      -4.058  -4.513   7.224  0.00  0.00    +0.027 A 
ATOM      9  C   UNL     1      -3.790  -5.791   6.758  0.00  0.00    +0.064 A 
ATOM     10  N   UNL     1      -3.115  -5.990   5.555  0.00  0.00    -0.256 N 
ATOM     11  C   UNL     1      -2.859  -7.255   5.102  0.00  0.00    +0.240 A 
ATOM     12  N   UNL     1      -2.213  -7.150   3.963  0.00  0.00    -0.109 NA
ATOM     13  N   UNL     1      -2.056  -5.790   3.674  0.00  0.00    -0.120 NA
ATOM     14  C   UNL     1      -2.610  -5.103   4.644  0.00  0.00    +0.198 A 
ENDROOT
BRANCH   1  15
ATOM     15  C   UNL     1      -2.957  -9.709   5.294  0.00  0.00    +0.128 C 
BRANCH  15  16
ATOM     16  C   UNL     1      -1.597 -10.168   5.824  0.00  0.00    +0.022 C 
BRANCH  16  17
ATOM     17  C   UNL     1      -1.281 -11.562   5.278  0.00  0.00    +0.001 C 
BRANCH  17  19
ATOM     18  C   UNL     1       0.394 -13.415   5.263  0.00  0.00    +0.004 C 
ATOM     19  C   UNL     1       0.078 -12.021   5.809  0.00  0.00    -0.003 C 
ENDBRANCH  17  19
ENDBRANCH  16  17
ENDBRANCH  15  16
ENDBRANCH   1  15
BRANCH  14  20
ATOM     20  S   UNL     1      -2.683  -3.346   4.757  0.00  0.00    -0.076 S 
BRANCH  20  21
ATOM     21  C   UNL     1      -1.836  -2.773   3.259  0.00  0.00    +0.173 C 
BRANCH  21  22
ATOM     22  C   UNL     1      -1.828  -1.266   3.231  0.00  0.00    +0.229 C 
ATOM     23  O   UNL     1      -2.343  -0.640   4.133  0.00  0.00    -0.275 OA
ATOM     24  N   UNL     1      -1.249  -0.615   2.203  0.00  0.00    -0.270 N 
ATOM     25  H   UNL     1      -0.782  -1.183   1.385  0.00  0.00    +0.156 HD
BRANCH  24  26
ATOM     26  C   UNL     1      -1.241   0.780   2.177  0.00  0.00    +0.123 A 
ATOM     27  C   UNL     1      -1.776   1.605   3.119  0.00  0.00    +0.065 A 
ATOM     28  C   UNL     1      -1.557   2.922   2.707  0.00  0.00    +0.136 A 
ATOM     29  N   UNL     1      -0.913   2.896   1.568  0.00  0.00    -0.178 NA
ATOM     30  N   UNL     1      -0.698   1.558   1.213  0.00  0.00    -0.248 N 
BRANCH  30  31
ATOM     31  C   UNL     1      -0.013   1.086   0.008  0.00  0.00    +0.103 C 
ATOM     32  C   UNL     1       1.423   1.615  -0.003  0.00  0.00    +0.032 C 
ATOM     33  C   UNL     1      -0.753   1.593  -1.232  0.00  0.00    +0.032 C 
ENDBRANCH  30  31
ENDBRANCH  24  26
ENDBRANCH  21  22
ENDBRANCH  20  21
ENDBRANCH  14  20
TORSDOF 9
