REMARK  Name = ZINC02626754
REMARK  9 active torsions:
REMARK  status: ('A' for Active; 'I' for Inactive)
REMARK    1  A    between atoms: C_1  and  C_2
REMARK    2  A    between atoms: C_4  and  C_16
REMARK    3  A    between atoms: C_5  and  C_15
REMARK    4  A    between atoms: N_6  and  C_7
REMARK    5  A    between atoms: C_16  and  C_18
REMARK    6  A    between atoms: C_18  and  N_19
REMARK    7  A    between atoms: C_24  and  C_31
REMARK    8  A    between atoms: C_27  and  C_29
REMARK    9  A    between atoms: C_27  and  C_30
REMARK                            x       y       z     vdW  Elec       q    Type
REMARK                         _______ _______ _______ _____ _____    ______ ____
ROOT
ATOM      1  C   UNL     1       4.831   6.791   1.419  0.00  0.00    +0.183 C 
ATOM      2  O   UNL     1       4.466   7.154   2.517  0.00  0.00    -0.290 OA
ENDROOT
BRANCH   1   6
ATOM      3  C   UNL     1       3.110   3.776  -2.311  0.00  0.00    +0.064 C 
ATOM      4  C   UNL     1       3.252   4.545  -1.023  0.00  0.00    +0.022 A 
ATOM      5  C   UNL     1       4.287   5.339  -0.701  0.00  0.00    +0.034 A 
ATOM      6  C   UNL     1       3.998   5.875   0.636  0.00  0.00    +0.040 A 
ATOM      7  C   UNL     1       2.777   5.341   1.003  0.00  0.00    +0.031 A 
ATOM      8  N   UNL     1       2.349   4.546   0.003  0.00  0.00    -0.317 N 
ATOM      9  C   UNL     1       2.051   5.601   2.298  0.00  0.00    +0.064 C 
BRANCH   8  10
ATOM     10  C   UNL     1       1.146   3.827   0.011  0.00  0.00    +0.048 A 
ATOM     11  C   UNL     1      -0.067   4.501   0.026  0.00  0.00    +0.027 A 
ATOM     12  C   UNL     1      -1.252   3.791   0.033  0.00  0.00    +0.023 A 
ATOM     13  C   UNL     1      -1.230   2.408   0.021  0.00  0.00    +0.059 A 
ATOM     14  C   UNL     1      -0.021   1.732   0.012  0.00  0.00    +0.061 A 
ATOM     15  C   UNL     1       1.166   2.439   0.004  0.00  0.00    +0.047 A 
ATOM     16 CL   UNL     1       0.002  -0.004   0.002  0.00  0.00    -0.082 Cl
ATOM     17 CL   UNL     1      -2.721   1.518   0.023  0.00  0.00    -0.082 Cl
ENDBRANCH   8  10
ENDBRANCH   1   6
BRANCH   1  18
ATOM     18  C   UNL     1       6.141   7.282   0.859  0.00  0.00    +0.197 C 
BRANCH  18  19
ATOM     19  N   UNL     1       6.779   8.179   1.825  0.00  0.00    -0.217 N 
ATOM     20  C   UNL     1       7.634   7.775   2.789  0.00  0.00    +0.247 C 
ATOM     21  O   UNL     1       8.133   6.676   2.893  0.00  0.00    -0.273 OA
ATOM     22  C   UNL     1       7.828   8.977   3.682  0.00  0.00    +0.113 C 
ATOM     23  C   UNL     1       9.309   9.247   3.910  0.00  0.00    +0.038 C 
ATOM     24  C   UNL     1       9.891   8.195   4.855  0.00  0.00    -0.011 C 
ATOM     25  C   UNL     1       9.181   8.302   6.203  0.00  0.00    +0.009 C 
ATOM     26  C   UNL     1       7.689   8.022   6.059  0.00  0.00    -0.032 C 
ATOM     27  C   UNL     1       7.042   8.862   4.971  0.00  0.00    +0.041 C 
ATOM     28  C   UNL     1       7.012   8.373   7.402  0.00  0.00    +0.011 C 
ATOM     29  C   UNL     1       7.456   6.531   5.803  0.00  0.00    +0.011 C 
ATOM     30  C   UNL     1      11.387   8.462   5.048  0.00  0.00    +0.007 C 
ATOM     31  N   UNL     1       7.260  10.082   2.877  0.00  0.00    -0.285 N 
ATOM     32  C   UNL     1       6.610   9.506   1.851  0.00  0.00    +0.310 C 
ATOM     33  O   UNL     1       5.945  10.119   1.038  0.00  0.00    -0.252 OA
ATOM     34  H   UNL     1       7.348  11.027   3.065  0.00  0.00    +0.151 HD
ENDBRANCH  18  19
ENDBRANCH   1  18
TORSDOF 4
