REMARK  Name = ZINC39597455
REMARK  7 active torsions:
REMARK  status: ('A' for Active; 'I' for Inactive)
REMARK    1  A    between atoms: C_1  and  O_2
REMARK    2  A    between atoms: O_2  and  C_3
REMARK    3  A    between atoms: C_8  and  C_9
REMARK    4  A    between atoms: C_9  and  N_10
REMARK    5  A    between atoms: C_11  and  C_13
REMARK    6  A    between atoms: C_24  and  C_26
REMARK    7  A    between atoms: C_29  and  C_31
REMARK                            x       y       z     vdW  Elec       q    Type
REMARK                         _______ _______ _______ _____ _____    ______ ____
ROOT
ATOM      1  C   UNL     1       2.286  -3.635   2.964  0.00  0.00    +0.100 C 
ATOM      2  C   UNL     1       2.779  -2.241   3.412  0.00  0.00    +0.121 C 
ATOM      3  N   UNL     1       4.009  -2.512   4.192  0.00  0.00    -0.294 N 
ATOM      4  C   UNL     1       4.686  -3.600   3.447  0.00  0.00    +0.115 C 
ATOM      5  C   UNL     1       3.541  -4.524   2.988  0.00  0.00    -0.004 C 
ATOM      6  C   UNL     1       3.829  -5.067   1.592  0.00  0.00    -0.010 C 
ATOM      7  C   UNL     1       5.046  -5.995   1.652  0.00  0.00    -0.082 C 
ATOM      8  N   UNL     1       4.778  -7.098   2.582  0.00  0.00    +0.379 N 
ATOM      9  C   UNL     1       4.593  -6.573   3.941  0.00  0.00    -0.082 C 
ATOM     10  C   UNL     1       3.357  -5.670   3.978  0.00  0.00    -0.010 C 
ATOM     11  C   UNL     1       4.420  -1.905   5.324  0.00  0.00    +0.282 C 
ATOM     12  O   UNL     1       5.465  -2.243   5.850  0.00  0.00    -0.267 OA
ATOM     13  H   UNL     1       3.942  -7.583   2.294  0.00  0.00    -0.086 HD
ATOM     14  H   UNL     1       5.556  -7.740   2.574  0.00  0.00    -0.086 HD
ENDROOT
BRANCH  11  15
ATOM     15  C   UNL     1       3.610  -0.841   5.920  0.00  0.00    +0.190 A 
ATOM     16  C   UNL     1       3.914  -0.137   7.065  0.00  0.00    +0.055 A 
ATOM     17  C   UNL     1       2.874   0.775   7.266  0.00  0.00    +0.050 A 
ATOM     18  C   UNL     1       1.982   0.599   6.247  0.00  0.00    +0.136 A 
ATOM     19  O   UNL     1       2.438  -0.373   5.439  0.00  0.00    -0.450 OA
BRANCH  18  20
ATOM     20  C   UNL     1       0.727   1.355   6.061  0.00  0.00    +0.017 A 
ATOM     21  C   UNL     1       0.369   2.353   6.970  0.00  0.00    +0.014 A 
ATOM     22  C   UNL     1      -0.804   3.056   6.791  0.00  0.00    +0.039 A 
ATOM     23  C   UNL     1      -1.627   2.773   5.712  0.00  0.00    +0.123 A 
ATOM     24  C   UNL     1      -1.276   1.783   4.808  0.00  0.00    +0.039 A 
ATOM     25  C   UNL     1      -0.103   1.077   4.973  0.00  0.00    +0.014 A 
ATOM     26  F   UNL     1      -2.774   3.464   5.542  0.00  0.00    -0.205 F 
ENDBRANCH  18  20
ENDBRANCH  11  15
BRANCH   1  28
ATOM     27  N   UNL     1       0.753  -4.431   1.194  0.00  0.00    -0.311 N 
ATOM     28  C   UNL     1       1.717  -3.568   1.571  0.00  0.00    +0.218 C 
ATOM     29  O   UNL     1       2.126  -2.736   0.788  0.00  0.00    -0.275 OA
ATOM     30  H   UNL     1       0.426  -5.096   1.819  0.00  0.00    +0.149 HD
BRANCH  27  31
ATOM     31  C   UNL     1       0.200  -4.366  -0.161  0.00  0.00    +0.143 C 
BRANCH  31  37
ATOM     32  C   UNL     1      -2.132  -5.226   0.169  0.00  0.00    +0.125 A 
ATOM     33  C   UNL     1      -3.101  -6.207   0.011  0.00  0.00    +0.046 A 
ATOM     34  C   UNL     1      -2.788  -7.388  -0.634  0.00  0.00    +0.004 A 
ATOM     35  C   UNL     1      -1.510  -7.592  -1.122  0.00  0.00    +0.001 A 
ATOM     36  C   UNL     1      -0.543  -6.617  -0.965  0.00  0.00    +0.009 A 
ATOM     37  C   UNL     1      -0.853  -5.432  -0.326  0.00  0.00    +0.011 A 
BRANCH  32  39
ATOM     38  C   UNL     1      -3.775  -3.920   1.286  0.00  0.00    +0.277 C 
ATOM     39  O   UNL     1      -2.438  -4.063   0.802  0.00  0.00    -0.495 OA
ENDBRANCH  32  39
ENDBRANCH  31  37
ENDBRANCH  27  31
ENDBRANCH   1  28
TORSDOF 6
