REMARK  Name = ZINC40390371
REMARK  3 active torsions:
REMARK  status: ('A' for Active; 'I' for Inactive)
REMARK    1  A    between atoms: C_1  and  C_2
REMARK    2  A    between atoms: C_21  and  C_23
REMARK    3  A    between atoms: N_25  and  C_26
REMARK                            x       y       z     vdW  Elec       q    Type
REMARK                         _______ _______ _______ _____ _____    ______ ____
ROOT
ATOM      1  C   UNL     1      -0.004   1.532   0.002  0.00  0.00    +0.028 C 
ATOM      2  C   UNL     1      -0.019   0.002   0.014  0.00  0.00    +0.073 C 
ATOM      3  C   UNL     1       0.594  -0.527  -1.287  0.00  0.00    +0.022 C 
ATOM      4  C   UNL     1       0.704  -2.052  -1.211  0.00  0.00    +0.003 C 
ATOM      5  C   UNL     1       1.623  -2.442  -0.051  0.00  0.00    +0.019 C 
ATOM      6  C   UNL     1       1.022  -1.934   1.264  0.00  0.00    +0.108 C 
ATOM      7  N   UNL     1       0.775  -0.490   1.148  0.00  0.00    -0.298 N 
ATOM      8  C   UNL     1       1.279   0.381   2.077  0.00  0.00    +0.200 A 
ATOM      9  N   UNL     1       2.120  -0.087   3.039  0.00  0.00    -0.295 N 
ATOM     10  H   UNL     1       2.366  -1.025   3.054  0.00  0.00    +0.172 HD
ATOM     11  C   UNL     1       2.612   0.755   3.974  0.00  0.00    +0.258 A 
ATOM     12  O   UNL     1       3.355   0.345   4.851  0.00  0.00    -0.267 OA
ATOM     13  C   UNL     1       2.254   2.105   3.915  0.00  0.00    +0.069 A 
ATOM     14  C   UNL     1       1.412   2.535   2.905  0.00  0.00    +0.138 A 
ATOM     15  N   UNL     1       0.943   1.652   2.016  0.00  0.00    -0.200 NA
ATOM     16  N   UNL     1       1.077   3.874   2.799  0.00  0.00    -0.270 N 
ATOM     17  C   UNL     1       1.748   4.811   3.490  0.00  0.00    +0.219 C 
ATOM     18  O   UNL     1       1.367   5.962   3.463  0.00  0.00    -0.275 OA
ATOM     19  C   UNL     1       2.966   4.449   4.297  0.00  0.00    +0.114 C 
ATOM     20  C   UNL     1       2.768   3.076   4.943  0.00  0.00    +0.122 C 
ATOM     21  H   UNL     1       0.348   4.139   2.217  0.00  0.00    +0.156 HD
ENDROOT
BRANCH  20  22
ATOM     22  C   UNL     1       4.085   2.582   5.486  0.00  0.00    +0.225 C 
ATOM     23  O   UNL     1       5.051   2.508   4.758  0.00  0.00    -0.275 OA
ATOM     24  N   UNL     1       4.187   2.224   6.781  0.00  0.00    -0.285 N 
ATOM     25  H   UNL     1       3.434   2.346   7.380  0.00  0.00    +0.155 HD
BRANCH  24  26
ATOM     26  C   UNL     1       5.381   1.675   7.263  0.00  0.00    +0.036 A 
ATOM     27  C   UNL     1       5.348   0.683   8.234  0.00  0.00    +0.043 A 
ATOM     28  C   UNL     1       6.529   0.142   8.707  0.00  0.00    +0.044 A 
ATOM     29  C   UNL     1       7.743   0.588   8.214  0.00  0.00    +0.040 A 
ATOM     30  C   UNL     1       7.778   1.576   7.246  0.00  0.00    +0.044 A 
ATOM     31  C   UNL     1       6.600   2.116   6.765  0.00  0.00    +0.043 A 
ATOM     32 CL   UNL     1       9.302   2.133   6.630  0.00  0.00    -0.083 Cl
ATOM     33 CL   UNL     1       6.489  -1.097   9.922  0.00  0.00    -0.083 Cl
ENDBRANCH  24  26
ENDBRANCH  20  22
TORSDOF 2
