REMARK  Name = ZINC48117721
REMARK  10 active torsions:
REMARK  status: ('A' for Active; 'I' for Inactive)
REMARK    1  A    between atoms: C_1  and  C_2
REMARK    2  A    between atoms: C_2  and  C_3
REMARK    3  A    between atoms: C_2  and  C_4
REMARK    4  A    between atoms: C_4  and  O_5
REMARK    5  A    between atoms: O_5  and  C_6
REMARK    6  A    between atoms: C_11  and  N_12
REMARK    7  A    between atoms: N_15  and  C_16
REMARK    8  A    between atoms: C_16  and  C_17
REMARK    9  A    between atoms: C_20  and  S_23
REMARK   10  A    between atoms: S_23  and  N_26
REMARK                            x       y       z     vdW  Elec       q    Type
REMARK                         _______ _______ _______ _____ _____    ______ ____
ROOT
ATOM      1  N   UNL     1      -1.333   0.503   4.756  0.00  0.00    -0.266 N 
ATOM      2  C   UNL     1      -2.021   0.724   5.894  0.00  0.00    +0.304 C 
ATOM      3  O   UNL     1      -1.553   0.386   6.963  0.00  0.00    -0.252 OA
ATOM      4  N   UNL     1      -3.230   1.319   5.845  0.00  0.00    -0.295 N 
ATOM      5  H   UNL     1      -1.667   0.845   3.913  0.00  0.00    +0.156 HD
ATOM      6  H   UNL     1      -3.604   1.588   4.992  0.00  0.00    +0.151 HD
ENDROOT
BRANCH   1  12
ATOM      7  C   UNL     1       0.824  -0.036   3.797  0.00  0.00    +0.142 A 
ATOM      8  C   UNL     1       2.011  -0.749   3.841  0.00  0.00    +0.047 A 
ATOM      9  C   UNL     1       2.242  -1.645   4.869  0.00  0.00    +0.004 A 
ATOM     10  C   UNL     1       1.290  -1.832   5.854  0.00  0.00    +0.002 A 
ATOM     11  C   UNL     1       0.104  -1.124   5.817  0.00  0.00    +0.027 A 
ATOM     12  C   UNL     1      -0.132  -0.220   4.793  0.00  0.00    +0.077 A 
BRANCH   7  13
ATOM     13  O   UNL     1       0.596   0.845   2.787  0.00  0.00    -0.490 OA
BRANCH  13  14
ATOM     14  C   UNL     1       1.621   0.982   1.801  0.00  0.00    +0.232 C 
BRANCH  14  16
ATOM     15  C   UNL     1       1.070   3.387   1.409  0.00  0.00    +0.010 C 
ATOM     16  C   UNL     1       1.187   2.010   0.753  0.00  0.00    +0.020 C 
ATOM     17  C   UNL     1       2.227   2.065  -0.368  0.00  0.00    +0.010 C 
ENDBRANCH  14  16
ENDBRANCH  13  14
ENDBRANCH   7  13
ENDBRANCH   1  12
BRANCH   4  18
ATOM     18  C   UNL     1      -3.979   1.558   7.081  0.00  0.00    +0.141 C 
BRANCH  18  19
ATOM     19  C   UNL     1      -5.287   2.230   6.754  0.00  0.00    -0.030 A 
ATOM     20  C   UNL     1      -5.363   3.610   6.707  0.00  0.00    +0.007 A 
ATOM     21  C   UNL     1      -6.563   4.226   6.407  0.00  0.00    +0.029 A 
ATOM     22  C   UNL     1      -7.687   3.463   6.153  0.00  0.00    +0.105 A 
ATOM     23  C   UNL     1      -7.611   2.084   6.199  0.00  0.00    +0.029 A 
ATOM     24  C   UNL     1      -6.410   1.467   6.495  0.00  0.00    +0.007 A 
BRANCH  22  25
ATOM     25  S   UNL     1      -9.217   4.249   5.771  0.00  0.00    +0.056 S 
ATOM     26  O   UNL     1     -10.244   3.326   6.110  0.00  0.00    -0.153 OA
ATOM     27  O   UNL     1      -9.153   5.555   6.328  0.00  0.00    -0.153 OA
BRANCH  25  28
ATOM     28  N   UNL     1      -9.274   4.438   4.127  0.00  0.00    -0.204 NA
ATOM     29  H   UNL     1      -8.536   4.130   3.578  0.00  0.00    +0.144 HD
ATOM     30  H   UNL     1     -10.046   4.856   3.713  0.00  0.00    +0.144 HD
ENDBRANCH  25  28
ENDBRANCH  22  25
ENDBRANCH  18  19
ENDBRANCH   4  18
TORSDOF 8
