REMARK  Name = ZINC14279041
REMARK  8 active torsions:
REMARK  status: ('A' for Active; 'I' for Inactive)
REMARK    1  A    between atoms: C_1  and  C_2
REMARK    2  A    between atoms: C_2  and  C_3
REMARK    3  A    between atoms: C_9  and  C_11
REMARK    4  A    between atoms: C_14  and  C_34
REMARK    5  A    between atoms: C_15  and  N_17
REMARK    6  A    between atoms: C_18  and  C_20
REMARK    7  A    between atoms: C_21  and  C_22
REMARK    8  A    between atoms: C_25  and  C_27
REMARK                            x       y       z     vdW  Elec       q    Type
REMARK                         _______ _______ _______ _____ _____    ______ ____
ROOT
ATOM      1  N   UNL     1       0.025  -0.009   2.417  0.00  0.00    -0.282 N 
ATOM      2  C   UNL     1      -0.627  -0.513   3.483  0.00  0.00    +0.241 C 
ATOM      3  O   UNL     1      -1.141  -1.615   3.417  0.00  0.00    -0.270 OA
ATOM      4  H   UNL     1       0.491   0.839   2.489  0.00  0.00    +0.155 HD
ENDROOT
BRANCH   1   9
ATOM      5  C   UNL     1       0.061  -2.787  -0.003  0.00  0.00    +0.011 A 
ATOM      6  C   UNL     1       0.044  -2.081  -1.207  0.00  0.00    +0.011 A 
ATOM      7  C   UNL     1       0.015  -0.701  -1.197  0.00  0.00    +0.006 A 
ATOM      8  C   UNL     1       0.015  -0.014   0.002  0.00  0.00    -0.029 A 
ATOM      9  C   UNL     1       0.031  -0.708   1.206  0.00  0.00    +0.037 A 
ATOM     10  C   UNL     1       0.054  -2.095   1.206  0.00  0.00    +0.034 A 
ATOM     11  C   UNL     1      -0.010   1.493   0.004  0.00  0.00    +0.045 C 
BRANCH   5  18
ATOM     12  C   UNL     1       0.136  -7.620  -1.601  0.00  0.00    +0.155 A 
ATOM     13  N   UNL     1       0.156  -8.630  -0.777  0.00  0.00    -0.132 NA
ATOM     14  N   UNL     1       0.155  -8.208   0.439  0.00  0.00    -0.120 NA
ATOM     15  C   UNL     1       0.133  -6.910   0.445  0.00  0.00    +0.218 A 
ATOM     16  N   UNL     1       0.119  -6.460  -0.854  0.00  0.00    -0.190 N 
ATOM     17  N   UNL     1       0.095  -5.084  -1.034  0.00  0.00    -0.156 NA
ATOM     18  C   UNL     1       0.086  -4.267  -0.011  0.00  0.00    +0.132 A 
ATOM     19  S   UNL     1       0.119  -5.396   1.373  0.00  0.00    -0.026 S 
BRANCH  12  21
ATOM     20  C   UNL     1       1.571  -7.709  -3.621  0.00  0.00    +0.012 C 
ATOM     21  C   UNL     1       0.131  -7.705  -3.106  0.00  0.00    +0.075 C 
ENDBRANCH  12  21
ENDBRANCH   5  18
ENDBRANCH   1   9
BRANCH   2  22
ATOM     22  C   UNL     1      -0.714   0.238   4.678  0.00  0.00    +0.071 C 
ATOM     23  C   UNL     1      -1.371  -0.270   5.752  0.00  0.00    +0.051 C 
BRANCH  23  24
ATOM     24  C   UNL     1      -1.458   0.480   6.947  0.00  0.00    +0.129 A 
ATOM     25  C   UNL     1      -2.099   0.086   8.107  0.00  0.00    +0.050 A 
ATOM     26  C   UNL     1      -1.937   1.121   9.030  0.00  0.00    +0.050 A 
ATOM     27  C   UNL     1      -1.214   2.111   8.402  0.00  0.00    +0.136 A 
ATOM     28  O   UNL     1      -0.935   1.708   7.150  0.00  0.00    -0.455 OA
BRANCH  27  29
ATOM     29  C   UNL     1      -0.814   3.398   9.003  0.00  0.00    +0.017 A 
ATOM     30  C   UNL     1      -1.173   3.701  10.319  0.00  0.00    +0.013 A 
ATOM     31  C   UNL     1      -0.791   4.903  10.875  0.00  0.00    +0.021 A 
ATOM     32  C   UNL     1      -0.061   5.814  10.129  0.00  0.00    +0.041 A 
ATOM     33  C   UNL     1       0.293   5.523   8.823  0.00  0.00    +0.021 A 
ATOM     34  C   UNL     1      -0.078   4.322   8.256  0.00  0.00    +0.013 A 
ATOM     35 CL   UNL     1       0.410   7.328  10.835  0.00  0.00    -0.084 Cl
ENDBRANCH  27  29
ENDBRANCH  23  24
ENDBRANCH   2  22
TORSDOF 6
