REMARK  Name = ZINC40936299
REMARK  14 active torsions:
REMARK  status: ('A' for Active; 'I' for Inactive)
REMARK    1  A    between atoms: C_1  and  C_2
REMARK    2  A    between atoms: C_2  and  C_3
REMARK    3  A    between atoms: C_3  and  C_4
REMARK    4  A    between atoms: C_4  and  C_5
REMARK    5  A    between atoms: C_5  and  C_6
REMARK    6  A    between atoms: C_6  and  O_7
REMARK    7  A    between atoms: O_7  and  C_8
REMARK    8  A    between atoms: C_11  and  C_17
REMARK    9  A    between atoms: C_13  and  O_14
REMARK   10  A    between atoms: O_14  and  C_15
REMARK   11  A    between atoms: C_15  and  C_16
REMARK   12  A    between atoms: N_21  and  C_25
REMARK   13  A    between atoms: C_25  and  C_27
REMARK   14  A    between atoms: C_25  and  C_33
REMARK                            x       y       z     vdW  Elec       q    Type
REMARK                         _______ _______ _______ _____ _____    ______ ____
ROOT
ATOM      1  C   UNL     1      -6.607 -16.962   2.191  0.00  0.00    +0.028 C 
ATOM      2  C   UNL     1      -5.810 -15.874   2.040  0.00  0.00    +0.077 C 
ATOM      3  C   UNL     1      -4.413 -15.788   1.571  0.00  0.00    +0.259 C 
ATOM      4  O   UNL     1      -3.786 -16.779   1.243  0.00  0.00    -0.269 OA
ATOM      5  N   UNL     1      -3.877 -14.580   1.524  0.00  0.00    -0.237 N 
ATOM      6  C   UNL     1      -4.574 -13.485   1.887  0.00  0.00    +0.122 C 
ATOM      7  S   UNL     1      -4.061 -11.852   1.896  0.00  0.00    -0.027 S 
ATOM      8  S   UNL     1      -6.166 -14.150   2.350  0.00  0.00    -0.061 S 
ENDROOT
BRANCH   1  12
ATOM      9  C   UNL     1     -10.725 -16.463   3.086  0.00  0.00    +0.162 A 
ATOM     10  C   UNL     1      -9.950 -15.362   2.747  0.00  0.00    +0.050 A 
ATOM     11  C   UNL     1      -8.613 -15.519   2.456  0.00  0.00    +0.012 A 
ATOM     12  C   UNL     1      -8.032 -16.792   2.501  0.00  0.00    -0.020 A 
ATOM     13  C   UNL     1      -8.814 -17.902   2.844  0.00  0.00    +0.057 A 
ATOM     14  C   UNL     1     -10.153 -17.734   3.139  0.00  0.00    +0.162 A 
BRANCH   9  15
ATOM     15  O   UNL     1     -12.043 -16.302   3.373  0.00  0.00    -0.488 OA
BRANCH  15  16
ATOM     16  C   UNL     1     -12.565 -14.974   3.300  0.00  0.00    +0.229 C 
BRANCH  16  17
ATOM     17  C   UNL     1     -14.053 -14.990   3.653  0.00  0.00    +0.041 C 
BRANCH  17  18
ATOM     18  C   UNL     1     -14.612 -13.568   3.574  0.00  0.00    +0.003 C 
BRANCH  18  19
ATOM     19  C   UNL     1     -16.101 -13.585   3.927  0.00  0.00    -0.000 C 
BRANCH  19  21
ATOM     20  C   UNL     1     -18.148 -12.180   4.202  0.00  0.00    +0.004 C 
ATOM     21  C   UNL     1     -16.660 -12.163   3.849  0.00  0.00    -0.003 C 
ENDBRANCH  19  21
ENDBRANCH  18  19
ENDBRANCH  17  18
ENDBRANCH  16  17
ENDBRANCH  15  16
ENDBRANCH   9  15
BRANCH  14  22
ATOM     22  O   UNL     1     -10.914 -18.809   3.477  0.00  0.00    -0.489 OA
BRANCH  22  23
ATOM     23  C   UNL     1     -10.263 -20.080   3.511  0.00  0.00    +0.226 C 
ATOM     24  C   UNL     1     -11.272 -21.160   3.907  0.00  0.00    +0.048 C 
ENDBRANCH  22  23
ENDBRANCH  14  22
ENDBRANCH   1  12
BRANCH   5  25
ATOM     25  C   UNL     1      -2.493 -14.428   1.066  0.00  0.00    +0.226 C 
BRANCH  25  26
ATOM     26  C   UNL     1      -2.369 -14.952  -0.341  0.00  0.00    -0.016 A 
ATOM     27  C   UNL     1      -3.221 -14.493  -1.327  0.00  0.00    +0.006 A 
ATOM     28  C   UNL     1      -3.107 -14.974  -2.618  0.00  0.00    +0.000 A 
ATOM     29  C   UNL     1      -2.140 -15.913  -2.923  0.00  0.00    +0.000 A 
ATOM     30  C   UNL     1      -1.287 -16.372  -1.937  0.00  0.00    +0.000 A 
ATOM     31  C   UNL     1      -1.398 -15.888  -0.647  0.00  0.00    +0.006 A 
ENDBRANCH  25  26
BRANCH  25  32
ATOM     32  C   UNL     1      -1.576 -15.206   1.975  0.00  0.00    +0.381 C 
ATOM     33  O   UNL     1      -1.979 -16.213   2.532  0.00  0.00    -0.244 OA
ATOM     34  O   UNL     1      -0.430 -14.828   2.153  0.00  0.00    -0.244 OA
ENDBRANCH  25  32
ENDBRANCH   5  25
TORSDOF 12
