REMARK  Name = ZINC09232796
REMARK  5 active torsions:
REMARK  status: ('A' for Active; 'I' for Inactive)
REMARK    1  A    between atoms: C_1  and  C_2
REMARK    2  A    between atoms: C_18  and  C_19
REMARK    3  A    between atoms: C_18  and  N_55
REMARK    4  A    between atoms: N_21  and  N_22
REMARK    5  A    between atoms: C_23  and  C_24
REMARK                            x       y       z     vdW  Elec       q    Type
REMARK                         _______ _______ _______ _____ _____    ______ ____
ROOT
ATOM      1  C   UNL     1       1.109   1.323  -0.333  0.00  0.00    +0.044 C 
ATOM      2  C   UNL     1       0.966  -0.177  -0.387  0.00  0.00    -0.050 A 
ATOM      3  C   UNL     1       0.364  -0.754  -1.493  0.00  0.00    +0.005 A 
ATOM      4  C   UNL     1       0.204  -2.122  -1.615  0.00  0.00    +0.026 A 
ATOM      5  C   UNL     1       0.666  -2.914  -0.566  0.00  0.00    +0.049 A 
ATOM      6  C   UNL     1       1.283  -2.315   0.574  0.00  0.00    +0.003 A 
ATOM      7  C   UNL     1       1.433  -0.927   0.662  0.00  0.00    +0.013 A 
ATOM      8  C   UNL     1       1.637  -3.398   1.449  0.00  0.00    -0.020 A 
ATOM      9  C   UNL     1       1.268  -4.533   0.823  0.00  0.00    +0.009 A 
ATOM     10  N   UNL     1       0.640  -4.275  -0.373  0.00  0.00    -0.347 N 
ATOM     11  C   UNL     1       0.107  -5.360  -1.211  0.00  0.00    +0.103 C 
ATOM     12  C   UNL     1       0.712  -6.681  -0.722  0.00  0.00    -0.055 C 
ATOM     13  C   UNL     1       1.494  -5.897   1.437  0.00  0.00    -0.020 C 
ATOM     14  C   UNL     1       1.144  -5.816   2.914  0.00  0.00    -0.009 C 
ATOM     15  C   UNL     1       1.549  -4.550   3.629  0.00  0.00    +0.003 C 
ATOM     16  C   UNL     1       2.273  -3.492   2.809  0.00  0.00    +0.037 C 
ATOM     17  N   UNL     1       0.554  -6.814   0.742  0.00  0.00    +0.392 N 
ATOM     18  H   UNL     1      -0.408  -6.563   0.998  0.00  0.00    -0.080 HD
ENDROOT
BRANCH  17  19
ATOM     19  C   UNL     1       0.812  -8.210   1.154  0.00  0.00    +0.021 C 
BRANCH  19  20
ATOM     20  C   UNL     1      -0.287  -9.088   0.614  0.00  0.00    +0.216 C 
ATOM     21  O   UNL     1      -1.176  -8.605  -0.055  0.00  0.00    -0.276 OA
ATOM     22  N   UNL     1      -0.281 -10.411   0.873  0.00  0.00    -0.209 N 
ATOM     23  H   UNL     1       0.430 -10.797   1.408  0.00  0.00    +0.177 HD
BRANCH  22  24
ATOM     24  N   UNL     1      -1.303 -11.227   0.371  0.00  0.00    -0.188 NA
ATOM     25  C   UNL     1      -1.365 -12.476   0.717  0.00  0.00    +0.138 C 
BRANCH  25  26
ATOM     26  C   UNL     1      -0.704 -12.932   1.954  0.00  0.00    -0.004 A 
ATOM     27  C   UNL     1      -0.255 -12.001   2.894  0.00  0.00    +0.009 A 
ATOM     28  C   UNL     1       0.358 -12.434   4.051  0.00  0.00    +0.002 A 
ATOM     29  C   UNL     1       0.537 -13.787   4.279  0.00  0.00    +0.015 A 
ATOM     30  C   UNL     1       0.100 -14.716   3.350  0.00  0.00    +0.018 A 
ATOM     31  C   UNL     1      -0.520 -14.296   2.190  0.00  0.00    +0.024 A 
ATOM     32 BR   UNL     1       0.351 -16.562   3.672  0.00  0.00    -0.050 Br
ENDBRANCH  25  26
ENDBRANCH  22  24
ENDBRANCH  19  20
ENDBRANCH  17  19
TORSDOF 4
