REMARK  Name = ZINC38904079
REMARK  13 active torsions:
REMARK  status: ('A' for Active; 'I' for Inactive)
REMARK    1  A    between atoms: C_1  and  C_2
REMARK    2  A    between atoms: C_9  and  C_14
REMARK    3  A    between atoms: C_14  and  N_15
REMARK    4  A    between atoms: N_15  and  C_16
REMARK    5  A    between atoms: C_21  and  O_22
REMARK    6  A    between atoms: O_22  and  C_23
REMARK    7  A    between atoms: C_24  and  C_26
REMARK    8  A    between atoms: C_28  and  O_36
REMARK    9  A    between atoms: C_29  and  O_34
REMARK   10  A    between atoms: C_30  and  O_32
REMARK   11  A    between atoms: O_32  and  C_33
REMARK   12  A    between atoms: O_34  and  C_35
REMARK   13  A    between atoms: O_36  and  C_37
REMARK                            x       y       z     vdW  Elec       q    Type
REMARK                         _______ _______ _______ _____ _____    ______ ____
ROOT
ATOM      1  N   UNL     1       1.098  -6.239   3.125  0.00  0.00    -0.263 N 
ATOM      2  C   UNL     1       0.537  -6.741   4.243  0.00  0.00    +0.251 C 
ATOM      3  O   UNL     1       0.196  -5.994   5.140  0.00  0.00    -0.270 OA
ENDROOT
BRANCH   1   4
ATOM      4  C   UNL     1       1.559  -7.104   2.124  0.00  0.00    +0.078 A 
ATOM      5  C   UNL     1       0.666  -7.917   1.441  0.00  0.00    +0.027 A 
ATOM      6  C   UNL     1       1.124  -8.769   0.454  0.00  0.00    +0.002 A 
ATOM      7  C   UNL     1       2.471  -8.814   0.145  0.00  0.00    +0.004 A 
ATOM      8  C   UNL     1       3.367  -8.007   0.821  0.00  0.00    +0.047 A 
ATOM      9  C   UNL     1       2.915  -7.146   1.808  0.00  0.00    +0.141 A 
BRANCH   9  10
ATOM     10  O   UNL     1       3.795  -6.347   2.470  0.00  0.00    -0.493 OA
ATOM     11  C   UNL     1       5.151  -6.363   2.020  0.00  0.00    +0.277 C 
ENDBRANCH   9  10
ENDBRANCH   1   4
BRANCH   2  12
ATOM     12  C   UNL     1       0.336  -8.197   4.378  0.00  0.00    +0.044 A 
ATOM     13  C   UNL     1       1.314  -9.084   3.921  0.00  0.00    +0.062 A 
ATOM     14  C   UNL     1       1.124 -10.447   4.050  0.00  0.00    +0.166 A 
ATOM     15  C   UNL     1      -0.041 -10.936   4.634  0.00  0.00    +0.204 A 
ATOM     16  C   UNL     1      -1.017 -10.054   5.091  0.00  0.00    +0.166 A 
ATOM     17  C   UNL     1      -0.829  -8.690   4.970  0.00  0.00    +0.062 A 
BRANCH  16  18
ATOM     18  O   UNL     1      -2.155 -10.536   5.660  0.00  0.00    -0.491 OA
ATOM     19  C   UNL     1      -3.114  -9.575   6.106  0.00  0.00    +0.277 C 
ENDBRANCH  16  18
BRANCH  15  20
ATOM     20  O   UNL     1      -0.226 -12.277   4.759  0.00  0.00    -0.488 OA
ATOM     21  C   UNL     1       0.247 -12.887   5.961  0.00  0.00    +0.277 C 
ENDBRANCH  15  20
BRANCH  14  22
ATOM     22  O   UNL     1       2.075 -11.310   3.604  0.00  0.00    -0.491 OA
ATOM     23  C   UNL     1       3.297 -10.741   3.129  0.00  0.00    +0.277 C 
ENDBRANCH  14  22
ENDBRANCH   2  12
BRANCH   1  24
ATOM     24  C   UNL     1       1.225  -4.790   2.956  0.00  0.00    +0.131 C 
BRANCH  24  33
ATOM     25  C   UNL     1      -0.371   1.781   0.655  0.00  0.00    +0.044 C 
ATOM     26  C   UNL     1      -0.389   0.277   0.553  0.00  0.00    -0.050 A 
ATOM     27  C   UNL     1      -0.583  -0.320  -0.693  0.00  0.00    +0.005 A 
ATOM     28  C   UNL     1      -0.611  -1.668  -0.864  0.00  0.00    +0.024 A 
ATOM     29  C   UNL     1      -0.442  -2.530   0.235  0.00  0.00    +0.040 A 
ATOM     30  N   UNL     1      -0.471  -3.851   0.056  0.00  0.00    -0.284 N 
ATOM     31  C   UNL     1      -0.320  -4.717   1.044  0.00  0.00    +0.226 C 
ATOM     32  O   UNL     1      -0.355  -5.912   0.819  0.00  0.00    -0.275 OA
ATOM     33  C   UNL     1      -0.102  -4.216   2.454  0.00  0.00    +0.116 C 
ATOM     34  C   UNL     1      -0.068  -2.715   2.663  0.00  0.00    -0.003 C 
ATOM     35  C   UNL     1      -0.236  -1.927   1.563  0.00  0.00    -0.007 A 
ATOM     36  C   UNL     1      -0.212  -0.468   1.674  0.00  0.00    +0.012 A 
ATOM     37  H   UNL     1      -0.609  -4.192  -0.841  0.00  0.00    +0.155 HD
ENDBRANCH  24  33
ENDBRANCH   1  24
TORSDOF 8
