REMARK  Name = ZINC45606835
REMARK  9 active torsions:
REMARK  status: ('A' for Active; 'I' for Inactive)
REMARK    1  A    between atoms: C_1  and  C_2
REMARK    2  A    between atoms: C_2  and  O_3
REMARK    3  A    between atoms: O_3  and  C_4
REMARK    4  A    between atoms: C_4  and  C_6
REMARK    5  A    between atoms: C_7  and  C_19
REMARK    6  A    between atoms: C_12  and  C_14
REMARK    7  A    between atoms: C_19  and  N_20
REMARK    8  A    between atoms: C_24  and  C_27
REMARK    9  A    between atoms: N_29  and  C_30
REMARK                            x       y       z     vdW  Elec       q    Type
REMARK                         _______ _______ _______ _____ _____    ______ ____
ROOT
ATOM      1  C   UNL     1      -3.130  -2.774  -0.388  0.00  0.00    +0.079 C 
ATOM      2  C   UNL     1      -3.313  -4.112  -0.413  0.00  0.00    +0.008 C 
ATOM      3  N   UNL     1      -4.563  -4.654  -0.325  0.00  0.00    -0.274 N 
ATOM      4  C   UNL     1      -5.681  -3.926  -0.211  0.00  0.00    +0.304 C 
ATOM      5  O   UNL     1      -6.751  -4.500  -0.140  0.00  0.00    -0.252 OA
ATOM      6  N   UNL     1      -5.660  -2.579  -0.173  0.00  0.00    -0.285 N 
ATOM      7  C   UNL     1      -4.358  -1.897  -0.254  0.00  0.00    +0.179 C 
ATOM      8  H   UNL     1      -4.646  -5.620  -0.347  0.00  0.00    +0.156 HD
ATOM      9  H   UNL     1      -6.482  -2.072  -0.090  0.00  0.00    +0.151 HD
ENDROOT
BRANCH   7  10
ATOM     10  C   UNL     1      -4.193  -1.052   0.983  0.00  0.00    +0.130 A 
ATOM     11  C   UNL     1      -3.799   0.234   1.011  0.00  0.00    +0.047 A 
ATOM     12  C   UNL     1      -3.782   0.628   2.369  0.00  0.00    +0.041 A 
ATOM     13  C   UNL     1      -4.166  -0.441   3.090  0.00  0.00    +0.195 A 
ATOM     14  O   UNL     1      -4.419  -1.454   2.245  0.00  0.00    -0.466 OA
ENDBRANCH   7  10
BRANCH   1  15
ATOM     15  C   UNL     1      -1.835  -2.211  -0.478  0.00  0.00    +0.339 C 
ATOM     16  O   UNL     1      -1.289  -1.780   0.520  0.00  0.00    -0.245 OA
BRANCH  15  17
ATOM     17  O   UNL     1      -1.206  -2.153  -1.670  0.00  0.00    -0.462 OA
BRANCH  17  19
ATOM     18  C   UNL     1       0.648  -1.593  -3.116  0.00  0.00    +0.048 C 
ATOM     19  C   UNL     1       0.099  -1.572  -1.688  0.00  0.00    +0.229 C 
ENDBRANCH  17  19
ENDBRANCH  15  17
ENDBRANCH   1  15
BRANCH   2  20
ATOM     20  C   UNL     1      -2.118  -5.021  -0.539  0.00  0.00    -0.026 C 
BRANCH  20  21
ATOM     21  N   UNL     1      -1.980  -5.822   0.684  0.00  0.00    +0.384 N 
ATOM     22  C   UNL     1      -1.686  -4.936   1.817  0.00  0.00    -0.078 C 
ATOM     23  C   UNL     1      -1.621  -5.755   3.107  0.00  0.00    -0.018 C 
ATOM     24  C   UNL     1      -0.517  -6.809   2.982  0.00  0.00    +0.009 C 
ATOM     25  C   UNL     1      -0.795  -7.681   1.754  0.00  0.00    +0.059 C 
ATOM     26  C   UNL     1      -0.890  -6.790   0.513  0.00  0.00    -0.066 C 
ATOM     27  H   UNL     1      -2.842  -6.315   0.861  0.00  0.00    -0.081 HD
BRANCH  25  28
ATOM     28  C   UNL     1       0.325  -8.674   1.577  0.00  0.00    +0.218 C 
ATOM     29  O   UNL     1       0.982  -8.672   0.557  0.00  0.00    -0.275 OA
ATOM     30  N   UNL     1       0.598  -9.563   2.553  0.00  0.00    -0.285 N 
ATOM     31  H   UNL     1       0.028  -9.613   3.336  0.00  0.00    +0.155 HD
BRANCH  30  32
ATOM     32  C   UNL     1       1.702 -10.414   2.435  0.00  0.00    +0.033 A 
ATOM     33  C   UNL     1       1.646 -11.702   2.950  0.00  0.00    +0.023 A 
ATOM     34  C   UNL     1       2.738 -12.539   2.833  0.00  0.00    +0.002 A 
ATOM     35  C   UNL     1       3.887 -12.096   2.202  0.00  0.00    +0.000 A 
ATOM     36  C   UNL     1       3.946 -10.813   1.689  0.00  0.00    +0.002 A 
ATOM     37  C   UNL     1       2.855  -9.973   1.798  0.00  0.00    +0.023 A 
ENDBRANCH  30  32
ENDBRANCH  25  28
ENDBRANCH  20  21
ENDBRANCH   2  20
TORSDOF 8
