REMARK  Name = ZINC13204504
REMARK  10 active torsions:
REMARK  status: ('A' for Active; 'I' for Inactive)
REMARK    1  A    between atoms: C_1  and  C_2
REMARK    2  A    between atoms: C_4  and  C_17
REMARK    3  A    between atoms: C_5  and  C_16
REMARK    4  A    between atoms: N_6  and  C_7
REMARK    5  A    between atoms: C_17  and  C_19
REMARK    6  A    between atoms: C_19  and  S_20
REMARK    7  A    between atoms: S_20  and  C_21
REMARK    8  A    between atoms: C_24  and  C_29
REMARK    9  A    between atoms: N_25  and  C_26
REMARK   10  A    between atoms: C_26  and  C_27
REMARK                            x       y       z     vdW  Elec       q    Type
REMARK                         _______ _______ _______ _____ _____    ______ ____
ROOT
ATOM      1  C   UNL     1       3.730  10.700  -0.194  0.00  0.00    +0.175 C 
ATOM      2  O   UNL     1       4.872  10.449  -0.519  0.00  0.00    -0.291 OA
ENDROOT
BRANCH   1   6
ATOM      3  C   UNL     1       0.954  14.823   0.927  0.00  0.00    +0.064 C 
ATOM      4  C   UNL     1       2.080  13.899   0.543  0.00  0.00    +0.022 A 
ATOM      5  C   UNL     1       1.991  12.562   0.440  0.00  0.00    +0.034 A 
ATOM      6  C   UNL     1       3.323  12.086   0.044  0.00  0.00    +0.039 A 
ATOM      7  C   UNL     1       4.116  13.214  -0.053  0.00  0.00    +0.031 A 
ATOM      8  N   UNL     1       3.357  14.287   0.243  0.00  0.00    -0.317 N 
ATOM      9  C   UNL     1       5.575  13.240  -0.427  0.00  0.00    +0.064 C 
BRANCH   8  10
ATOM     10  C   UNL     1       3.812  15.613   0.248  0.00  0.00    +0.047 A 
ATOM     11  C   UNL     1       4.229  16.211  -0.933  0.00  0.00    +0.026 A 
ATOM     12  C   UNL     1       4.672  17.518  -0.923  0.00  0.00    +0.006 A 
ATOM     13  C   UNL     1       4.712  18.233   0.264  0.00  0.00    -0.044 A 
ATOM     14  C   UNL     1       4.301  17.638   1.442  0.00  0.00    -0.042 A 
ATOM     15  C   UNL     1       3.852  16.329   1.435  0.00  0.00    +0.030 A 
ATOM     16  C   UNL     1       4.440  18.620   2.586  0.00  0.00    +0.036 C 
ATOM     17  C   UNL     1       5.384  19.722   2.060  0.00  0.00    +0.009 C 
ATOM     18  C   UNL     1       5.154  19.655   0.535  0.00  0.00    +0.036 C 
ENDBRANCH   8  10
ENDBRANCH   1   6
BRANCH   1  19
ATOM     19  C   UNL     1       2.729   9.584  -0.036  0.00  0.00    +0.157 C 
BRANCH  19  20
ATOM     20  S   UNL     1       3.530   8.001  -0.397  0.00  0.00    -0.078 S 
BRANCH  20  21
ATOM     21  C   UNL     1       2.172   6.907  -0.142  0.00  0.00    +0.193 A 
ATOM     22  N   UNL     1       0.953   7.246   0.210  0.00  0.00    -0.122 NA
ATOM     23  N   UNL     1       0.212   6.201   0.307  0.00  0.00    -0.128 NA
ATOM     24  C   UNL     1       0.914   5.126   0.021  0.00  0.00    +0.172 A 
ATOM     25  N   UNL     1       2.193   5.545  -0.271  0.00  0.00    -0.291 N 
BRANCH  24  26
ATOM     26  C   UNL     1       0.426   3.737   0.018  0.00  0.00    +0.056 A 
ATOM     27  C   UNL     1      -0.866   3.275   0.028  0.00  0.00    +0.019 A 
ATOM     28  C   UNL     1      -1.081   1.915   0.017  0.00  0.00    +0.008 A 
ATOM     29  C   UNL     1      -0.013   1.076   0.008  0.00  0.00    +0.046 A 
ATOM     30  S   UNL     1       1.361   2.216   0.001  0.00  0.00    -0.094 S 
ENDBRANCH  24  26
BRANCH  25  31
ATOM     31  C   UNL     1       3.336   4.708  -0.643  0.00  0.00    +0.250 C 
BRANCH  31  32
ATOM     32  C   UNL     1       3.374   4.548  -2.141  0.00  0.00    +0.375 C 
ATOM     33  O   UNL     1       2.533   5.079  -2.827  0.00  0.00    -0.244 OA
ATOM     34  O   UNL     1       4.343   3.816  -2.713  0.00  0.00    -0.244 OA
ENDBRANCH  31  32
ENDBRANCH  25  31
ENDBRANCH  20  21
ENDBRANCH  19  20
ENDBRANCH   1  19
TORSDOF 8
