REMARK  Name = ZINC08800383
REMARK  8 active torsions:
REMARK  status: ('A' for Active; 'I' for Inactive)
REMARK    1  A    between atoms: C_1  and  N_2
REMARK    2  A    between atoms: C_10  and  C_12
REMARK    3  A    between atoms: C_12  and  C_14
REMARK    4  A    between atoms: C_12  and  N_63
REMARK    5  A    between atoms: C_14  and  N_15
REMARK    6  A    between atoms: N_15  and  S_16
REMARK    7  A    between atoms: S_16  and  C_19
REMARK    8  A    between atoms: C_19  and  C_20
REMARK                            x       y       z     vdW  Elec       q    Type
REMARK                         _______ _______ _______ _____ _____    ______ ____
ROOT
ATOM      1  C   UNL     1       2.451  -1.940   4.386  0.00  0.00    -0.022 C 
ENDROOT
BRANCH   1  11
ATOM      2  C   UNL     1      -1.209   1.091   0.224  0.00  0.00    +0.129 C 
ATOM      3  N   UNL     1       0.255   1.208   0.205  0.00  0.00    -0.333 N 
ATOM      4  C   UNL     1       0.669   2.612   0.199  0.00  0.00    +0.105 C 
ATOM      5  C   UNL     1       2.202   2.673   0.208  0.00  0.00    +0.024 C 
ATOM      6  C   UNL     1       2.686   2.160   1.566  0.00  0.00    +0.038 C 
ATOM      7  C   UNL     1       1.975   0.874   1.905  0.00  0.00    -0.026 A 
ATOM      8  C   UNL     1       0.828   0.472   1.242  0.00  0.00    +0.033 A 
ATOM      9  C   UNL     1       0.205  -0.721   1.612  0.00  0.00    +0.023 A 
ATOM     10  C   UNL     1       0.727  -1.496   2.625  0.00  0.00    +0.004 A 
ATOM     11  C   UNL     1       1.876  -1.093   3.280  0.00  0.00    -0.059 A 
ATOM     12  C   UNL     1       2.496   0.088   2.921  0.00  0.00    +0.007 A 
ENDBRANCH   1  11
BRANCH   1  18
ATOM     13  C   UNL     1       3.646  -2.965   2.547  0.00  0.00    -0.078 C 
ATOM     14  C   UNL     1       4.287  -4.268   2.065  0.00  0.00    -0.019 C 
ATOM     15  C   UNL     1       3.201  -5.334   1.895  0.00  0.00    -0.004 C 
ATOM     16  C   UNL     1       2.470  -5.523   3.228  0.00  0.00    -0.019 C 
ATOM     17  C   UNL     1       1.881  -4.184   3.676  0.00  0.00    -0.078 C 
ATOM     18  N   UNL     1       2.980  -3.209   3.844  0.00  0.00    +0.385 N 
ATOM     19  H   UNL     1       3.667  -3.592   4.504  0.00  0.00    -0.081 HD
ENDBRANCH   1  18
BRANCH   1  20
ATOM     20  C   UNL     1       1.359  -2.246   5.414  0.00  0.00    +0.095 C 
BRANCH  20  21
ATOM     21  N   UNL     1       1.923  -3.050   6.501  0.00  0.00    -0.195 NA
ATOM     22  H   UNL     1       2.725  -3.575   6.350  0.00  0.00    +0.148 HD
BRANCH  21  23
ATOM     23  S   UNL     1       1.193  -3.064   7.987  0.00  0.00    +0.033 S 
ATOM     24  O   UNL     1       2.007  -3.913   8.784  0.00  0.00    -0.158 OA
ATOM     25  O   UNL     1       1.029  -1.693   8.322  0.00  0.00    -0.158 OA
BRANCH  23  26
ATOM     26  C   UNL     1      -0.424  -3.836   7.704  0.00  0.00    +0.220 C 
BRANCH  26  27
ATOM     27  C   UNL     1      -1.184  -3.901   9.004  0.00  0.00    -0.024 A 
ATOM     28  C   UNL     1      -1.063  -5.009   9.821  0.00  0.00    +0.005 A 
ATOM     29  C   UNL     1      -1.756  -5.068  11.015  0.00  0.00    +0.002 A 
ATOM     30  C   UNL     1      -2.579  -4.022  11.389  0.00  0.00    +0.020 A 
ATOM     31  C   UNL     1      -2.705  -2.915  10.569  0.00  0.00    +0.041 A 
ATOM     32  C   UNL     1      -2.007  -2.855   9.376  0.00  0.00    +0.025 A 
ATOM     33 CL   UNL     1      -3.739  -1.601  11.037  0.00  0.00    -0.084 Cl
ENDBRANCH  26  27
ENDBRANCH  23  26
ENDBRANCH  21  23
ENDBRANCH  20  21
ENDBRANCH   1  20
TORSDOF 7
