REMARK  Name = ZINC39466508
REMARK  6 active torsions:
REMARK  status: ('A' for Active; 'I' for Inactive)
REMARK    1  A    between atoms: C_4  and  C_7
REMARK    2  A    between atoms: C_7  and  P_8
REMARK    3  A    between atoms: C_16  and  C_33
REMARK    4  A    between atoms: C_17  and  C_26
REMARK    5  A    between atoms: C_31  and  O_32
REMARK    6  A    between atoms: C_38  and  O_39
REMARK                            x       y       z     vdW  Elec       q    Type
REMARK                         _______ _______ _______ _____ _____    ______ ____
ROOT
ATOM      1  P   UNL     1       4.260  -1.012   1.674  0.00  0.00    +0.262 P 
ATOM      2  O   UNL     1       3.282  -1.870   2.380  0.00  0.00    -0.274 OA
ATOM      3  N   UNL     1       5.752  -1.716   1.680  0.00  0.00    -0.291 NA
ATOM      4  N   UNL     1       6.498  -1.631   2.837  0.00  0.00    +0.397 N 
ATOM      5  C   UNL     1       7.805  -2.232   2.523  0.00  0.00    -0.046 C 
ATOM      6  C   UNL     1       8.719  -2.214   3.741  0.00  0.00    +0.005 C 
ATOM      7  C   UNL     1       8.107  -3.001   4.870  0.00  0.00    -0.016 C 
ATOM      8  C   UNL     1       8.495  -2.756   6.131  0.00  0.00    -0.011 C 
ATOM      9  C   UNL     1       9.530  -1.722   6.383  0.00  0.00    -0.011 C 
ATOM     10  C   UNL     1       9.746  -0.768   5.466  0.00  0.00    -0.014 C 
ATOM     11  C   UNL     1       8.930  -0.767   4.197  0.00  0.00    +0.016 C 
ATOM     12  C   UNL     1       7.563  -0.142   4.478  0.00  0.00    -0.003 C 
ATOM     13  C   UNL     1       6.664  -0.233   3.240  0.00  0.00    -0.020 C 
ATOM     14  C   UNL     1       5.320   0.407   3.611  0.00  0.00    +0.156 C 
ATOM     15  O   UNL     1       4.449   0.397   2.466  0.00  0.00    -0.319 OA
ATOM     16  H   UNL     1       6.094  -2.174   0.896  0.00  0.00    +0.111 HD
ATOM     17  H   UNL     1       6.042  -2.147   3.574  0.00  0.00    -0.055 HD
ENDROOT
BRANCH   9  18
ATOM     18  C   UNL     1      10.317  -1.743   7.639  0.00  0.00    +0.024 A 
ATOM     19  C   UNL     1       9.733  -1.339   8.838  0.00  0.00    +0.012 A 
ATOM     20  C   UNL     1      10.470  -1.361  10.004  0.00  0.00    +0.001 A 
ATOM     21  C   UNL     1      11.788  -1.784   9.988  0.00  0.00    +0.004 A 
ATOM     22  C   UNL     1      12.377  -2.187   8.805  0.00  0.00    +0.046 A 
ATOM     23  C   UNL     1      11.647  -2.175   7.627  0.00  0.00    +0.125 A 
BRANCH  23  24
ATOM     24  O   UNL     1      12.223  -2.576   6.464  0.00  0.00    -0.506 OA
ATOM     25  H   UNL     1      12.657  -1.865   5.974  0.00  0.00    +0.292 HD
ENDBRANCH  23  24
ENDBRANCH   9  18
BRANCH   8  26
ATOM     26  C   UNL     1       7.896  -3.509   7.259  0.00  0.00    +0.024 A 
ATOM     27  C   UNL     1       8.626  -4.511   7.897  0.00  0.00    +0.012 A 
ATOM     28  C   UNL     1       8.065  -5.208   8.947  0.00  0.00    +0.001 A 
ATOM     29  C   UNL     1       6.779  -4.918   9.370  0.00  0.00    +0.004 A 
ATOM     30  C   UNL     1       6.047  -3.927   8.744  0.00  0.00    +0.046 A 
ATOM     31  C   UNL     1       6.600  -3.214   7.692  0.00  0.00    +0.125 A 
BRANCH  31  32
ATOM     32  O   UNL     1       5.883  -2.236   7.080  0.00  0.00    -0.506 OA
ATOM     33  H   UNL     1       5.351  -2.546   6.334  0.00  0.00    +0.292 HD
ENDBRANCH  31  32
ENDBRANCH   8  26
BRANCH   1  34
ATOM     34  C   UNL     1       3.711  -0.707  -0.038  0.00  0.00    +0.147 C 
BRANCH  34  38
ATOM     35  C   UNL     1      -0.017   1.378   0.010  0.00  0.00    +0.000 A 
ATOM     36  C   UNL     1       1.171   2.086   0.002  0.00  0.00    +0.000 A 
ATOM     37  C   UNL     1       2.377   1.411  -0.013  0.00  0.00    +0.004 A 
ATOM     38  C   UNL     1       2.396   0.029  -0.020  0.00  0.00    -0.037 A 
ATOM     39  C   UNL     1       1.208  -0.679  -0.012  0.00  0.00    +0.004 A 
ATOM     40  C   UNL     1       0.002  -0.004   0.002  0.00  0.00    +0.000 A 
ENDBRANCH  34  38
ENDBRANCH   1  34
TORSDOF 6
