REMARK  Name = ZINC03633027
REMARK  11 active torsions:
REMARK  status: ('A' for Active; 'I' for Inactive)
REMARK    1  A    between atoms: C_1  and  C_2
REMARK    2  A    between atoms: C_2  and  C_3
REMARK    3  A    between atoms: C_3  and  N_4
REMARK    4  A    between atoms: N_4  and  C_5
REMARK    5  A    between atoms: N_4  and  C_8
REMARK    6  A    between atoms: C_5  and  C_6
REMARK    7  A    between atoms: C_6  and  C_7
REMARK    8  A    between atoms: C_8  and  C_9
REMARK    9  A    between atoms: C_10  and  C_20
REMARK   10  A    between atoms: N_22  and  N_23
REMARK   11  A    between atoms: C_24  and  C_25
REMARK                            x       y       z     vdW  Elec       q    Type
REMARK                         _______ _______ _______ _____ _____    ______ ____
ROOT
ATOM      1  C   UNL     1       4.614   9.477   0.327  0.00  0.00    +0.063 A 
ATOM      2  C   UNL     1       4.397   8.176   0.682  0.00  0.00    +0.170 A 
ATOM      3  N   UNL     1       5.589   7.569   0.822  0.00  0.00    -0.124 NA
ATOM      4  N   UNL     1       6.533   8.406   0.569  0.00  0.00    -0.058 NA
ATOM      5  N   UNL     1       5.954   9.643   0.251  0.00  0.00    -0.194 N 
ATOM      6  C   UNL     1       6.631  10.821  -0.082  0.00  0.00    +0.240 A 
ATOM      7  C   UNL     1       8.086  10.982  -0.160  0.00  0.00    +0.206 A 
ATOM      8  N   UNL     1       8.345  12.215  -0.498  0.00  0.00    -0.032 NA
ATOM      9  O   UNL     1       7.110  12.892  -0.651  0.00  0.00    -0.239 OA
ATOM     10  N   UNL     1       6.076  11.962  -0.381  0.00  0.00    -0.027 NA
ATOM     11  N   UNL     1       9.028   9.989   0.084  0.00  0.00    -0.337 N 
ATOM     12  H   UNL     1      10.101  10.216  -0.002  0.00  0.00    +0.144 HD
ATOM     13  H   UNL     1       8.701   8.977   0.365  0.00  0.00    +0.144 HD
ENDROOT
BRANCH   2  14
ATOM     14  C   UNL     1       3.079   7.546   0.884  0.00  0.00    +0.285 C 
ATOM     15  O   UNL     1       2.064   8.198   0.733  0.00  0.00    -0.267 OA
ATOM     16  N   UNL     1       3.000   6.247   1.234  0.00  0.00    -0.202 N 
ATOM     17  H   UNL     1       3.919   5.657   1.370  0.00  0.00    +0.178 HD
BRANCH  16  18
ATOM     18  N   UNL     1       1.748   5.648   1.426  0.00  0.00    -0.187 NA
ATOM     19  C   UNL     1       1.672   4.397   1.764  0.00  0.00    +0.139 C 
BRANCH  19  20
ATOM     20  C   UNL     1       0.354   3.767   1.965  0.00  0.00    +0.013 A 
ATOM     21  C   UNL     1       0.268   2.421   2.329  0.00  0.00    +0.011 A 
ATOM     22  C   UNL     1      -0.967   1.838   2.516  0.00  0.00    +0.001 A 
ATOM     23  C   UNL     1      -2.121   2.581   2.339  0.00  0.00    +0.001 A 
ATOM     24  C   UNL     1      -2.045   3.916   1.985  0.00  0.00    +0.020 A 
ATOM     25  C   UNL     1      -0.815   4.514   1.794  0.00  0.00    +0.050 A 
ATOM     26 CL   UNL     1      -0.721   6.187   1.342  0.00  0.00    -0.083 Cl
ENDBRANCH  19  20
ENDBRANCH  16  18
ENDBRANCH   2  14
BRANCH   1  27
ATOM     27  C   UNL     1       3.563  10.526   0.072  0.00  0.00    -0.020 C 
BRANCH  27  28
ATOM     28  N   UNL     1       3.521  10.838  -1.363  0.00  0.00    +0.383 N 
ATOM     29  H   UNL     1       4.556  10.867  -1.733  0.00  0.00    -0.081 HD
BRANCH  28  30
ATOM     30  C   UNL     1       2.805   9.793  -2.108  0.00  0.00    -0.079 C 
BRANCH  30  32
ATOM     31  C   UNL     1       3.034   7.564  -3.212  0.00  0.00    +0.002 C 
ATOM     32  C   UNL     1       3.729   8.592  -2.318  0.00  0.00    -0.022 C 
ENDBRANCH  30  32
ENDBRANCH  28  30
BRANCH  28  33
ATOM     33  C   UNL     1       2.920  12.158  -1.598  0.00  0.00    -0.079 C 
BRANCH  33  34
ATOM     34  C   UNL     1       3.239  12.617  -3.022  0.00  0.00    -0.022 C 
ATOM     35  C   UNL     1       2.724  14.043  -3.225  0.00  0.00    +0.002 C 
ENDBRANCH  33  34
ENDBRANCH  28  33
ENDBRANCH  27  28
ENDBRANCH   1  27
TORSDOF 9
