REMARK  Name = ZINC03672765
REMARK  2 active torsions:
REMARK  status: ('A' for Active; 'I' for Inactive)
REMARK    1  A    between atoms: C_1  and  C_2
REMARK    2  A    between atoms: C_4  and  N_11
REMARK                            x       y       z     vdW  Elec       q    Type
REMARK                         _______ _______ _______ _____ _____    ______ ____
ROOT
ATOM      1  N   UNL     1       5.763   1.947   3.067  0.00  0.00    -0.326 N 
ATOM      2  C   UNL     1       5.457   0.510   3.071  0.00  0.00    +0.124 C 
ATOM      3  C   UNL     1       3.966   0.307   2.788  0.00  0.00    +0.125 C 
ATOM      4  N   UNL     1       3.176   1.014   3.807  0.00  0.00    -0.312 N 
ATOM      5  C   UNL     1       3.482   2.451   3.802  0.00  0.00    +0.125 C 
ATOM      6  C   UNL     1       4.973   2.654   4.085  0.00  0.00    +0.124 C 
ATOM      7  C   UNL     1       1.828   0.796   3.625  0.00  0.00    +0.134 A 
ATOM      8  C   UNL     1       1.055   0.149   4.622  0.00  0.00    +0.040 A 
ATOM      9  C   UNL     1       1.617  -0.293   5.825  0.00  0.00    +0.013 A 
ATOM     10  C   UNL     1       0.826  -0.909   6.750  0.00  0.00    +0.001 A 
ATOM     11  C   UNL     1      -0.532  -1.104   6.513  0.00  0.00    +0.002 A 
ATOM     12  C   UNL     1      -1.109  -0.685   5.351  0.00  0.00    +0.028 A 
ATOM     13  C   UNL     1      -0.326  -0.048   4.380  0.00  0.00    +0.078 A 
ATOM     14  N   UNL     1      -0.847   0.388   3.223  0.00  0.00    -0.214 NA
ATOM     15  C   UNL     1      -0.081   0.979   2.326  0.00  0.00    +0.220 A 
ATOM     16  N   UNL     1       1.220   1.184   2.514  0.00  0.00    -0.199 NA
ATOM     17  N   UNL     1      -0.656   1.409   1.144  0.00  0.00    -0.295 N 
ATOM     18  C   UNL     1      -2.088   1.079   1.105  0.00  0.00    +0.113 C 
ATOM     19  C   UNL     1      -2.740   1.882  -0.021  0.00  0.00    +0.054 C 
ATOM     20  C   UNL     1      -1.955   1.712  -1.296  0.00  0.00    -0.041 A 
ATOM     21  C   UNL     1      -2.558   2.058  -2.496  0.00  0.00    +0.004 A 
ATOM     22  C   UNL     1      -1.872   1.922  -3.686  0.00  0.00    +0.000 A 
ATOM     23  C   UNL     1      -0.577   1.438  -3.682  0.00  0.00    +0.000 A 
ATOM     24  C   UNL     1       0.024   1.091  -2.488  0.00  0.00    +0.005 A 
ATOM     25  C   UNL     1      -0.665   1.226  -1.291  0.00  0.00    -0.027 A 
ATOM     26  C   UNL     1       0.032   0.832  -0.015  0.00  0.00    +0.143 C 
ENDROOT
BRANCH   1  30
ATOM     27  C   UNL     1       9.466   3.634   5.814  0.00  0.00    +0.063 C 
ATOM     28  C   UNL     1       8.961   2.977   4.555  0.00  0.00    +0.015 A 
ATOM     29  C   UNL     1       7.597   2.774   4.400  0.00  0.00    +0.044 A 
ATOM     30  C   UNL     1       7.119   2.167   3.250  0.00  0.00    +0.041 A 
ATOM     31  C   UNL     1       8.060   1.782   2.264  0.00  0.00    +0.019 A 
ATOM     32  C   UNL     1       7.657   1.168   1.071  0.00  0.00    +0.012 A 
ATOM     33  C   UNL     1       8.593   0.813   0.146  0.00  0.00    +0.001 A 
ATOM     34  C   UNL     1       9.946   1.054   0.372  0.00  0.00    +0.002 A 
ATOM     35  C   UNL     1      10.371   1.649   1.520  0.00  0.00    +0.026 A 
ATOM     36  C   UNL     1       9.434   2.028   2.497  0.00  0.00    +0.048 A 
ATOM     37  N   UNL     1       9.902   2.629   3.647  0.00  0.00    -0.358 N 
ATOM     38  H   UNL     1      10.902   2.802   3.804  0.00  0.00    +0.166 HD
ENDBRANCH   1  30
TORSDOF 1
