REMARK  Name = ZINC35001906
REMARK  11 active torsions:
REMARK  status: ('A' for Active; 'I' for Inactive)
REMARK    1  A    between atoms: C_1  and  C_2
REMARK    2  A    between atoms: C_2  and  C_3
REMARK    3  A    between atoms: C_6  and  C_9
REMARK    4  A    between atoms: C_11  and  C_12
REMARK    5  A    between atoms: C_12  and  C_13
REMARK    6  A    between atoms: N_28  and  C_29
REMARK    7  A    between atoms: C_29  and  C_30
REMARK    8  A    between atoms: C_30  and  C_31
REMARK    9  A    between atoms: C_31  and  N_32
REMARK   10  A    between atoms: N_32  and  C_33
REMARK   11  A    between atoms: N_32  and  C_34
REMARK                            x       y       z     vdW  Elec       q    Type
REMARK                         _______ _______ _______ _____ _____    ______ ____
ROOT
ATOM      1  C   UNL     1      -4.901  -1.661   0.043  0.00  0.00    +0.145 C 
ATOM      2  C   UNL     1      -6.166  -0.842  -0.061  0.00  0.00    +0.076 C 
ATOM      3  C   UNL     1      -6.869  -1.338  -1.106  0.00  0.00    +0.249 C 
ATOM      4  O   UNL     1      -8.067  -0.879  -1.534  0.00  0.00    -0.282 OA
ATOM      5  C   UNL     1      -6.119  -2.462  -1.705  0.00  0.00    +0.288 C 
ATOM      6  O   UNL     1      -6.488  -3.116  -2.660  0.00  0.00    -0.266 OA
ATOM      7  N   UNL     1      -4.967  -2.654  -1.036  0.00  0.00    -0.284 N 
ENDROOT
BRANCH   1  11
ATOM      8  C   UNL     1      -1.479   0.842  -0.475  0.00  0.00    -0.048 A 
ATOM      9  C   UNL     1      -1.840   0.418   0.790  0.00  0.00    +0.004 A 
ATOM     10  C   UNL     1      -2.947  -0.392   0.958  0.00  0.00    +0.006 A 
ATOM     11  C   UNL     1      -3.694  -0.778  -0.140  0.00  0.00    -0.022 A 
ATOM     12  C   UNL     1      -3.334  -0.353  -1.405  0.00  0.00    +0.006 A 
ATOM     13  C   UNL     1      -2.229   0.461  -1.572  0.00  0.00    +0.004 A 
BRANCH   8  15
ATOM     14  C   UNL     1      -0.693   3.193  -0.558  0.00  0.00    +0.009 C 
ATOM     15  C   UNL     1      -0.271   1.725  -0.658  0.00  0.00    +0.032 C 
ENDBRANCH   8  15
ENDBRANCH   1  11
BRANCH   2  16
ATOM     16  C   UNL     1      -6.557   0.276   0.803  0.00  0.00    +0.195 C 
ATOM     17  O   UNL     1      -6.665   1.396   0.338  0.00  0.00    -0.287 OA
BRANCH  16  18
ATOM     18  C   UNL     1      -6.818   0.044   2.237  0.00  0.00    +0.026 A 
ATOM     19  C   UNL     1      -6.804  -1.256   2.751  0.00  0.00    +0.015 A 
ATOM     20  C   UNL     1      -7.050  -1.469   4.089  0.00  0.00    +0.050 A 
ATOM     21  C   UNL     1      -7.310  -0.396   4.934  0.00  0.00    +0.162 A 
ATOM     22  C   UNL     1      -7.323   0.903   4.428  0.00  0.00    +0.163 A 
ATOM     23  C   UNL     1      -7.075   1.124   3.087  0.00  0.00    +0.061 A 
ATOM     24  O   UNL     1      -7.569   1.964   5.244  0.00  0.00    -0.485 OA
ATOM     25  C   UNL     1      -8.175   1.677   6.509  0.00  0.00    +0.270 C 
ATOM     26  C   UNL     1      -7.436   0.487   7.136  0.00  0.00    +0.270 C 
ATOM     27  O   UNL     1      -7.553  -0.631   6.250  0.00  0.00    -0.485 OA
ENDBRANCH  16  18
ENDBRANCH   2  16
BRANCH   7  28
ATOM     28  C   UNL     1      -3.958  -3.674  -1.333  0.00  0.00    +0.107 C 
BRANCH  28  29
ATOM     29  C   UNL     1      -4.276  -4.949  -0.549  0.00  0.00    +0.000 C 
BRANCH  29  30
ATOM     30  C   UNL     1      -3.222  -6.014  -0.858  0.00  0.00    -0.078 C 
BRANCH  30  31
ATOM     31  N   UNL     1      -3.527  -7.238  -0.105  0.00  0.00    +0.376 N 
ATOM     32  C   UNL     1      -4.798  -7.800  -0.579  0.00  0.00    -0.097 C 
ATOM     33  C   UNL     1      -2.452  -8.218  -0.308  0.00  0.00    -0.097 C 
ATOM     34  H   UNL     1      -3.601  -7.019   0.877  0.00  0.00    -0.083 HD
ENDBRANCH  30  31
ENDBRANCH  29  30
ENDBRANCH  28  29
ENDBRANCH   7  28
TORSDOF 8
