REMARK  Name = ZINC06134379
REMARK  16 active torsions:
REMARK  status: ('A' for Active; 'I' for Inactive)
REMARK    1  A    between atoms: C_1  and  C_2
REMARK    2  A    between atoms: C_2  and  C_3
REMARK    3  A    between atoms: C_2  and  C_4
REMARK    4  A    between atoms: C_4  and  C_5
REMARK    5  A    between atoms: C_5  and  N_6
REMARK    6  A    between atoms: C_7  and  C_9
REMARK    7  A    between atoms: C_9  and  C_11
REMARK    8  A    between atoms: C_9  and  N_15
REMARK    9  A    between atoms: C_11  and  C_12
REMARK   10  A    between atoms: C_12  and  C_13
REMARK   11  A    between atoms: C_12  and  C_14
REMARK   12  A    between atoms: N_15  and  C_16
REMARK   13  A    between atoms: C_16  and  C_17
REMARK   14  A    between atoms: C_26  and  C_28
REMARK   15  A    between atoms: C_29  and  N_36
REMARK   16  A    between atoms: C_30  and  C_33
REMARK                            x       y       z     vdW  Elec       q    Type
REMARK                         _______ _______ _______ _____ _____    ______ ____
ROOT
ATOM      1  N   UNL     1      -4.676  -6.393   0.074  0.00  0.00    -0.281 N 
ATOM      2  C   UNL     1      -4.781  -7.117  -1.058  0.00  0.00    +0.257 C 
ATOM      3  O   UNL     1      -5.428  -6.690  -1.996  0.00  0.00    -0.269 OA
ENDROOT
BRANCH   2   4
ATOM      4  C   UNL     1      -4.116  -8.418  -1.159  0.00  0.00    +0.115 A 
ATOM      5  C   UNL     1      -4.235  -9.397  -2.146  0.00  0.00    +0.076 A 
ATOM      6  C   UNL     1      -3.443 -10.519  -1.912  0.00  0.00    +0.155 A 
ATOM      7  N   UNL     1      -2.684 -10.565  -0.837  0.00  0.00    -0.203 NA
ATOM      8  S   UNL     1      -2.932  -9.169  -0.060  0.00  0.00    +0.019 S 
BRANCH   6   9
ATOM      9  C   UNL     1      -3.454 -11.647  -2.862  0.00  0.00    +0.262 C 
ATOM     10  O   UNL     1      -4.228 -11.645  -3.800  0.00  0.00    -0.269 OA
ATOM     11  N   UNL     1      -2.606 -12.681  -2.691  0.00  0.00    -0.324 N 
ATOM     12  H   UNL     1      -1.988 -12.682  -1.943  0.00  0.00    +0.145 HD
ATOM     13  H   UNL     1      -2.613 -13.422  -3.316  0.00  0.00    +0.145 HD
ENDBRANCH   6   9
BRANCH   5  14
ATOM     14  N   UNL     1      -5.063  -9.266  -3.253  0.00  0.00    -0.355 N 
ATOM     15  H   UNL     1      -5.534  -8.433  -3.411  0.00  0.00    +0.142 HD
ATOM     16  H   UNL     1      -5.171 -10.008  -3.868  0.00  0.00    +0.142 HD
ENDBRANCH   5  14
ENDBRANCH   2   4
BRANCH   1  17
ATOM     17  C   UNL     1      -5.429  -5.144   0.217  0.00  0.00    +0.163 C 
BRANCH  17  19
ATOM     18  N   UNL     1      -4.920  -2.725   0.294  0.00  0.00    -0.314 N 
ATOM     19  C   UNL     1      -4.469  -3.993   0.369  0.00  0.00    +0.234 C 
ATOM     20  O   UNL     1      -3.291  -4.207   0.560  0.00  0.00    -0.274 OA
ATOM     21  H   UNL     1      -5.855  -2.554   0.100  0.00  0.00    +0.149 HD
BRANCH  18  22
ATOM     22  C   UNL     1      -3.998  -1.606   0.504  0.00  0.00    +0.104 C 
BRANCH  22  23
ATOM     23  C   UNL     1      -4.758  -0.286   0.364  0.00  0.00    +0.022 C 
BRANCH  23  25
ATOM     24  C   UNL     1      -4.526   2.201   0.322  0.00  0.00    +0.007 C 
ATOM     25  C   UNL     1      -3.795   0.883   0.584  0.00  0.00    -0.016 C 
ATOM     26  C   UNL     1      -3.286   0.860   2.026  0.00  0.00    +0.007 C 
ENDBRANCH  23  25
ENDBRANCH  22  23
ENDBRANCH  18  22
ENDBRANCH  17  19
BRANCH  17  27
ATOM     27  C   UNL     1      -6.325  -5.229   1.454  0.00  0.00    +0.035 C 
BRANCH  27  28
ATOM     28  C   UNL     1      -7.218  -3.988   1.523  0.00  0.00    -0.015 C 
ATOM     29  C   UNL     1      -8.165  -3.974   0.321  0.00  0.00    +0.007 C 
ATOM     30  C   UNL     1      -8.036  -4.019   2.816  0.00  0.00    +0.007 C 
ENDBRANCH  27  28
ENDBRANCH  17  27
ENDBRANCH   1  17
BRANCH   1  31
ATOM     31  C   UNL     1      -3.809  -6.854   1.161  0.00  0.00    +0.144 C 
BRANCH  31  32
ATOM     32  C   UNL     1      -4.638  -7.575   2.193  0.00  0.00    -0.026 A 
ATOM     33  C   UNL     1      -4.997  -6.930   3.362  0.00  0.00    +0.009 A 
ATOM     34  C   UNL     1      -5.757  -7.587   4.312  0.00  0.00    +0.050 A 
ATOM     35  C   UNL     1      -6.162  -8.893   4.093  0.00  0.00    +0.166 A 
ATOM     36  C   UNL     1      -5.801  -9.543   2.916  0.00  0.00    +0.167 A 
ATOM     37  C   UNL     1      -5.043  -8.877   1.966  0.00  0.00    +0.054 A 
ATOM     38  O   UNL     1      -6.315 -10.807   2.939  0.00  0.00    -0.453 OA
ATOM     39  C   UNL     1      -6.647 -11.062   4.317  0.00  0.00    +0.466 C 
ATOM     40  O   UNL     1      -6.903  -9.751   4.855  0.00  0.00    -0.453 OA
ENDBRANCH  31  32
ENDBRANCH   1  31
TORSDOF 12
