REMARK  Name = ZINC02215919
REMARK  13 active torsions:
REMARK  status: ('A' for Active; 'I' for Inactive)
REMARK    1  A    between atoms: C_1  and  C_2
REMARK    2  A    between atoms: C_3  and  O_32
REMARK    3  A    between atoms: C_9  and  O_13
REMARK    4  A    between atoms: O_13  and  C_14
REMARK    5  A    between atoms: C_14  and  C_16
REMARK    6  A    between atoms: C_16  and  C_18
REMARK    7  A    between atoms: C_16  and  N_24
REMARK    8  A    between atoms: C_25  and  O_27
REMARK    9  A    between atoms: O_27  and  C_28
REMARK   10  A    between atoms: C_28  and  C_29
REMARK   11  A    between atoms: C_28  and  C_30
REMARK   12  A    between atoms: C_28  and  C_31
REMARK   13  A    between atoms: O_32  and  C_33
REMARK                            x       y       z     vdW  Elec       q    Type
REMARK                         _______ _______ _______ _____ _____    ______ ____
ROOT
ATOM      1  C   UNL     1       0.765  12.981  -0.580  0.00  0.00    +0.090 C 
ATOM      2  C   UNL     1       1.505  11.907  -1.335  0.00  0.00    +0.148 A 
ATOM      3  C   UNL     1       1.931  12.174  -2.586  0.00  0.00    +0.213 A 
ATOM      4  C   UNL     1       2.632  11.174  -3.318  0.00  0.00    +0.235 A 
ATOM      5  O   UNL     1       3.033  11.380  -4.451  0.00  0.00    -0.283 OA
ATOM      6  C   UNL     1       2.852   9.880  -2.649  0.00  0.00    +0.068 A 
ATOM      7  C   UNL     1       3.529   8.838  -3.285  0.00  0.00    +0.019 A 
ATOM      8  C   UNL     1       3.719   7.655  -2.631  0.00  0.00    +0.047 A 
ATOM      9  C   UNL     1       3.232   7.479  -1.337  0.00  0.00    +0.135 A 
ATOM     10  C   UNL     1       2.559   8.502  -0.692  0.00  0.00    +0.093 A 
ATOM     11  C   UNL     1       2.363   9.713  -1.341  0.00  0.00    +0.143 A 
ATOM     12  O   UNL     1       1.711  10.727  -0.736  0.00  0.00    -0.456 OA
ENDROOT
BRANCH   9  13
ATOM     13  O   UNL     1       3.424   6.294  -0.701  0.00  0.00    -0.424 OA
BRANCH  13  14
ATOM     14  C   UNL     1       2.372   5.462  -0.630  0.00  0.00    +0.338 C 
ATOM     15  O   UNL     1       1.293   5.817  -1.041  0.00  0.00    -0.248 OA
BRANCH  14  16
ATOM     16  C   UNL     1       2.538   4.086  -0.039  0.00  0.00    +0.216 C 
BRANCH  16  17
ATOM     17  C   UNL     1       3.003   4.207   1.389  0.00  0.00    -0.016 A 
ATOM     18  C   UNL     1       2.095   4.496   2.391  0.00  0.00    +0.006 A 
ATOM     19  C   UNL     1       2.522   4.602   3.701  0.00  0.00    +0.000 A 
ATOM     20  C   UNL     1       3.858   4.428   4.010  0.00  0.00    +0.000 A 
ATOM     21  C   UNL     1       4.767   4.143   3.008  0.00  0.00    +0.000 A 
ATOM     22  C   UNL     1       4.340   4.033   1.698  0.00  0.00    +0.006 A 
ENDBRANCH  16  17
BRANCH  16  23
ATOM     23  N   UNL     1       1.254   3.381  -0.076  0.00  0.00    -0.264 N 
ATOM     24  C   UNL     1       1.226   2.034  -0.089  0.00  0.00    +0.402 C 
ATOM     25  O   UNL     1       2.265   1.404  -0.070  0.00  0.00    -0.226 OA
ATOM     26  H   UNL     1       0.425   3.884  -0.091  0.00  0.00    +0.153 HD
BRANCH  24  27
ATOM     27  O   UNL     1       0.047   1.385  -0.124  0.00  0.00    -0.445 OA
BRANCH  27  28
ATOM     28  C   UNL     1       0.092  -0.066  -0.137  0.00  0.00    +0.107 C 
ATOM     29  C   UNL     1       0.799  -0.565   1.125  0.00  0.00    +0.055 C 
ATOM     30  C   UNL     1      -1.333  -0.621  -0.176  0.00  0.00    +0.055 C 
ATOM     31  C   UNL     1       0.859  -0.542  -1.372  0.00  0.00    +0.055 C 
ENDBRANCH  27  28
ENDBRANCH  24  27
ENDBRANCH  16  23
ENDBRANCH  14  16
ENDBRANCH  13  14
ENDBRANCH   9  13
BRANCH   3  32
ATOM     32  O   UNL     1       1.693  13.392  -3.145  0.00  0.00    -0.449 OA
BRANCH  32  33
ATOM     33  C   UNL     1       0.542  13.557  -3.848  0.00  0.00    +0.129 A 
ATOM     34  C   UNL     1      -0.347  12.501  -3.984  0.00  0.00    +0.046 A 
ATOM     35  C   UNL     1      -1.519  12.673  -4.694  0.00  0.00    +0.004 A 
ATOM     36  C   UNL     1      -1.802  13.894  -5.279  0.00  0.00    +0.000 A 
ATOM     37  C   UNL     1      -0.915  14.947  -5.150  0.00  0.00    +0.004 A 
ATOM     38  C   UNL     1       0.256  14.781  -4.436  0.00  0.00    +0.046 A 
ENDBRANCH  32  33
ENDBRANCH   3  32
TORSDOF 9
