REMARK  Name = ZINC57641879
REMARK  13 active torsions:
REMARK  status: ('A' for Active; 'I' for Inactive)
REMARK    1  A    between atoms: C_1  and  C_2
REMARK    2  A    between atoms: C_2  and  C_3
REMARK    3  A    between atoms: C_3  and  C_5
REMARK    4  A    between atoms: C_3  and  N_17
REMARK    5  A    between atoms: N_9  and  C_10
REMARK    6  A    between atoms: C_10  and  C_11
REMARK    7  A    between atoms: N_17  and  C_18
REMARK    8  A    between atoms: N_17  and  C_26
REMARK    9  A    between atoms: C_18  and  C_19
REMARK   10  A    between atoms: C_22  and  C_25
REMARK   11  A    between atoms: C_26  and  C_27
REMARK   12  A    between atoms: C_30  and  C_40
REMARK   13  A    between atoms: C_32  and  C_39
REMARK                            x       y       z     vdW  Elec       q    Type
REMARK                         _______ _______ _______ _____ _____    ______ ____
ROOT
ATOM      1  N   UNL     1      -0.228   0.161  -2.538  0.00  0.00    -0.284 NA
ENDROOT
BRANCH   1   2
ATOM      2  C   UNL     1       0.755  -0.505  -1.672  0.00  0.00    +0.127 C 
BRANCH   2   3
ATOM      3  C   UNL     1       2.118   0.094  -1.907  0.00  0.00    +0.169 A 
ATOM      4  N   UNL     1       2.665   0.364  -3.067  0.00  0.00    -0.112 NA
ATOM      5  N   UNL     1       3.832   0.865  -2.850  0.00  0.00    -0.023 NA
ATOM      6  N   UNL     1       4.044   0.922  -1.581  0.00  0.00    -0.044 NA
ATOM      7  N   UNL     1       3.008   0.460  -0.966  0.00  0.00    -0.223 N 
BRANCH   7   8
ATOM      8  C   UNL     1       2.834   0.352   0.485  0.00  0.00    +0.182 C 
BRANCH   8   9
ATOM      9  C   UNL     1       3.463  -0.928   0.972  0.00  0.00    -0.026 A 
ATOM     10  C   UNL     1       2.715  -2.090   1.023  0.00  0.00    +0.005 A 
ATOM     11  C   UNL     1       3.292  -3.264   1.470  0.00  0.00    +0.000 A 
ATOM     12  C   UNL     1       4.616  -3.277   1.865  0.00  0.00    +0.000 A 
ATOM     13  C   UNL     1       5.364  -2.115   1.813  0.00  0.00    +0.000 A 
ATOM     14  C   UNL     1       4.789  -0.942   1.363  0.00  0.00    +0.005 A 
ENDBRANCH   8   9
ENDBRANCH   7   8
ENDBRANCH   2   3
BRANCH   2  16
ATOM     15  C   UNL     1      -0.557  -2.631  -1.648  0.00  0.00    +0.006 C 
ATOM     16  C   UNL     1       0.792  -1.999  -1.998  0.00  0.00    +0.023 C 
ENDBRANCH   2  16
ENDBRANCH   1   2
BRANCH   1  17
ATOM     17  C   UNL     1       0.187   0.103  -3.946  0.00  0.00    +0.120 C 
BRANCH  17  18
ATOM     18  C   UNL     1      -0.998   0.397  -4.830  0.00  0.00    -0.033 A 
ATOM     19  C   UNL     1      -1.876  -0.616  -5.169  0.00  0.00    +0.005 A 
ATOM     20  C   UNL     1      -2.962  -0.347  -5.980  0.00  0.00    +0.003 A 
ATOM     21  C   UNL     1      -3.171   0.936  -6.452  0.00  0.00    -0.050 A 
ATOM     22  C   UNL     1      -2.293   1.948  -6.113  0.00  0.00    +0.003 A 
ATOM     23  C   UNL     1      -1.209   1.680  -5.299  0.00  0.00    +0.005 A 
ATOM     24  C   UNL     1      -4.355   1.229  -7.338  0.00  0.00    +0.044 C 
ENDBRANCH  17  18
ENDBRANCH   1  17
BRANCH   1  25
ATOM     25  C   UNL     1      -0.450   1.549  -2.111  0.00  0.00    +0.126 C 
BRANCH  25  26
ATOM     26  C   UNL     1      -1.336   1.564  -0.892  0.00  0.00    +0.032 A 
ATOM     27  C   UNL     1      -0.783   1.649   0.343  0.00  0.00    +0.020 A 
ATOM     28  C   UNL     1      -1.672   1.662   1.507  0.00  0.00    +0.002 A 
ATOM     29  C   UNL     1      -1.161   1.749   2.806  0.00  0.00    -0.041 A 
ATOM     30  C   UNL     1      -2.017   1.760   3.871  0.00  0.00    +0.007 A 
ATOM     31  C   UNL     1      -3.389   1.684   3.675  0.00  0.00    -0.048 A 
ATOM     32  C   UNL     1      -3.914   1.597   2.404  0.00  0.00    +0.029 A 
ATOM     33  C   UNL     1      -3.063   1.586   1.304  0.00  0.00    +0.050 A 
ATOM     34  N   UNL     1      -3.561   1.501   0.022  0.00  0.00    -0.322 N 
ATOM     35  H   UNL     1      -4.520   1.448  -0.116  0.00  0.00    +0.169 HD
ATOM     36  C   UNL     1      -2.738   1.495  -1.041  0.00  0.00    +0.254 A 
ATOM     37  O   UNL     1      -3.213   1.424  -2.161  0.00  0.00    -0.268 OA
ATOM     38  C   UNL     1      -4.314   1.696   4.865  0.00  0.00    +0.044 C 
ATOM     39  C   UNL     1       0.327   1.831   3.030  0.00  0.00    +0.044 C 
ENDBRANCH  25  26
ENDBRANCH   1  25
TORSDOF 9
