REMARK  Name = ZINC11672838
REMARK  9 active torsions:
REMARK  status: ('A' for Active; 'I' for Inactive)
REMARK    1  A    between atoms: C_1  and  C_2
REMARK    2  A    between atoms: C_2  and  C_4
REMARK    3  A    between atoms: C_2  and  O_16
REMARK    4  A    between atoms: N_6  and  C_7
REMARK    5  A    between atoms: O_16  and  C_17
REMARK    6  A    between atoms: C_17  and  C_19
REMARK    7  A    between atoms: C_22  and  S_28
REMARK    8  A    between atoms: C_23  and  N_25
REMARK    9  A    between atoms: S_28  and  C_31
REMARK                            x       y       z     vdW  Elec       q    Type
REMARK                         _______ _______ _______ _____ _____    ______ ____
ROOT
ATOM      1  O   UNL     1       3.852   3.901  -0.729  0.00  0.00    -0.449 OA
ENDROOT
BRANCH   1   3
ATOM      2  C   UNL     1       5.782   4.876   0.391  0.00  0.00    +0.062 C 
ATOM      3  C   UNL     1       5.112   4.587  -0.954  0.00  0.00    +0.259 C 
BRANCH   3   4
ATOM      4  C   UNL     1       4.855   5.884  -1.676  0.00  0.00    +0.258 C 
ATOM      5  O   UNL     1       3.717   6.243  -1.893  0.00  0.00    -0.271 OA
ATOM      6  N   UNL     1       5.890   6.646  -2.082  0.00  0.00    -0.280 N 
ATOM      7  H   UNL     1       6.799   6.388  -1.859  0.00  0.00    +0.155 HD
BRANCH   6   8
ATOM      8  C   UNL     1       5.655   7.809  -2.827  0.00  0.00    +0.072 A 
ATOM      9  C   UNL     1       4.519   8.570  -2.587  0.00  0.00    +0.029 A 
ATOM     10  C   UNL     1       4.288   9.718  -3.321  0.00  0.00    +0.043 A 
ATOM     11  C   UNL     1       5.188  10.111  -4.297  0.00  0.00    +0.161 A 
ATOM     12  C   UNL     1       6.323   9.353  -4.542  0.00  0.00    +0.195 A 
ATOM     13  C   UNL     1       6.561   8.205  -3.804  0.00  0.00    +0.182 A 
ATOM     14  F   UNL     1       7.670   7.470  -4.037  0.00  0.00    -0.200 F 
ATOM     15  F   UNL     1       7.199   9.737  -5.496  0.00  0.00    -0.199 F 
ATOM     16  F   UNL     1       4.959  11.233  -5.013  0.00  0.00    -0.202 F 
ENDBRANCH   6   8
ENDBRANCH   3   4
ENDBRANCH   1   3
BRANCH   1  17
ATOM     17  C   UNL     1       3.887   2.555  -0.689  0.00  0.00    +0.340 C 
ATOM     18  O   UNL     1       4.942   1.970  -0.838  0.00  0.00    -0.245 OA
BRANCH  17  19
ATOM     19  C   UNL     1       2.644   1.789  -0.465  0.00  0.00    +0.061 A 
ATOM     20  C   UNL     1       1.430   2.458  -0.293  0.00  0.00    +0.017 A 
ATOM     21  C   UNL     1       0.273   1.737  -0.083  0.00  0.00    +0.030 A 
ATOM     22  C   UNL     1       0.313   0.355  -0.042  0.00  0.00    +0.118 A 
ATOM     23  C   UNL     1       1.512  -0.314  -0.212  0.00  0.00    +0.152 A 
ATOM     24  C   UNL     1       2.677   0.394  -0.423  0.00  0.00    +0.049 A 
BRANCH  22  25
ATOM     25  S   UNL     1      -1.170  -0.558   0.227  0.00  0.00    -0.004 S 
ATOM     26  O   UNL     1      -2.181   0.429   0.374  0.00  0.00    -0.170 OA
ATOM     27  O   UNL     1      -1.220  -1.492  -0.843  0.00  0.00    -0.170 OA
ATOM     28  C   UNL     1      -0.906  -1.423   1.799  0.00  0.00    +0.200 C 
ENDBRANCH  22  25
BRANCH  23  29
ATOM     29  N   UNL     1       1.546  -1.793  -0.168  0.00  0.00    +0.058 N 
ATOM     30  O   UNL     1       2.611  -2.381  -0.224  0.00  0.00    -0.126 OA
ATOM     31  O   UNL     1       0.507  -2.423  -0.075  0.00  0.00    -0.126 OA
ENDBRANCH  23  29
ENDBRANCH  17  19
ENDBRANCH   1  17
TORSDOF 7
