REMARK  Name = ZINC17056837
REMARK  6 active torsions:
REMARK  status: ('A' for Active; 'I' for Inactive)
REMARK    1  A    between atoms: C_1  and  C_2
REMARK    2  A    between atoms: C_2  and  C_3
REMARK    3  A    between atoms: C_6  and  N_9
REMARK    4  A    between atoms: C_13  and  C_14
REMARK    5  A    between atoms: C_17  and  C_19
REMARK    6  A    between atoms: C_29  and  S_30
REMARK                            x       y       z     vdW  Elec       q    Type
REMARK                         _______ _______ _______ _____ _____    ______ ____
ROOT
ATOM      1  N   UNL     1       6.271   0.552   0.162  0.00  0.00    -0.217 N 
ATOM      2  C   UNL     1       5.884   1.601  -0.594  0.00  0.00    +0.262 C 
ATOM      3  O   UNL     1       4.872   1.549  -1.270  0.00  0.00    -0.269 OA
ATOM      4  C   UNL     1       6.725   2.807  -0.581  0.00  0.00    +0.105 C 
ATOM      5  C   UNL     1       6.399   3.930  -1.337  0.00  0.00    +0.064 C 
ATOM      6  C   UNL     1       7.928   2.777   0.274  0.00  0.00    +0.274 C 
ATOM      7  O   UNL     1       8.672   3.742   0.340  0.00  0.00    -0.268 OA
ATOM      8  N   UNL     1       8.185   1.664   0.977  0.00  0.00    -0.154 NA
ATOM      9  C   UNL     1       7.400   0.612   0.924  0.00  0.00    +0.157 C 
ENDROOT
BRANCH   1  13
ATOM     10  C   UNL     1       3.966  -2.921   0.185  0.00  0.00    -0.048 A 
ATOM     11  C   UNL     1       4.979  -2.770  -0.746  0.00  0.00    +0.005 A 
ATOM     12  C   UNL     1       5.744  -1.621  -0.755  0.00  0.00    +0.024 A 
ATOM     13  C   UNL     1       5.496  -0.615   0.169  0.00  0.00    +0.043 A 
ATOM     14  C   UNL     1       4.482  -0.771   1.105  0.00  0.00    +0.024 A 
ATOM     15  C   UNL     1       3.717  -1.921   1.107  0.00  0.00    +0.005 A 
BRANCH  10  17
ATOM     16  C   UNL     1       3.784  -5.213   1.111  0.00  0.00    +0.009 C 
ATOM     17  C   UNL     1       3.134  -4.176   0.193  0.00  0.00    +0.032 C 
ENDBRANCH  10  17
ENDBRANCH   1  13
BRANCH   5  18
ATOM     18  C   UNL     1       5.362   3.864  -2.277  0.00  0.00    +0.129 A 
ATOM     19  C   UNL     1       4.454   4.877  -2.562  0.00  0.00    +0.050 A 
ATOM     20  C   UNL     1       3.604   4.389  -3.550  0.00  0.00    +0.050 A 
ATOM     21  C   UNL     1       4.014   3.103  -3.838  0.00  0.00    +0.136 A 
ATOM     22  O   UNL     1       5.068   2.803  -3.059  0.00  0.00    -0.455 OA
BRANCH  21  23
ATOM     23  C   UNL     1       3.395   2.204  -4.830  0.00  0.00    +0.017 A 
ATOM     24  C   UNL     1       3.907   0.919  -5.029  0.00  0.00    +0.014 A 
ATOM     25  C   UNL     1       3.324   0.084  -5.958  0.00  0.00    +0.039 A 
ATOM     26  C   UNL     1       2.235   0.518  -6.698  0.00  0.00    +0.123 A 
ATOM     27  C   UNL     1       1.720   1.790  -6.502  0.00  0.00    +0.039 A 
ATOM     28  C   UNL     1       2.294   2.635  -5.576  0.00  0.00    +0.014 A 
ATOM     29  F   UNL     1       1.671  -0.303  -7.611  0.00  0.00    -0.205 F 
ENDBRANCH  21  23
ENDBRANCH   5  18
BRANCH   9  30
ATOM     30  S   UNL     1       7.830  -0.798   1.889  0.00  0.00    -0.110 S 
ATOM     31  H   UNL     1       9.013  -0.329   2.496  0.00  0.00    +0.110 HD
ENDBRANCH   9  30
TORSDOF 5
