REMARK  Name = ZINC28525734
REMARK  7 active torsions:
REMARK  status: ('A' for Active; 'I' for Inactive)
REMARK    1  A    between atoms: C_4  and  N_17
REMARK    2  A    between atoms: C_5  and  N_7
REMARK    3  A    between atoms: C_8  and  C_10
REMARK    4  A    between atoms: C_18  and  O_20
REMARK    5  A    between atoms: O_20  and  C_21
REMARK    6  A    between atoms: C_21  and  C_22
REMARK    7  A    between atoms: N_25  and  C_28
REMARK                            x       y       z     vdW  Elec       q    Type
REMARK                         _______ _______ _______ _____ _____    ______ ____
ROOT
ATOM      1  N   UNL     1      -2.271  -4.655  -0.283  0.00  0.00    -0.249 N 
ATOM      2  C   UNL     1      -2.542  -5.973  -0.364  0.00  0.00    +0.405 C 
ATOM      3  O   UNL     1      -3.692  -6.351  -0.472  0.00  0.00    -0.226 OA
ATOM      4  H   UNL     1      -1.242  -4.316  -0.093  0.00  0.00    +0.158 HD
ENDROOT
BRANCH   1   8
ATOM      5  C   UNL     1      -5.332  -1.861  -0.763  0.00  0.00    +0.002 A 
ATOM      6  C   UNL     1      -5.448  -3.119  -1.324  0.00  0.00    +0.002 A 
ATOM      7  C   UNL     1      -4.437  -4.048  -1.163  0.00  0.00    +0.025 A 
ATOM      8  C   UNL     1      -3.300  -3.717  -0.443  0.00  0.00    +0.058 A 
ATOM      9  C   UNL     1      -3.184  -2.450   0.127  0.00  0.00    +0.055 A 
ATOM     10  C   UNL     1      -4.204  -1.524  -0.039  0.00  0.00    +0.025 A 
BRANCH   9  11
ATOM     11  N   UNL     1      -2.040  -2.111   0.860  0.00  0.00    -0.283 N 
ATOM     12  C   UNL     1      -1.674  -0.819   0.979  0.00  0.00    +0.224 C 
ATOM     13  O   UNL     1      -2.274   0.040   0.368  0.00  0.00    -0.275 OA
ATOM     14  H   UNL     1      -1.440  -2.898   1.340  0.00  0.00    +0.155 HD
BRANCH  12  15
ATOM     15  C   UNL     1      -0.517  -0.442   1.869  0.00  0.00    +0.098 C 
ATOM     16  C   UNL     1      -0.315   1.074   1.822  0.00  0.00    +0.017 C 
ATOM     17  C   UNL     1       1.011   1.408   2.517  0.00  0.00    +0.005 C 
ATOM     18  C   UNL     1       2.156   0.850   1.670  0.00  0.00    +0.027 C 
ATOM     19  C   UNL     1       1.886  -0.584   1.315  0.00  0.00    -0.030 C 
ATOM     20  C   UNL     1       0.722  -1.144   1.398  0.00  0.00    -0.019 C 
ENDBRANCH  12  15
ENDBRANCH   9  11
ENDBRANCH   1   8
BRANCH   2  21
ATOM     21  O   UNL     1      -1.539  -6.870  -0.323  0.00  0.00    -0.450 OA
BRANCH  21  22
ATOM     22  C   UNL     1      -1.905  -8.273  -0.415  0.00  0.00    +0.237 C 
BRANCH  22  23
ATOM     23  C   UNL     1      -0.643  -9.134  -0.352  0.00  0.00    +0.030 C 
ATOM     24  C   UNL     1       0.221  -8.868  -1.588  0.00  0.00    +0.026 C 
ATOM     25  C   UNL     1       1.452  -9.776  -1.550  0.00  0.00    +0.105 C 
ATOM     26  N   UNL     1       1.024 -11.181  -1.523  0.00  0.00    -0.330 N 
ATOM     27  C   UNL     1       0.233 -11.473  -0.321  0.00  0.00    +0.105 C 
ATOM     28  C   UNL     1      -1.034 -10.614  -0.322  0.00  0.00    +0.026 C 
BRANCH  26  29
ATOM     29  C   UNL     1       2.117 -12.037  -1.621  0.00  0.00    +0.032 A 
ATOM     30  C   UNL     1       2.352 -13.011  -0.650  0.00  0.00    +0.040 A 
ATOM     31  C   UNL     1       3.443 -13.843  -0.786  0.00  0.00    +0.084 A 
ATOM     32  N   UNL     1       4.264 -13.719  -1.812  0.00  0.00    -0.367 N 
ATOM     33  C   UNL     1       4.079 -12.807  -2.748  0.00  0.00    +0.084 A 
ATOM     34  C   UNL     1       3.009 -11.940  -2.688  0.00  0.00    +0.040 A 
ATOM     35  H   UNL     1       5.133 -14.387  -1.905  0.00  0.00    +0.165 HD
ENDBRANCH  26  29
ENDBRANCH  22  23
ENDBRANCH  21  22
ENDBRANCH   2  21
TORSDOF 7
