REMARK  Name = ZINC02747728
REMARK  15 active torsions:
REMARK  status: ('A' for Active; 'I' for Inactive)
REMARK    1  A    between atoms: C_1  and  C_2
REMARK    2  A    between atoms: C_2  and  N_3
REMARK    3  A    between atoms: C_4  and  C_25
REMARK    4  A    between atoms: C_7  and  S_8
REMARK    5  A    between atoms: S_8  and  C_9
REMARK    6  A    between atoms: C_9  and  C_10
REMARK    7  A    between atoms: N_12  and  C_13
REMARK    8  A    between atoms: C_14  and  C_20
REMARK    9  A    between atoms: C_15  and  C_19
REMARK   10  A    between atoms: C_16  and  C_18
REMARK   11  A    between atoms: C_20  and  O_22
REMARK   12  A    between atoms: O_22  and  C_23
REMARK   13  A    between atoms: C_23  and  C_24
REMARK   14  A    between atoms: C_27  and  C_31
REMARK   15  A    between atoms: N_29  and  C_30
REMARK                            x       y       z     vdW  Elec       q    Type
REMARK                         _______ _______ _______ _____ _____    ______ ____
ROOT
ATOM      1  C   UNL     1      -1.943   1.927  -1.742  0.00  0.00    +0.173 C 
ENDROOT
BRANCH   1   2
ATOM      2  C   UNL     1      -0.767   1.143  -2.264  0.00  0.00    +0.228 C 
ATOM      3  O   UNL     1      -0.876  -0.047  -2.472  0.00  0.00    -0.275 OA
ATOM      4  N   UNL     1       0.404   1.764  -2.505  0.00  0.00    -0.279 N 
ATOM      5  H   UNL     1       0.491   2.716  -2.338  0.00  0.00    +0.155 HD
BRANCH   4   6
ATOM      6  C   UNL     1       1.484   1.044  -2.990  0.00  0.00    +0.086 A 
ATOM      7  C   UNL     1       2.761   1.502  -3.297  0.00  0.00    +0.091 A 
ATOM      8  C   UNL     1       3.700   0.523  -3.791  0.00  0.00    -0.025 A 
ATOM      9  C   UNL     1       3.262  -0.742  -3.912  0.00  0.00    -0.008 A 
ATOM     10  S   UNL     1       1.573  -0.647  -3.354  0.00  0.00    -0.078 S 
ATOM     11  C   UNL     1       4.020  -1.952  -4.395  0.00  0.00    +0.052 C 
ATOM     12  C   UNL     1       5.112   0.904  -4.157  0.00  0.00    +0.045 C 
BRANCH   7  13
ATOM     13  C   UNL     1       3.134   2.908  -3.128  0.00  0.00    +0.342 C 
ATOM     14  O   UNL     1       3.599   3.292  -2.071  0.00  0.00    -0.245 OA
BRANCH  13  15
ATOM     15  O   UNL     1       2.962   3.779  -4.144  0.00  0.00    -0.461 OA
BRANCH  15  16
ATOM     16  C   UNL     1       3.354   5.156  -3.906  0.00  0.00    +0.229 C 
ATOM     17  C   UNL     1       3.087   5.987  -5.162  0.00  0.00    +0.048 C 
ENDBRANCH  15  16
ENDBRANCH  13  15
ENDBRANCH   7  13
ENDBRANCH   4   6
ENDBRANCH   1   2
BRANCH   1  18
ATOM     18  S   UNL     1      -3.360   0.821  -1.530  0.00  0.00    -0.077 S 
BRANCH  18  23
ATOM     19  N   UNL     1      -5.848   1.685  -0.587  0.00  0.00    -0.301 N 
ATOM     20  C   UNL     1      -6.393   2.881  -0.176  0.00  0.00    +0.183 A 
ATOM     21  N   UNL     1      -5.450   3.790  -0.282  0.00  0.00    -0.127 NA
ATOM     22  N   UNL     1      -4.368   3.251  -0.719  0.00  0.00    -0.122 NA
ATOM     23  C   UNL     1      -4.556   1.967  -0.928  0.00  0.00    +0.192 A 
BRANCH  20  24
ATOM     24  C   UNL     1      -7.772   3.100   0.293  0.00  0.00    +0.106 A 
ATOM     25  C   UNL     1      -8.728   2.130   0.510  0.00  0.00    +0.055 A 
ATOM     26  C   UNL     1      -9.887   2.768   0.950  0.00  0.00    +0.061 A 
ATOM     27  N   UNL     1      -9.665   4.057   0.995  0.00  0.00    -0.176 NA
ATOM     28  N   UNL     1      -8.347   4.303   0.589  0.00  0.00    -0.263 N 
ATOM     29  C   UNL     1      -7.701   5.614   0.498  0.00  0.00    +0.173 C 
ATOM     30  C   UNL     1     -11.182   2.087   1.310  0.00  0.00    +0.067 C 
ENDBRANCH  20  24
BRANCH  19  32
ATOM     31  C   UNL     1      -6.446  -0.290   0.726  0.00  0.00    +0.027 C 
ATOM     32  C   UNL     1      -6.515   0.382  -0.647  0.00  0.00    +0.122 C 
ENDBRANCH  19  32
ENDBRANCH  18  23
ENDBRANCH   1  18
TORSDOF 9
