REMARK  Name = ZINC23990264
REMARK  12 active torsions:
REMARK  status: ('A' for Active; 'I' for Inactive)
REMARK    1  A    between atoms: C_1  and  C_2
REMARK    2  A    between atoms: C_2  and  C_3
REMARK    3  A    between atoms: C_3  and  C_5
REMARK    4  A    between atoms: C_3  and  N_30
REMARK    5  A    between atoms: C_8  and  S_17
REMARK    6  A    between atoms: N_9  and  C_10
REMARK    7  A    between atoms: C_10  and  C_11
REMARK    8  A    between atoms: S_17  and  C_18
REMARK    9  A    between atoms: C_18  and  C_19
REMARK   10  A    between atoms: C_22  and  C_24
REMARK   11  A    between atoms: N_30  and  C_31
REMARK   12  A    between atoms: N_30  and  C_32
REMARK                            x       y       z     vdW  Elec       q    Type
REMARK                         _______ _______ _______ _____ _____    ______ ____
ROOT
ATOM      1  C   UNL     1      -0.081   1.280   0.168  0.00  0.00    +0.121 A 
ATOM      2  N   UNL     1      -0.107  -0.001   0.409  0.00  0.00    -0.135 NA
ATOM      3  N   UNL     1       1.091  -0.466   0.450  0.00  0.00    -0.123 NA
ATOM      4  C   UNL     1       1.952   0.501   0.235  0.00  0.00    +0.192 A 
ATOM      5  N   UNL     1       1.231   1.645   0.049  0.00  0.00    -0.303 N 
ENDROOT
BRANCH   1   6
ATOM      6  C   UNL     1      -1.277   2.188   0.038  0.00  0.00    +0.000 C 
BRANCH   6   7
ATOM      7  N   UNL     1      -2.174   1.671  -1.004  0.00  0.00    +0.383 N 
ATOM      8  C   UNL     1      -1.543   1.754  -2.329  0.00  0.00    -0.096 C 
ATOM      9  C   UNL     1      -2.591   0.295  -0.705  0.00  0.00    -0.096 C 
ATOM     10  H   UNL     1      -3.074   2.303  -1.018  0.00  0.00    -0.082 HD
ENDBRANCH   6   7
BRANCH   6  12
ATOM     11  C   UNL     1      -3.201   3.213   1.260  0.00  0.00    +0.002 C 
ATOM     12  C   UNL     1      -2.024   2.242   1.373  0.00  0.00    -0.011 C 
ENDBRANCH   6  12
ENDBRANCH   1   6
BRANCH   5  13
ATOM     13  C   UNL     1       1.754   2.986  -0.224  0.00  0.00    +0.160 C 
BRANCH  13  14
ATOM     14  C   UNL     1       1.988   3.708   1.078  0.00  0.00    -0.028 A 
ATOM     15  C   UNL     1       0.980   4.473   1.635  0.00  0.00    +0.005 A 
ATOM     16  C   UNL     1       1.192   5.131   2.832  0.00  0.00    +0.000 A 
ATOM     17  C   UNL     1       2.417   5.034   3.466  0.00  0.00    +0.000 A 
ATOM     18  C   UNL     1       3.427   4.274   2.906  0.00  0.00    +0.000 A 
ATOM     19  C   UNL     1       3.212   3.611   1.712  0.00  0.00    +0.005 A 
ENDBRANCH  13  14
ENDBRANCH   5  13
BRANCH   4  20
ATOM     20  S   UNL     1       3.707   0.351   0.196  0.00  0.00    -0.076 S 
BRANCH  20  21
ATOM     21  C   UNL     1       3.878  -1.421   0.523  0.00  0.00    +0.175 C 
BRANCH  21  22
ATOM     22  C   UNL     1       5.339  -1.791   0.536  0.00  0.00    +0.228 A 
ATOM     23  N   UNL     1       6.126  -1.780   1.575  0.00  0.00    -0.111 NA
ATOM     24  N   UNL     1       7.306  -2.155   1.227  0.00  0.00    -0.107 NA
ATOM     25  C   UNL     1       7.315  -2.413  -0.063  0.00  0.00    +0.255 A 
ATOM     26  O   UNL     1       6.068  -2.187  -0.524  0.00  0.00    -0.419 OA
BRANCH  25  27
ATOM     27  C   UNL     1       8.469  -2.865  -0.855  0.00  0.00    +0.077 A 
ATOM     28  C   UNL     1       9.765  -3.113  -0.442  0.00  0.00    +0.022 A 
ATOM     29  C   UNL     1      10.681  -3.533  -1.379  0.00  0.00    +0.024 A 
ATOM     30  C   UNL     1      10.287  -3.690  -2.670  0.00  0.00    +0.056 A 
ATOM     31  S   UNL     1       8.560  -3.242  -2.597  0.00  0.00    -0.077 S 
ATOM     32 BR   UNL     1      11.306  -4.247  -4.163  0.00  0.00    -0.043 Br
ENDBRANCH  25  27
ENDBRANCH  21  22
ENDBRANCH  20  21
ENDBRANCH   4  20
TORSDOF 9
