REMARK  Name = ZINC40227608
REMARK  1 active torsions:
REMARK  status: ('A' for Active; 'I' for Inactive)
REMARK    1  A    between atoms: C_1  and  C_2
REMARK                            x       y       z     vdW  Elec       q    Type
REMARK                         _______ _______ _______ _____ _____    ______ ____
ROOT
ATOM      1  C   UNL     1      -0.018   1.503   0.010  0.00  0.00    +0.087 C 
ATOM      2  C   UNL     1       0.002  -0.004   0.002  0.00  0.00    +0.119 A 
ATOM      3  N   UNL     1      -0.094  -0.637  -1.134  0.00  0.00    -0.196 NA
ATOM      4  C   UNL     1      -0.081  -1.975  -1.199  0.00  0.00    +0.275 A 
ATOM      5  C   UNL     1       0.036  -2.723  -0.043  0.00  0.00    +0.119 A 
ATOM      6  C   UNL     1       0.140  -2.046   1.183  0.00  0.00    +0.151 A 
ATOM      7  N   UNL     1       0.126  -0.674   1.178  0.00  0.00    -0.248 N 
ATOM      8  C   UNL     1       0.229   0.004   2.339  0.00  0.00    +0.263 A 
ATOM      9  O   UNL     1       0.212   1.225   2.348  0.00  0.00    -0.267 OA
ATOM     10  C   UNL     1       0.354  -0.711   3.530  0.00  0.00    +0.142 A 
ATOM     11  C   UNL     1       0.370  -2.100   3.485  0.00  0.00    +0.277 A 
ATOM     12  N   UNL     1       0.254  -2.728   2.318  0.00  0.00    -0.191 NA
ATOM     13  O   UNL     1       0.491  -2.814   4.629  0.00  0.00    -0.266 OA
ATOM     14  O   UNL     1      -0.183  -2.595  -2.398  0.00  0.00    -0.266 OA
ENDROOT
TORSDOF 0
