REMARK  Name = ZINC59564785
REMARK  12 active torsions:
REMARK  status: ('A' for Active; 'I' for Inactive)
REMARK    1  A    between atoms: C_1  and  C_2
REMARK    2  A    between atoms: C_2  and  C_3
REMARK    3  A    between atoms: C_3  and  C_33
REMARK    4  A    between atoms: N_5  and  C_27
REMARK    5  A    between atoms: C_6  and  S_8
REMARK    6  A    between atoms: S_8  and  C_9
REMARK    7  A    between atoms: C_9  and  C_10
REMARK    8  A    between atoms: N_12  and  C_13
REMARK    9  A    between atoms: C_14  and  C_22
REMARK   10  A    between atoms: C_22  and  O_24
REMARK   11  A    between atoms: O_24  and  C_25
REMARK   12  A    between atoms: C_25  and  C_26
REMARK                            x       y       z     vdW  Elec       q    Type
REMARK                         _______ _______ _______ _____ _____    ______ ____
ROOT
ATOM      1  C   UNL     1      -0.139   0.295   5.510  0.00  0.00    +0.173 C 
ENDROOT
BRANCH   1   2
ATOM      2  C   UNL     1      -0.380   0.339   6.997  0.00  0.00    +0.228 C 
ATOM      3  O   UNL     1      -0.573  -0.689   7.610  0.00  0.00    -0.275 OA
ATOM      4  N   UNL     1      -0.382   1.521   7.645  0.00  0.00    -0.279 N 
ATOM      5  H   UNL     1      -0.228   2.343   7.154  0.00  0.00    +0.155 HD
BRANCH   4   6
ATOM      6  C   UNL     1      -0.604   1.561   9.012  0.00  0.00    +0.086 A 
ATOM      7  C   UNL     1      -0.646   2.675   9.837  0.00  0.00    +0.091 A 
ATOM      8  C   UNL     1      -0.898   2.446  11.250  0.00  0.00    -0.021 A 
ATOM      9  C   UNL     1      -1.061   1.146  11.578  0.00  0.00    -0.004 A 
ATOM     10  S   UNL     1      -0.890   0.272  10.050  0.00  0.00    -0.077 S 
ATOM     11  C   UNL     1      -1.330   0.590  12.942  0.00  0.00    +0.043 C 
ATOM     12  C   UNL     1      -1.021   1.681  13.978  0.00  0.00    +0.005 C 
ATOM     13  C   UNL     1      -1.690   2.986  13.537  0.00  0.00    +0.005 C 
ATOM     14  C   UNL     1      -0.981   3.543  12.300  0.00  0.00    +0.037 C 
BRANCH   7  15
ATOM     15  C   UNL     1      -0.446   4.025   9.307  0.00  0.00    +0.342 C 
ATOM     16  O   UNL     1      -1.398   4.673   8.916  0.00  0.00    -0.245 OA
BRANCH  15  17
ATOM     17  O   UNL     1       0.796   4.550   9.252  0.00  0.00    -0.461 OA
BRANCH  17  18
ATOM     18  C   UNL     1       0.918   5.872   8.723  0.00  0.00    +0.229 C 
ATOM     19  C   UNL     1       2.388   6.295   8.740  0.00  0.00    +0.048 C 
ENDBRANCH  17  18
ENDBRANCH  15  17
ENDBRANCH   7  15
ENDBRANCH   4   6
ENDBRANCH   1   2
BRANCH   1  20
ATOM     20  S   UNL     1      -0.198  -1.425   4.938  0.00  0.00    -0.082 S 
BRANCH  20  24
ATOM     21  C   UNL     1       0.506  -0.504   1.154  0.00  0.00    +0.104 C 
ATOM     22  N   UNL     1       0.388  -1.974   1.081  0.00  0.00    -0.209 NA
ATOM     23  N   UNL     1       0.141  -2.387   2.361  0.00  0.00    -0.213 N 
ATOM     24  C   UNL     1       0.098  -1.308   3.204  0.00  0.00    +0.151 C 
ATOM     25  N   UNL     1       0.300  -0.189   2.576  0.00  0.00    -0.348 N 
ATOM     26  C   UNL     1       1.897  -0.054   0.704  0.00  0.00    +0.053 C 
ATOM     27  H   UNL     1       1.237  -2.388   0.725  0.00  0.00    +0.147 HD
ATOM     28  H   UNL     1       0.314   0.696   2.973  0.00  0.00    +0.163 HD
BRANCH  23  29
ATOM     29  C   UNL     1      -0.042  -3.717   2.752  0.00  0.00    +0.052 A 
ATOM     30  C   UNL     1      -1.118  -4.064   3.559  0.00  0.00    +0.025 A 
ATOM     31  C   UNL     1      -1.295  -5.378   3.943  0.00  0.00    +0.002 A 
ATOM     32  C   UNL     1      -0.403  -6.349   3.526  0.00  0.00    +0.000 A 
ATOM     33  C   UNL     1       0.670  -6.007   2.723  0.00  0.00    +0.002 A 
ATOM     34  C   UNL     1       0.849  -4.695   2.330  0.00  0.00    +0.025 A 
ENDBRANCH  23  29
BRANCH  21  36
ATOM     35  C   UNL     1      -0.407   1.682   0.359  0.00  0.00    +0.007 C 
ATOM     36  C   UNL     1      -0.573   0.162   0.298  0.00  0.00    +0.042 C 
ENDBRANCH  21  36
ENDBRANCH  20  24
ENDBRANCH   1  20
TORSDOF 9
