REMARK  Name = ZINC21070325
REMARK  7 active torsions:
REMARK  status: ('A' for Active; 'I' for Inactive)
REMARK    1  A    between atoms: C_4  and  C_7
REMARK    2  A    between atoms: N_11  and  C_12
REMARK    3  A    between atoms: C_12  and  C_19
REMARK    4  A    between atoms: C_13  and  C_14
REMARK    5  A    between atoms: N_21  and  C_22
REMARK    6  A    between atoms: C_22  and  C_23
REMARK    7  A    between atoms: N_26  and  C_28
REMARK                            x       y       z     vdW  Elec       q    Type
REMARK                         _______ _______ _______ _____ _____    ______ ____
ROOT
ATOM      1  C   UNL     1       0.124   1.749   0.006  0.00  0.00    +0.134 C 
ATOM      2  C   UNL     1       1.120   2.675  -0.056  0.00  0.00    +0.079 C 
ENDROOT
BRANCH   1   7
ATOM      3  C   UNL     1      -1.895   2.401   1.286  0.00  0.00    +0.187 A 
ATOM      4  N   UNL     1      -3.111   2.768   0.938  0.00  0.00    -0.108 NA
ATOM      5  N   UNL     1      -3.233   2.766  -0.340  0.00  0.00    -0.022 NA
ATOM      6  N   UNL     1      -2.128   2.411  -0.900  0.00  0.00    -0.038 NA
ATOM      7  N   UNL     1      -1.208   2.161   0.133  0.00  0.00    -0.188 N 
BRANCH   3  11
ATOM      8  C   UNL     1      -0.397   2.044   5.246  0.00  0.00    +0.000 A 
ATOM      9  C   UNL     1      -1.558   2.759   5.011  0.00  0.00    +0.001 A 
ATOM     10  C   UNL     1      -2.049   2.879   3.727  0.00  0.00    +0.011 A 
ATOM     11  C   UNL     1      -1.373   2.277   2.665  0.00  0.00    +0.021 A 
ATOM     12  C   UNL     1      -0.207   1.552   2.910  0.00  0.00    +0.011 A 
ATOM     13  C   UNL     1       0.278   1.445   4.197  0.00  0.00    +0.001 A 
ENDBRANCH   3  11
ENDBRANCH   1   7
BRANCH   2  14
ATOM     14  C   UNL     1       0.811   4.053   0.036  0.00  0.00    +0.130 A 
ATOM     15  C   UNL     1       1.705   5.096  -0.092  0.00  0.00    +0.049 A 
ATOM     16  C   UNL     1       0.965   6.278   0.070  0.00  0.00    +0.042 A 
ATOM     17  C   UNL     1      -0.320   5.918   0.287  0.00  0.00    +0.195 A 
ATOM     18  O   UNL     1      -0.410   4.581   0.260  0.00  0.00    -0.463 OA
ENDBRANCH   2  14
BRANCH   1  19
ATOM     19  C   UNL     1       0.446   0.322  -0.068  0.00  0.00    +0.263 C 
ATOM     20  O   UNL     1       1.591  -0.034  -0.276  0.00  0.00    -0.269 OA
ATOM     21  N   UNL     1      -0.526  -0.597   0.096  0.00  0.00    -0.306 N 
ATOM     22  H   UNL     1      -1.545  -0.278   0.362  0.00  0.00    +0.149 HD
BRANCH  21  23
ATOM     23  C   UNL     1      -0.227  -2.020  -0.082  0.00  0.00    +0.143 C 
BRANCH  23  24
ATOM     24  C   UNL     1      -1.499  -2.819   0.035  0.00  0.00    +0.008 A 
ATOM     25  C   UNL     1      -2.311  -3.235  -1.026  0.00  0.00    +0.140 A 
ATOM     26  N   UNL     1      -3.320  -3.904  -0.531  0.00  0.00    -0.174 NA
ATOM     27  N   UNL     1      -3.184  -3.937   0.863  0.00  0.00    -0.240 N 
ATOM     28  C   UNL     1      -2.054  -3.268   1.185  0.00  0.00    +0.119 A 
BRANCH  27  29
ATOM     29  C   UNL     1      -4.060  -4.558   1.763  0.00  0.00    +0.065 A 
ATOM     30  C   UNL     1      -3.800  -4.519   3.127  0.00  0.00    +0.028 A 
ATOM     31  C   UNL     1      -4.667  -5.128   4.012  0.00  0.00    +0.002 A 
ATOM     32  C   UNL     1      -5.789  -5.786   3.541  0.00  0.00    +0.000 A 
ATOM     33  C   UNL     1      -6.048  -5.831   2.183  0.00  0.00    +0.002 A 
ATOM     34  C   UNL     1      -5.187  -5.219   1.294  0.00  0.00    +0.028 A 
ENDBRANCH  27  29
ENDBRANCH  23  24
ENDBRANCH  21  23
ENDBRANCH   1  19
TORSDOF 7
