REMARK  Name = ZINC63375573
REMARK  4 active torsions:
REMARK  status: ('A' for Active; 'I' for Inactive)
REMARK    1  A    between atoms: C_1  and  C_2
REMARK    2  A    between atoms: C_13  and  C_16
REMARK    3  A    between atoms: C_16  and  C_17
REMARK    4  A    between atoms: N_28  and  C_31
REMARK                            x       y       z     vdW  Elec       q    Type
REMARK                         _______ _______ _______ _____ _____    ______ ____
ROOT
ATOM      1  C   UNL     1      -0.698   0.979  -0.330  0.00  0.00    +0.044 C 
ATOM      2  C   UNL     1      -0.665  -0.517  -0.148  0.00  0.00    -0.050 A 
ATOM      3  C   UNL     1      -0.856  -1.352  -1.234  0.00  0.00    +0.005 A 
ATOM      4  C   UNL     1      -0.826  -2.721  -1.073  0.00  0.00    +0.024 A 
ATOM      5  C   UNL     1      -0.603  -3.275   0.185  0.00  0.00    +0.039 A 
ATOM      6  C   UNL     1      -0.414  -2.425   1.271  0.00  0.00    +0.004 A 
ATOM      7  C   UNL     1      -0.438  -1.058   1.105  0.00  0.00    +0.011 A 
ATOM      8  C   UNL     1      -0.210  -3.319   2.461  0.00  0.00    +0.136 C 
ATOM      9  C   UNL     1       1.143  -3.063   3.135  0.00  0.00    +0.123 C 
ATOM     10  C   UNL     1       0.868  -3.261   4.652  0.00  0.00    +0.107 C 
ATOM     11  C   UNL     1      -0.631  -3.620   4.739  0.00  0.00    +0.072 C 
ATOM     12  N   UNL     1      -1.231  -3.080   3.498  0.00  0.00    -0.295 NA
ATOM     13  C   UNL     1       1.704  -4.472   5.002  0.00  0.00    +0.232 C 
ATOM     14  O   UNL     1       1.782  -4.975   6.102  0.00  0.00    -0.274 OA
ATOM     15  N   UNL     1       2.342  -4.903   3.908  0.00  0.00    -0.210 N 
ATOM     16  C   UNL     1       2.105  -4.178   2.791  0.00  0.00    +0.233 C 
ATOM     17  O   UNL     1       2.578  -4.381   1.694  0.00  0.00    -0.274 OA
ATOM     18  C   UNL     1      -0.298  -4.719   1.918  0.00  0.00    +0.243 C 
ATOM     19  O   UNL     1      -0.186  -5.749   2.549  0.00  0.00    -0.273 OA
ATOM     20  N   UNL     1      -0.527  -4.607   0.596  0.00  0.00    -0.283 N 
ATOM     21  H   UNL     1      -1.420  -2.094   3.599  0.00  0.00    +0.124 HD
ATOM     22  H   UNL     1      -0.628  -5.364  -0.002  0.00  0.00    +0.155 HD
ENDROOT
BRANCH  15  23
ATOM     23  C   UNL     1       3.195  -6.016   3.917  0.00  0.00    +0.044 A 
ATOM     24  C   UNL     1       2.679  -7.287   4.130  0.00  0.00    +0.024 A 
ATOM     25  C   UNL     1       3.522  -8.380   4.139  0.00  0.00    +0.002 A 
ATOM     26  C   UNL     1       4.879  -8.211   3.934  0.00  0.00    +0.000 A 
ATOM     27  C   UNL     1       5.396  -6.946   3.721  0.00  0.00    +0.002 A 
ATOM     28  C   UNL     1       4.557  -5.849   3.706  0.00  0.00    +0.024 A 
ENDBRANCH  15  23
BRANCH  11  29
ATOM     29  C   UNL     1      -1.260  -2.981   5.979  0.00  0.00    +0.052 C 
BRANCH  29  30
ATOM     30  C   UNL     1      -2.688  -3.442   6.112  0.00  0.00    -0.040 C 
ATOM     31  C   UNL     1      -3.144  -4.472   6.861  0.00  0.00    -0.001 A 
ATOM     32  C   UNL     1      -2.472  -5.434   7.743  0.00  0.00    +0.010 A 
ATOM     33  C   UNL     1      -3.212  -6.374   8.373  0.00  0.00    +0.001 A 
ATOM     34  C   UNL     1      -4.602  -6.453   8.206  0.00  0.00    +0.002 A 
ATOM     35  C   UNL     1      -5.290  -5.604   7.413  0.00  0.00    +0.026 A 
ATOM     36  C   UNL     1      -4.612  -4.576   6.702  0.00  0.00    +0.043 A 
ATOM     37  N   UNL     1      -5.047  -3.647   5.885  0.00  0.00    -0.380 N 
ATOM     38  C   UNL     1      -3.903  -2.844   5.438  0.00  0.00    +0.144 C 
ATOM     39  H   UNL     1      -5.971  -3.511   5.623  0.00  0.00    +0.160 HD
ENDBRANCH  29  30
ENDBRANCH  11  29
TORSDOF 3
