REMARK  Name = ZINC04147723
REMARK  5 active torsions:
REMARK  status: ('A' for Active; 'I' for Inactive)
REMARK    1  A    between atoms: C_1  and  C_2
REMARK    2  A    between atoms: C_7  and  N_8
REMARK    3  A    between atoms: C_9  and  C_11
REMARK    4  A    between atoms: C_12  and  C_26
REMARK    5  A    between atoms: C_17  and  C_19
REMARK                            x       y       z     vdW  Elec       q    Type
REMARK                         _______ _______ _______ _____ _____    ______ ____
ROOT
ATOM      1  C   UNL     1      -1.312   2.656   0.250  0.00  0.00    +0.056 C 
ATOM      2  C   UNL     1      -1.100   1.536   0.972  0.00  0.00    +0.019 C 
ATOM      3  N   UNL     1       0.131   0.945   1.012  0.00  0.00    -0.273 N 
ATOM      4  C   UNL     1       1.198   1.406   0.346  0.00  0.00    +0.304 C 
ATOM      5  O   UNL     1       2.252   0.808   0.439  0.00  0.00    -0.252 OA
ATOM      6  N   UNL     1       1.140   2.512  -0.421  0.00  0.00    -0.288 N 
ATOM      7  C   UNL     1      -0.143   3.228  -0.525  0.00  0.00    +0.142 C 
ATOM      8  C   UNL     1      -2.238   0.932   1.754  0.00  0.00    +0.061 C 
ATOM      9  H   UNL     1       0.237   0.143   1.548  0.00  0.00    +0.156 HD
ATOM     10  H   UNL     1       1.925   2.829  -0.895  0.00  0.00    +0.151 HD
ENDROOT
BRANCH   7  11
ATOM     11  C   UNL     1       0.076   4.644  -0.059  0.00  0.00    -0.022 A 
ATOM     12  C   UNL     1       0.776   4.886   1.108  0.00  0.00    +0.008 A 
ATOM     13  C   UNL     1       0.982   6.185   1.534  0.00  0.00    +0.038 A 
ATOM     14  C   UNL     1       0.477   7.243   0.797  0.00  0.00    +0.123 A 
ATOM     15  C   UNL     1      -0.229   6.998  -0.369  0.00  0.00    +0.038 A 
ATOM     16  C   UNL     1      -0.428   5.699  -0.796  0.00  0.00    +0.008 A 
ATOM     17  F   UNL     1       0.672   8.512   1.216  0.00  0.00    -0.205 F 
ENDBRANCH   7  11
BRANCH   1  19
ATOM     18  N   UNL     1      -3.046   3.937   1.293  0.00  0.00    -0.281 N 
ATOM     19  C   UNL     1      -2.587   3.273   0.213  0.00  0.00    +0.248 C 
ATOM     20  O   UNL     1      -3.268   3.204  -0.794  0.00  0.00    -0.270 OA
ATOM     21  H   UNL     1      -2.468   4.074   2.059  0.00  0.00    +0.155 HD
BRANCH  18  28
ATOM     22  C   UNL     1      -4.412   4.043   3.786  0.00  0.00    +0.045 C 
ATOM     23  C   UNL     1      -5.059   4.497   2.503  0.00  0.00    -0.029 A 
ATOM     24  C   UNL     1      -6.350   4.988   2.514  0.00  0.00    +0.005 A 
ATOM     25  C   UNL     1      -6.946   5.399   1.337  0.00  0.00    +0.000 A 
ATOM     26  C   UNL     1      -6.250   5.325   0.144  0.00  0.00    +0.002 A 
ATOM     27  C   UNL     1      -4.957   4.841   0.126  0.00  0.00    +0.023 A 
ATOM     28  C   UNL     1      -4.355   4.428   1.307  0.00  0.00    +0.037 A 
ENDBRANCH  18  28
ENDBRANCH   1  19
TORSDOF 3
