REMARK  Name = ZINC39636048
REMARK  9 active torsions:
REMARK  status: ('A' for Active; 'I' for Inactive)
REMARK    1  A    between atoms: C_1  and  C_2
REMARK    2  A    between atoms: C_4  and  C_11
REMARK    3  A    between atoms: N_5  and  C_7
REMARK    4  A    between atoms: C_7  and  C_8
REMARK    5  A    between atoms: C_7  and  C_9
REMARK    6  A    between atoms: C_7  and  C_10
REMARK    7  A    between atoms: C_15  and  C_24
REMARK    8  A    between atoms: N_26  and  C_27
REMARK    9  A    between atoms: C_33  and  C_35
REMARK                            x       y       z     vdW  Elec       q    Type
REMARK                         _______ _______ _______ _____ _____    ______ ____
ROOT
ATOM      1  C   UNL     1      -0.654  -4.127  -1.225  0.00  0.00    +0.265 C 
ATOM      2  O   UNL     1      -0.919  -3.987  -2.404  0.00  0.00    -0.268 OA
ATOM      3  N   UNL     1      -0.801  -5.332  -0.639  0.00  0.00    -0.295 N 
ATOM      4  C   UNL     1      -0.659  -5.667   0.797  0.00  0.00    +0.121 C 
ATOM      5  C   UNL     1      -1.789  -6.683   1.075  0.00  0.00    +0.100 C 
ATOM      6  C   UNL     1      -2.101  -7.307  -0.296  0.00  0.00    -0.004 C 
ATOM      7  C   UNL     1      -1.150  -6.620  -1.285  0.00  0.00    +0.115 C 
ATOM      8  C   UNL     1      -3.550  -7.029  -0.686  0.00  0.00    -0.010 C 
ATOM      9  C   UNL     1      -3.852  -7.707  -2.025  0.00  0.00    -0.082 C 
ATOM     10  N   UNL     1      -3.626  -9.153  -1.905  0.00  0.00    +0.379 N 
ATOM     11  C   UNL     1      -2.210  -9.416  -1.621  0.00  0.00    -0.082 C 
ATOM     12  C   UNL     1      -1.838  -8.809  -0.265  0.00  0.00    -0.010 C 
ATOM     13  H   UNL     1      -4.192  -9.519  -1.155  0.00  0.00    -0.086 HD
ATOM     14  H   UNL     1      -3.884  -9.605  -2.769  0.00  0.00    -0.086 HD
ENDROOT
BRANCH   1  18
ATOM     15  C   UNL     1       1.217  -1.185   2.458  0.00  0.00    +0.067 C 
ATOM     16  C   UNL     1       0.644  -1.684   1.157  0.00  0.00    +0.061 A 
ATOM     17  C   UNL     1       0.316  -3.008   0.857  0.00  0.00    +0.057 A 
ATOM     18  C   UNL     1      -0.171  -2.981  -0.439  0.00  0.00    +0.124 A 
ATOM     19  N   UNL     1      -0.112  -1.677  -0.841  0.00  0.00    -0.254 N 
ATOM     20  N   UNL     1       0.360  -0.953   0.109  0.00  0.00    -0.175 NA
BRANCH  19  21
ATOM     21  C   UNL     1      -0.529  -1.179  -2.154  0.00  0.00    +0.056 C 
ATOM     22  C   UNL     1      -1.978  -1.594  -2.420  0.00  0.00    +0.036 C 
ATOM     23  C   UNL     1      -0.423   0.347  -2.178  0.00  0.00    +0.036 C 
ATOM     24  C   UNL     1       0.378  -1.770  -3.235  0.00  0.00    +0.036 C 
ENDBRANCH  19  21
ENDBRANCH   1  18
BRANCH   5  25
ATOM     25  C   UNL     1      -1.319  -7.740   2.041  0.00  0.00    +0.218 C 
ATOM     26  O   UNL     1      -0.140  -8.017   2.110  0.00  0.00    -0.275 OA
ATOM     27  N   UNL     1      -2.208  -8.379   2.827  0.00  0.00    -0.312 N 
ATOM     28  H   UNL     1      -3.158  -8.213   2.718  0.00  0.00    +0.149 HD
BRANCH  27  29
ATOM     29  C   UNL     1      -1.741  -9.323   3.845  0.00  0.00    +0.076 C 
ATOM     30  C   UNL     1      -1.381  -8.559   5.121  0.00  0.00    +0.022 C 
ATOM     31  C   UNL     1      -0.893  -9.545   6.185  0.00  0.00    +0.002 C 
ATOM     32  C   UNL     1      -2.000 -10.556   6.489  0.00  0.00    +0.000 C 
ATOM     33  C   UNL     1      -2.359 -11.319   5.213  0.00  0.00    +0.005 C 
ATOM     34  C   UNL     1      -2.848 -10.334   4.150  0.00  0.00    +0.006 C 
ATOM     35  C   UNL     1      -3.207 -11.097   2.873  0.00  0.00    +0.009 C 
ENDBRANCH  27  29
ENDBRANCH   5  25
TORSDOF 4
