REMARK  Name = ZINC09546096
REMARK  7 active torsions:
REMARK  status: ('A' for Active; 'I' for Inactive)
REMARK    1  A    between atoms: C_1  and  C_2
REMARK    2  A    between atoms: C_5  and  C_8
REMARK    3  A    between atoms: N_12  and  C_25
REMARK    4  A    between atoms: N_16  and  C_17
REMARK    5  A    between atoms: C_17  and  C_18
REMARK    6  A    between atoms: C_30  and  C_35
REMARK    7  A    between atoms: C_32  and  C_34
REMARK                            x       y       z     vdW  Elec       q    Type
REMARK                         _______ _______ _______ _____ _____    ______ ____
ROOT
ATOM      1  C   UNL     1       0.260  -1.797  -0.289  0.00  0.00    +0.193 C 
ATOM      2  C   UNL     1       0.169  -0.426   0.310  0.00  0.00    +0.241 C 
ATOM      3  O   UNL     1       0.411   0.533  -0.393  0.00  0.00    -0.273 OA
ATOM      4  N   UNL     1      -0.162  -0.216   1.588  0.00  0.00    -0.288 N 
ATOM      5  C   UNL     1      -0.477  -1.298   2.510  0.00  0.00    +0.204 C 
ATOM      6  C   UNL     1       0.064  -2.607   2.019  0.00  0.00    +0.234 C 
ATOM      7  O   UNL     1       0.207  -3.512   2.813  0.00  0.00    -0.274 OA
ATOM      8  N   UNL     1       0.396  -2.818   0.741  0.00  0.00    -0.280 N 
ENDROOT
BRANCH   4   9
ATOM      9  C   UNL     1      -0.217   1.163   2.080  0.00  0.00    +0.080 C 
ATOM     10  C   UNL     1       1.160   1.813   1.929  0.00  0.00    +0.023 C 
ATOM     11  C   UNL     1       1.103   3.253   2.443  0.00  0.00    +0.002 C 
ATOM     12  C   UNL     1       0.073   4.043   1.633  0.00  0.00    +0.003 C 
ATOM     13  C   UNL     1      -1.304   3.393   1.785  0.00  0.00    -0.009 C 
ATOM     14  C   UNL     1      -1.247   1.953   1.271  0.00  0.00    +0.009 C 
ATOM     15  C   UNL     1      -2.623   1.302   1.422  0.00  0.00    +0.009 C 
ATOM     16  C   UNL     1      -1.707   3.391   3.261  0.00  0.00    +0.008 C 
ENDBRANCH   4   9
BRANCH   1  21
ATOM     17  C   UNL     1      -4.531  -2.824  -3.352  0.00  0.00    +0.044 C 
ATOM     18  C   UNL     1      -3.281  -2.557  -2.554  0.00  0.00    -0.050 A 
ATOM     19  C   UNL     1      -2.130  -2.134  -3.192  0.00  0.00    +0.004 A 
ATOM     20  C   UNL     1      -0.984  -1.888  -2.459  0.00  0.00    +0.006 A 
ATOM     21  C   UNL     1      -0.990  -2.065  -1.088  0.00  0.00    -0.018 A 
ATOM     22  C   UNL     1      -2.139  -2.493  -0.450  0.00  0.00    +0.006 A 
ATOM     23  C   UNL     1      -3.286  -2.734  -1.183  0.00  0.00    +0.004 A 
ENDBRANCH   1  21
BRANCH   8  24
ATOM     24  C   UNL     1       0.918  -4.133   0.360  0.00  0.00    +0.145 C 
BRANCH  24  25
ATOM     25  C   UNL     1      -0.229  -5.078   0.117  0.00  0.00    -0.012 A 
ATOM     26  C   UNL     1      -1.409  -4.930   0.823  0.00  0.00    +0.006 A 
ATOM     27  C   UNL     1      -2.462  -5.798   0.600  0.00  0.00    +0.000 A 
ATOM     28  C   UNL     1      -2.336  -6.814  -0.328  0.00  0.00    +0.001 A 
ATOM     29  C   UNL     1      -1.157  -6.964  -1.034  0.00  0.00    +0.020 A 
ATOM     30  C   UNL     1      -0.105  -6.092  -0.815  0.00  0.00    +0.046 A 
ATOM     31 CL   UNL     1       1.374  -6.275  -1.707  0.00  0.00    -0.083 Cl
ENDBRANCH  24  25
ENDBRANCH   8  24
TORSDOF 4
