REMARK  Name = ZINC35910509
REMARK  10 active torsions:
REMARK  status: ('A' for Active; 'I' for Inactive)
REMARK    1  A    between atoms: C_1  and  C_2
REMARK    2  A    between atoms: C_6  and  N_8
REMARK    3  A    between atoms: C_9  and  C_15
REMARK    4  A    between atoms: C_19  and  N_21
REMARK    5  A    between atoms: N_21  and  S_22
REMARK    6  A    between atoms: S_22  and  C_25
REMARK    7  A    between atoms: C_28  and  C_31
REMARK    8  A    between atoms: C_31  and  C_32
REMARK    9  A    between atoms: C_31  and  C_33
REMARK   10  A    between atoms: C_31  and  C_34
REMARK                            x       y       z     vdW  Elec       q    Type
REMARK                         _______ _______ _______ _____ _____    ______ ____
ROOT
ATOM      1  C   UNL     1      -1.137  -4.749   1.487  0.00  0.00    -0.015 A 
ATOM      2  C   UNL     1      -2.255  -3.961   1.283  0.00  0.00    +0.006 A 
ATOM      3  C   UNL     1      -3.270  -4.397   0.452  0.00  0.00    +0.002 A 
ATOM      4  C   UNL     1      -3.171  -5.622  -0.177  0.00  0.00    +0.024 A 
ATOM      5  C   UNL     1      -2.050  -6.417   0.025  0.00  0.00    +0.048 A 
ATOM      6  C   UNL     1      -1.029  -5.973   0.857  0.00  0.00    +0.030 A 
ENDROOT
BRANCH   1   8
ATOM      7  N   UNL     1       0.052  -2.797   2.393  0.00  0.00    -0.254 N 
ATOM      8  C   UNL     1      -0.033  -4.270   2.394  0.00  0.00    +0.170 C 
ATOM      9  S   UNL     1      -0.434  -4.607   4.163  0.00  0.00    -0.124 S 
ATOM     10  C   UNL     1       0.149  -2.985   4.821  0.00  0.00    +0.167 C 
ATOM     11  C   UNL     1       0.149  -2.152   3.548  0.00  0.00    +0.231 C 
ATOM     12  O   UNL     1       0.231  -0.943   3.588  0.00  0.00    -0.274 OA
BRANCH   7  18
ATOM     13  C   UNL     1      -2.071   0.537  -0.531  0.00  0.00    +0.044 C 
ATOM     14  C   UNL     1      -0.981  -0.467  -0.257  0.00  0.00    -0.049 A 
ATOM     15  C   UNL     1       0.006  -0.689  -1.200  0.00  0.00    +0.003 A 
ATOM     16  C   UNL     1       1.008  -1.609  -0.953  0.00  0.00    +0.002 A 
ATOM     17  C   UNL     1       1.026  -2.310   0.237  0.00  0.00    +0.023 A 
ATOM     18  C   UNL     1       0.037  -2.089   1.186  0.00  0.00    +0.038 A 
ATOM     19  C   UNL     1      -0.965  -1.160   0.937  0.00  0.00    +0.027 A 
ENDBRANCH   7  18
ENDBRANCH   1   8
BRANCH   5  20
ATOM     20  N   UNL     1      -1.946  -7.656  -0.610  0.00  0.00    -0.216 N 
ATOM     21  H   UNL     1      -1.649  -8.434  -0.112  0.00  0.00    +0.174 HD
BRANCH  20  22
ATOM     22  S   UNL     1      -2.331  -7.800  -2.214  0.00  0.00    +0.072 S 
ATOM     23  O   UNL     1      -2.101  -9.156  -2.568  0.00  0.00    -0.150 OA
ATOM     24  O   UNL     1      -3.594  -7.171  -2.387  0.00  0.00    -0.150 OA
BRANCH  22  25
ATOM     25  C   UNL     1      -1.163  -6.838  -3.118  0.00  0.00    +0.109 A 
ATOM     26  C   UNL     1      -1.420  -5.506  -3.381  0.00  0.00    +0.029 A 
ATOM     27  C   UNL     1      -0.504  -4.752  -4.090  0.00  0.00    +0.006 A 
ATOM     28  C   UNL     1       0.670  -5.330  -4.536  0.00  0.00    -0.042 A 
ATOM     29  C   UNL     1       0.927  -6.663  -4.272  0.00  0.00    +0.006 A 
ATOM     30  C   UNL     1       0.013  -7.415  -3.560  0.00  0.00    +0.029 A 
BRANCH  28  31
ATOM     31  C   UNL     1       1.668  -4.508  -5.309  0.00  0.00    -0.013 C 
ATOM     32  C   UNL     1       2.139  -3.334  -4.449  0.00  0.00    +0.015 C 
ATOM     33  C   UNL     1       2.869  -5.381  -5.681  0.00  0.00    +0.015 C 
ATOM     34  C   UNL     1       1.011  -3.975  -6.584  0.00  0.00    +0.015 C 
ENDBRANCH  28  31
ENDBRANCH  22  25
ENDBRANCH  20  22
ENDBRANCH   5  20
TORSDOF 6
