REMARK  Name = ZINC17110387
REMARK  2 active torsions:
REMARK  status: ('A' for Active; 'I' for Inactive)
REMARK    1  A    between atoms: C_3  and  N_8
REMARK    2  A    between atoms: N_15  and  C_16
REMARK                            x       y       z     vdW  Elec       q    Type
REMARK                         _______ _______ _______ _____ _____    ______ ____
ROOT
ATOM      1  N   UNL     1       3.563   2.106  -0.021  0.00  0.00    -0.226 NA
ATOM      2  C   UNL     1       4.548   1.744   0.773  0.00  0.00    +0.165 C 
ATOM      3  N   UNL     1       4.373   0.663   1.594  0.00  0.00    -0.322 N 
ATOM      4  C   UNL     1       4.152   0.963   3.022  0.00  0.00    +0.122 C 
ATOM      5  C   UNL     1       5.426   1.583   3.622  0.00  0.00    +0.122 C 
ATOM      6  N   UNL     1       5.182   2.965   3.926  0.00  0.00    -0.322 N 
ATOM      7  C   UNL     1       4.544   3.816   3.035  0.00  0.00    +0.165 C 
ATOM      8  N   UNL     1       3.278   4.148   3.174  0.00  0.00    -0.226 NA
ATOM      9  S   UNL     1       5.542   4.435   1.683  0.00  0.00    -0.014 S 
ATOM     10  S   UNL     1       6.040   2.657   0.740  0.00  0.00    -0.014 S 
ATOM     11  H   UNL     1       4.392  -0.246   1.258  0.00  0.00    +0.148 HD
ATOM     12  H   UNL     1       5.472   3.315   4.783  0.00  0.00    +0.148 HD
ENDROOT
BRANCH   1  15
ATOM     13  C   UNL     1      -0.017   1.379   0.010  0.00  0.00    +0.003 A 
ATOM     14  C   UNL     1       1.166   2.089   0.002  0.00  0.00    +0.028 A 
ATOM     15  C   UNL     1       2.386   1.408  -0.013  0.00  0.00    +0.068 A 
ATOM     16  C   UNL     1       2.398   0.011  -0.021  0.00  0.00    +0.047 A 
ATOM     17  C   UNL     1       1.207  -0.686  -0.013  0.00  0.00    +0.043 A 
ATOM     18  C   UNL     1       0.002  -0.004   0.002  0.00  0.00    +0.020 A 
ATOM     19 CL   UNL     1       1.220  -2.422  -0.023  0.00  0.00    -0.083 Cl
ENDBRANCH   1  15
BRANCH   8  20
ATOM     20  C   UNL     1       2.688   4.990   2.271  0.00  0.00    +0.068 A 
ATOM     21  C   UNL     1       3.353   6.144   1.851  0.00  0.00    +0.028 A 
ATOM     22  C   UNL     1       2.753   6.989   0.940  0.00  0.00    +0.003 A 
ATOM     23  C   UNL     1       1.496   6.696   0.443  0.00  0.00    +0.020 A 
ATOM     24  C   UNL     1       0.830   5.553   0.855  0.00  0.00    +0.043 A 
ATOM     25  C   UNL     1       1.422   4.696   1.762  0.00  0.00    +0.047 A 
ATOM     26 CL   UNL     1      -0.747   5.194   0.226  0.00  0.00    -0.083 Cl
ENDBRANCH   8  20
TORSDOF 2
