REMARK  Name = ZINC19926237
REMARK  9 active torsions:
REMARK  status: ('A' for Active; 'I' for Inactive)
REMARK    1  A    between atoms: C_1  and  C_2
REMARK    2  A    between atoms: C_5  and  N_8
REMARK    3  A    between atoms: N_8  and  C_9
REMARK    4  A    between atoms: N_8  and  S_24
REMARK    5  A    between atoms: C_9  and  C_10
REMARK    6  A    between atoms: N_12  and  N_13
REMARK    7  A    between atoms: C_14  and  C_15
REMARK    8  A    between atoms: C_20  and  N_21
REMARK    9  A    between atoms: S_24  and  C_27
REMARK                            x       y       z     vdW  Elec       q    Type
REMARK                         _______ _______ _______ _____ _____    ______ ____
ROOT
ATOM      1  N   UNL     1       0.169  -3.920  -0.117  0.00  0.00    -0.194 N 
ENDROOT
BRANCH   1   6
ATOM      2  C   UNL     1       0.242   1.747  -0.306  0.00  0.00    +0.044 C 
ATOM      3  C   UNL     1       0.223   0.241  -0.256  0.00  0.00    -0.050 A 
ATOM      4  C   UNL     1      -0.558  -0.469  -1.150  0.00  0.00    +0.005 A 
ATOM      5  C   UNL     1      -0.578  -1.849  -1.106  0.00  0.00    +0.025 A 
ATOM      6  C   UNL     1       0.187  -2.524  -0.164  0.00  0.00    +0.052 A 
ATOM      7  C   UNL     1       0.970  -1.808   0.732  0.00  0.00    +0.025 A 
ATOM      8  C   UNL     1       0.990  -0.428   0.680  0.00  0.00    +0.005 A 
ENDBRANCH   1   6
BRANCH   1   9
ATOM      9  S   UNL     1      -0.305  -4.696   1.267  0.00  0.00    +0.075 S 
ATOM     10  O   UNL     1       0.394  -5.932   1.299  0.00  0.00    -0.150 OA
ATOM     11  O   UNL     1      -0.216  -3.743   2.318  0.00  0.00    -0.150 OA
BRANCH   9  12
ATOM     12  C   UNL     1      -2.013  -5.087   1.086  0.00  0.00    +0.109 A 
ATOM     13  C   UNL     1      -2.976  -4.186   1.500  0.00  0.00    +0.030 A 
ATOM     14  C   UNL     1      -4.316  -4.493   1.358  0.00  0.00    +0.022 A 
ATOM     15  C   UNL     1      -4.694  -5.702   0.802  0.00  0.00    +0.041 A 
ATOM     16  C   UNL     1      -3.730  -6.604   0.389  0.00  0.00    +0.022 A 
ATOM     17  C   UNL     1      -2.390  -6.294   0.526  0.00  0.00    +0.030 A 
ATOM     18 CL   UNL     1      -6.377  -6.089   0.625  0.00  0.00    -0.084 Cl
ENDBRANCH   9  12
ENDBRANCH   1   9
BRANCH   1  19
ATOM     19  C   UNL     1       0.569  -4.697  -1.292  0.00  0.00    +0.228 C 
BRANCH  19  20
ATOM     20  C   UNL     1       2.067  -4.862  -1.300  0.00  0.00    +0.251 C 
ATOM     21  O   UNL     1       2.735  -4.376  -0.412  0.00  0.00    -0.272 OA
ATOM     22  N   UNL     1       2.664  -5.547  -2.295  0.00  0.00    -0.206 N 
ATOM     23  H   UNL     1       2.130  -5.935  -3.006  0.00  0.00    +0.177 HD
BRANCH  22  24
ATOM     24  N   UNL     1       4.057  -5.700  -2.303  0.00  0.00    -0.188 NA
ATOM     25  C   UNL     1       4.632  -6.360  -3.260  0.00  0.00    +0.140 C 
BRANCH  25  26
ATOM     26  C   UNL     1       6.098  -6.520  -3.268  0.00  0.00    +0.025 A 
ATOM     27  C   UNL     1       6.858  -6.077  -2.183  0.00  0.00    +0.012 A 
ATOM     28  C   UNL     1       8.229  -6.231  -2.197  0.00  0.00    +0.001 A 
ATOM     29  C   UNL     1       8.851  -6.821  -3.283  0.00  0.00    +0.002 A 
ATOM     30  C   UNL     1       8.105  -7.261  -4.362  0.00  0.00    +0.033 A 
ATOM     31  C   UNL     1       6.732  -7.121  -4.358  0.00  0.00    +0.135 A 
BRANCH  31  32
ATOM     32  N   UNL     1       5.934  -7.599  -5.510  0.00  0.00    +0.057 N 
ATOM     33  O   UNL     1       6.490  -8.013  -6.500  0.00  0.00    -0.126 OA
ATOM     34  O   UNL     1       4.727  -7.576  -5.460  0.00  0.00    -0.126 OA
ENDBRANCH  31  32
ENDBRANCH  25  26
ENDBRANCH  22  24
ENDBRANCH  19  20
ENDBRANCH   1  19
TORSDOF 8
