REMARK  Name = ZINC44924401
REMARK  6 active torsions:
REMARK  status: ('A' for Active; 'I' for Inactive)
REMARK    1  A    between atoms: C_1  and  C_2
REMARK    2  A    between atoms: C_2  and  N_9
REMARK    3  A    between atoms: N_9  and  C_10
REMARK    4  A    between atoms: C_12  and  N_20
REMARK    5  A    between atoms: C_14  and  S_16
REMARK    6  A    between atoms: S_16  and  N_19
REMARK                            x       y       z     vdW  Elec       q    Type
REMARK                         _______ _______ _______ _____ _____    ______ ____
ROOT
ATOM      1  C   UNL     1       0.422  -0.209  -2.432  0.00  0.00    +0.031 A 
ATOM      2  C   UNL     1      -0.567   0.736  -2.666  0.00  0.00    +0.045 A 
ATOM      3  C   UNL     1      -0.904   1.075  -3.969  0.00  0.00    +0.028 A 
ATOM      4  C   UNL     1      -0.251   0.467  -5.035  0.00  0.00    +0.051 A 
ATOM      5  C   UNL     1       0.733  -0.473  -4.798  0.00  0.00    +0.108 A 
ATOM      6  C   UNL     1       1.075  -0.809  -3.502  0.00  0.00    +0.051 A 
ENDROOT
BRANCH   5   7
ATOM      7  S   UNL     1       1.559  -1.242  -6.152  0.00  0.00    +0.056 S 
ATOM      8  O   UNL     1       2.057  -2.483  -5.672  0.00  0.00    -0.153 OA
ATOM      9  O   UNL     1       0.682  -1.152  -7.266  0.00  0.00    -0.153 OA
BRANCH   7  10
ATOM     10  N   UNL     1       2.879  -0.309  -6.512  0.00  0.00    -0.204 NA
ATOM     11  H   UNL     1       3.061   0.493  -5.999  0.00  0.00    +0.144 HD
ATOM     12  H   UNL     1       3.471  -0.566  -7.237  0.00  0.00    +0.144 HD
ENDBRANCH   7  10
ENDBRANCH   5   7
BRANCH   3  13
ATOM     13  N   UNL     1      -1.899   2.025  -4.209  0.00  0.00    -0.358 N 
ATOM     14  H   UNL     1      -2.355   2.448  -3.465  0.00  0.00    +0.142 HD
ATOM     15  H   UNL     1      -2.135   2.261  -5.120  0.00  0.00    +0.142 HD
ENDBRANCH   3  13
BRANCH   1  16
ATOM     16  N   UNL     1       0.764  -0.553  -1.122  0.00  0.00    -0.337 N 
ATOM     17  H   UNL     1       1.530  -1.124  -0.955  0.00  0.00    +0.147 HD
BRANCH  16  19
ATOM     18  C   UNL     1      -1.478  -0.525  -0.179  0.00  0.00    +0.033 C 
ATOM     19  C   UNL     1      -0.034  -0.052  -0.001  0.00  0.00    +0.050 C 
ATOM     20  C   UNL     1       0.520  -0.645   1.294  0.00  0.00    +0.049 C 
ATOM     21  C   UNL     1       1.615   0.285   1.887  0.00  0.00    +0.168 C 
ATOM     22  S   UNL     1       0.846   1.927   1.539  0.00  0.00    -0.029 S 
ATOM     23  O   UNL     1      -0.123   2.211   2.539  0.00  0.00    -0.174 OA
ATOM     24  O   UNL     1       1.870   2.874   1.264  0.00  0.00    -0.174 OA
ATOM     25  C   UNL     1      -0.013   1.489  -0.029  0.00  0.00    +0.191 C 
ENDBRANCH  16  19
ENDBRANCH   1  16
TORSDOF 5
