REMARK  Name = ZINC49181623
REMARK  13 active torsions:
REMARK  status: ('A' for Active; 'I' for Inactive)
REMARK    1  A    between atoms: C_1  and  C_2
REMARK    2  A    between atoms: C_4  and  O_25
REMARK    3  A    between atoms: C_6  and  O_8
REMARK    4  A    between atoms: O_8  and  C_9
REMARK    5  A    between atoms: C_11  and  C_24
REMARK    6  A    between atoms: C_12  and  C_16
REMARK    7  A    between atoms: C_13  and  O_15
REMARK    8  A    between atoms: C_16  and  C_17
REMARK    9  A    between atoms: C_17  and  C_19
REMARK   10  A    between atoms: C_17  and  O_23
REMARK   11  A    between atoms: C_19  and  C_20
REMARK   12  A    between atoms: C_19  and  C_21
REMARK   13  A    between atoms: C_19  and  O_22
REMARK                            x       y       z     vdW  Elec       q    Type
REMARK                         _______ _______ _______ _____ _____    ______ ____
ROOT
ATOM      1  C   UNL     1       0.173  -4.124   2.309  0.00  0.00    +0.132 A 
ATOM      2  C   UNL     1       0.180  -4.870   3.480  0.00  0.00    +0.050 A 
ATOM      3  C   UNL     1       0.305  -6.245   3.424  0.00  0.00    -0.040 A 
ATOM      4  C   UNL     1       0.422  -6.881   2.203  0.00  0.00    -0.000 A 
ATOM      5  C   UNL     1       0.415  -6.141   1.029  0.00  0.00    +0.124 A 
ATOM      6  C   UNL     1       0.284  -4.761   1.082  0.00  0.00    +0.092 A 
ATOM      7  C   UNL     1       0.314  -7.051   4.697  0.00  0.00    +0.044 C 
ENDROOT
BRANCH   5   8
ATOM      8  O   UNL     1       0.531  -6.767  -0.171  0.00  0.00    -0.506 OA
ATOM      9  H   UNL     1      -0.315  -7.026  -0.562  0.00  0.00    +0.292 HD
ENDBRANCH   5   8
BRANCH   1  10
ATOM     10  O   UNL     1       0.050  -2.772   2.364  0.00  0.00    -0.456 OA
BRANCH  10  16
ATOM     11  C   UNL     1       2.521  -1.596   6.406  0.00  0.00    +0.044 C 
ATOM     12  C   UNL     1       1.256  -1.586   5.586  0.00  0.00    -0.044 A 
ATOM     13  C   UNL     1       0.120  -0.974   6.080  0.00  0.00    +0.049 A 
ATOM     14  C   UNL     1      -1.046  -0.963   5.328  0.00  0.00    +0.121 A 
ATOM     15  C   UNL     1      -1.070  -1.566   4.080  0.00  0.00    +0.091 A 
ATOM     16  C   UNL     1       0.071  -2.179   3.587  0.00  0.00    +0.132 A 
ATOM     17  C   UNL     1       1.236  -2.183   4.341  0.00  0.00    +0.050 A 
BRANCH  14  18
ATOM     18  O   UNL     1      -2.163  -0.361   5.814  0.00  0.00    -0.507 OA
ATOM     19  H   UNL     1      -2.239   0.575   5.582  0.00  0.00    +0.292 HD
ENDBRANCH  14  18
ENDBRANCH  10  16
ENDBRANCH   1  10
BRANCH   4  20
ATOM     20  C   UNL     1       0.558  -8.381   2.146  0.00  0.00    +0.073 C 
BRANCH  20  21
ATOM     21  C   UNL     1      -0.831  -9.016   2.055  0.00  0.00    +0.150 C 
BRANCH  21  22
ATOM     22  C   UNL     1      -0.690 -10.528   1.872  0.00  0.00    +0.087 C 
ATOM     23  C   UNL     1       0.064 -11.118   3.065  0.00  0.00    +0.043 C 
ATOM     24  C   UNL     1      -2.079 -11.163   1.781  0.00  0.00    +0.043 C 
BRANCH  22  25
ATOM     25  O   UNL     1       0.036 -10.796   0.670  0.00  0.00    -0.387 OA
ATOM     26  H   UNL     1      -0.384 -10.450  -0.129  0.00  0.00    +0.210 HD
ENDBRANCH  22  25
ENDBRANCH  21  22
BRANCH  21  27
ATOM     27  O   UNL     1      -1.557  -8.748   3.256  0.00  0.00    -0.389 OA
ATOM     28  H   UNL     1      -1.136  -9.094   4.056  0.00  0.00    +0.210 HD
ENDBRANCH  21  27
ENDBRANCH  20  21
ENDBRANCH   4  20
TORSDOF 9
