REMARK  Name = ZINC35781246
REMARK  11 active torsions:
REMARK  status: ('A' for Active; 'I' for Inactive)
REMARK    1  A    between atoms: C_1  and  C_2
REMARK    2  A    between atoms: C_7  and  O_8
REMARK    3  A    between atoms: O_8  and  C_9
REMARK    4  A    between atoms: C_9  and  C_10
REMARK    5  A    between atoms: C_10  and  C_12
REMARK    6  A    between atoms: C_10  and  O_37
REMARK    7  A    between atoms: C_12  and  N_13
REMARK    8  A    between atoms: N_13  and  C_14
REMARK    9  A    between atoms: N_13  and  C_20
REMARK   10  A    between atoms: C_14  and  C_15
REMARK   11  A    between atoms: C_20  and  C_21
REMARK                            x       y       z     vdW  Elec       q    Type
REMARK                         _______ _______ _______ _____ _____    ______ ____
ROOT
ATOM      1  N   UNL     1      -0.319   0.473   7.236  0.00  0.00    +0.391 N 
ATOM      2  H   UNL     1      -1.036   1.155   7.043  0.00  0.00    -0.080 HD
ENDROOT
BRANCH   1   3
ATOM      3  C   UNL     1      -0.375  -0.595   6.228  0.00  0.00    -0.043 C 
BRANCH   3   4
ATOM      4  C   UNL     1      -1.790  -1.174   6.177  0.00  0.00    +0.135 C 
BRANCH   4   5
ATOM      5  O   UNL     1      -2.711  -0.150   5.794  0.00  0.00    -0.390 OA
ATOM      6  H   UNL     1      -2.571   0.189   4.899  0.00  0.00    +0.210 HD
ENDBRANCH   4   5
BRANCH   4   7
ATOM      7  C   UNL     1      -1.839  -2.312   5.156  0.00  0.00    +0.258 C 
BRANCH   7   8
ATOM      8  O   UNL     1      -3.128  -2.929   5.192  0.00  0.00    -0.489 OA
BRANCH   8  15
ATOM      9  C   UNL     1      -5.668  -4.163   5.247  0.00  0.00    +0.047 C 
ATOM     10  C   UNL     1      -4.567  -4.611   4.321  0.00  0.00    -0.009 A 
ATOM     11  C   UNL     1      -4.782  -5.661   3.449  0.00  0.00    +0.007 A 
ATOM     12  C   UNL     1      -3.772  -6.073   2.600  0.00  0.00    +0.000 A 
ATOM     13  C   UNL     1      -2.545  -5.436   2.620  0.00  0.00    +0.004 A 
ATOM     14  C   UNL     1      -2.326  -4.385   3.490  0.00  0.00    +0.046 A 
ATOM     15  C   UNL     1      -3.339  -3.966   4.340  0.00  0.00    +0.124 A 
ENDBRANCH   8  15
ENDBRANCH   7   8
ENDBRANCH   4   7
ENDBRANCH   3   4
ENDBRANCH   1   3
BRANCH   1  16
ATOM     16  C   UNL     1       0.999   1.121   7.189  0.00  0.00    -0.002 C 
BRANCH  16  17
ATOM     17  C   UNL     1       1.161   1.833   5.870  0.00  0.00    +0.089 A 
ATOM     18  C   UNL     1       0.722   3.072   5.587  0.00  0.00    +0.042 A 
ATOM     19  C   UNL     1       1.087   3.339   4.247  0.00  0.00    +0.041 A 
ATOM     20  C   UNL     1       1.728   2.247   3.792  0.00  0.00    +0.195 A 
ATOM     21  O   UNL     1       1.775   1.340   4.782  0.00  0.00    -0.470 OA
ENDBRANCH  16  17
ENDBRANCH   1  16
BRANCH   1  22
ATOM     22  C   UNL     1      -0.534  -0.102   8.570  0.00  0.00    -0.003 C 
BRANCH  22  23
ATOM     23  C   UNL     1      -0.599   1.006   9.590  0.00  0.00    +0.094 A 
ATOM     24  N   UNL     1      -0.788   0.698  10.898  0.00  0.00    -0.312 N 
ATOM     25  H   UNL     1      -0.879  -0.232  11.159  0.00  0.00    +0.170 HD
ATOM     26  C   UNL     1      -0.853   1.657  11.841  0.00  0.00    +0.260 A 
ATOM     27  O   UNL     1      -1.023   1.364  13.012  0.00  0.00    -0.267 OA
ATOM     28  C   UNL     1      -0.717   3.027  11.445  0.00  0.00    +0.075 A 
ATOM     29  C   UNL     1      -0.754   4.223  12.292  0.00  0.00    -0.023 A 
ATOM     30  C   UNL     1      -0.606   5.411  11.671  0.00  0.00    -0.004 A 
ATOM     31  S   UNL     1      -0.400   5.013   9.954  0.00  0.00    -0.073 S 
ATOM     32  C   UNL     1      -0.524   3.247  10.073  0.00  0.00    +0.116 A 
ATOM     33  N   UNL     1      -0.466   2.246   9.199  0.00  0.00    -0.229 NA
ATOM     34  C   UNL     1      -0.623   6.777  12.283  0.00  0.00    +0.043 C 
ATOM     35  C   UNL     1       0.313   6.798  13.499  0.00  0.00    +0.005 C 
ATOM     36  C   UNL     1      -0.491   6.397  14.732  0.00  0.00    +0.001 C 
ATOM     37  C   UNL     1      -1.571   5.388  14.346  0.00  0.00    +0.005 C 
ATOM     38  C   UNL     1      -0.941   4.111  13.803  0.00  0.00    +0.037 C 
ENDBRANCH  22  23
ENDBRANCH   1  22
TORSDOF 10
