REMARK  Name = ZINC39634716
REMARK  11 active torsions:
REMARK  status: ('A' for Active; 'I' for Inactive)
REMARK    1  A    between atoms: C_1  and  C_2
REMARK    2  A    between atoms: C_2  and  C_3
REMARK    3  A    between atoms: C_2  and  N_4
REMARK    4  A    between atoms: N_4  and  C_5
REMARK    5  A    between atoms: N_4  and  C_31
REMARK    6  A    between atoms: C_5  and  C_6
REMARK    7  A    between atoms: C_6  and  N_7
REMARK    8  A    between atoms: C_8  and  C_10
REMARK    9  A    between atoms: C_21  and  C_23
REMARK   10  A    between atoms: C_31  and  C_32
REMARK   11  A    between atoms: C_31  and  C_33
REMARK                            x       y       z     vdW  Elec       q    Type
REMARK                         _______ _______ _______ _____ _____    ______ ____
ROOT
ATOM      1  C   UNL     1      -3.973   3.591  -3.823  0.00  0.00    +0.100 C 
ATOM      2  C   UNL     1      -5.447   3.131  -3.756  0.00  0.00    +0.121 C 
ATOM      3  N   UNL     1      -6.183   4.307  -3.236  0.00  0.00    -0.296 N 
ATOM      4  C   UNL     1      -5.546   5.466  -3.907  0.00  0.00    +0.115 C 
ATOM      5  C   UNL     1      -4.043   5.124  -3.926  0.00  0.00    -0.004 C 
ATOM      6  C   UNL     1      -3.341   5.765  -2.732  0.00  0.00    -0.010 C 
ATOM      7  C   UNL     1      -3.374   7.289  -2.886  0.00  0.00    -0.082 C 
ATOM      8  N   UNL     1      -2.705   7.671  -4.135  0.00  0.00    +0.379 N 
ATOM      9  C   UNL     1      -3.440   7.126  -5.284  0.00  0.00    -0.082 C 
ATOM     10  C   UNL     1      -3.410   5.596  -5.231  0.00  0.00    -0.010 C 
ATOM     11  C   UNL     1      -7.202   4.321  -2.354  0.00  0.00    +0.249 C 
ATOM     12  O   UNL     1      -7.555   3.288  -1.817  0.00  0.00    -0.270 OA
ATOM     13  H   UNL     1      -2.675   8.677  -4.205  0.00  0.00    -0.086 HD
ATOM     14  H   UNL     1      -1.764   7.307  -4.136  0.00  0.00    -0.086 HD
ENDROOT
BRANCH  11  15
ATOM     15  C   UNL     1      -7.889   5.588  -2.040  0.00  0.00    +0.072 A 
ATOM     16  C   UNL     1      -8.065   6.556  -3.033  0.00  0.00    +0.019 A 
ATOM     17  C   UNL     1      -8.707   7.737  -2.735  0.00  0.00    +0.039 A 
ATOM     18  C   UNL     1      -9.180   7.969  -1.451  0.00  0.00    +0.126 A 
ATOM     19  C   UNL     1      -9.010   7.016  -0.461  0.00  0.00    +0.077 A 
ATOM     20  C   UNL     1      -8.373   5.824  -0.749  0.00  0.00    +0.138 A 
ATOM     21  F   UNL     1      -8.212   4.891   0.215  0.00  0.00    -0.205 F 
ATOM     22  F   UNL     1      -9.808   9.131  -1.166  0.00  0.00    -0.205 F 
ENDBRANCH  11  15
BRANCH   1  24
ATOM     23  N   UNL     1      -1.893   3.093  -2.582  0.00  0.00    -0.317 N 
ATOM     24  C   UNL     1      -3.237   3.181  -2.573  0.00  0.00    +0.218 C 
ATOM     25  O   UNL     1      -3.856   2.931  -1.560  0.00  0.00    -0.275 OA
ATOM     26  H   UNL     1      -1.398   3.292  -3.392  0.00  0.00    +0.149 HD
BRANCH  23  27
ATOM     27  C   UNL     1      -1.178   2.695  -1.367  0.00  0.00    +0.085 C 
BRANCH  27  28
ATOM     28  C   UNL     1       0.327   2.673  -1.644  0.00  0.00    -0.059 C 
BRANCH  28  29
ATOM     29  N   UNL     1       1.033   2.134  -0.474  0.00  0.00    +0.384 N 
ATOM     30  H   UNL     1       0.635   1.241  -0.223  0.00  0.00    -0.081 HD
BRANCH  29  32
ATOM     31  C   UNL     1       0.743   4.492   0.119  0.00  0.00    -0.014 C 
ATOM     32  C   UNL     1       0.896   3.066   0.653  0.00  0.00    -0.074 C 
ATOM     33  C   UNL     1      -0.339   2.694   1.475  0.00  0.00    -0.014 C 
ENDBRANCH  29  32
BRANCH  29  34
ATOM     34  C   UNL     1       2.456   1.962  -0.797  0.00  0.00    -0.074 C 
ATOM     35  C   UNL     1       3.167   1.286   0.377  0.00  0.00    -0.014 C 
ATOM     36  C   UNL     1       2.593   1.090  -2.047  0.00  0.00    -0.014 C 
ENDBRANCH  29  34
ENDBRANCH  28  29
ENDBRANCH  27  28
ENDBRANCH  23  27
ENDBRANCH   1  24
TORSDOF 7
