REMARK  Name = ZINC36601389
REMARK  18 active torsions:
REMARK  status: ('A' for Active; 'I' for Inactive)
REMARK    1  A    between atoms: C_1  and  C_2
REMARK    2  A    between atoms: C_5  and  C_7
REMARK    3  A    between atoms: C_7  and  N_8
REMARK    4  A    between atoms: N_8  and  C_9
REMARK    5  A    between atoms: C_9  and  C_11
REMARK    6  A    between atoms: C_9  and  C_20
REMARK    7  A    between atoms: C_11  and  C_13
REMARK    8  A    between atoms: C_11  and  C_14
REMARK    9  A    between atoms: N_22  and  C_23
REMARK   10  A    between atoms: C_23  and  C_24
REMARK   11  A    between atoms: C_23  and  C_25
REMARK   12  A    between atoms: C_23  and  C_26
REMARK   13  A    between atoms: C_26  and  C_27
REMARK   14  A    between atoms: C_27  and  C_28
REMARK   15  A    between atoms: C_27  and  C_29
REMARK   16  A    between atoms: C_27  and  C_30
REMARK   17  A    between atoms: C_31  and  C_33
REMARK   18  A    between atoms: C_37  and  N_39
REMARK                            x       y       z     vdW  Elec       q    Type
REMARK                         _______ _______ _______ _____ _____    ______ ____
ROOT
ATOM      1  C   UNL     1       3.684  -2.882  -2.976  0.00  0.00    +0.170 C 
ENDROOT
BRANCH   1   2
ATOM      2  C   UNL     1       3.939  -1.398  -2.913  0.00  0.00    +0.235 C 
ATOM      3  O   UNL     1       3.509  -0.748  -1.984  0.00  0.00    -0.274 OA
ATOM      4  N   UNL     1       4.646  -0.793  -3.888  0.00  0.00    -0.309 N 
ATOM      5  H   UNL     1       4.949  -1.304  -4.655  0.00  0.00    +0.149 HD
BRANCH   4   6
ATOM      6  C   UNL     1       4.956   0.635  -3.790  0.00  0.00    +0.030 C 
ATOM      7  C   UNL     1       3.670   1.419  -3.524  0.00  0.00    +0.031 C 
ATOM      8  C   UNL     1       5.941   0.866  -2.642  0.00  0.00    +0.031 C 
BRANCH   6   9
ATOM      9  C   UNL     1       5.582   1.112  -5.103  0.00  0.00    +0.031 C 
BRANCH   9  10
ATOM     10  C   UNL     1       6.950   0.453  -5.285  0.00  0.00    -0.036 C 
ATOM     11  C   UNL     1       6.859  -1.026  -4.901  0.00  0.00    +0.010 C 
ATOM     12  C   UNL     1       7.384   0.574  -6.747  0.00  0.00    +0.010 C 
ATOM     13  C   UNL     1       7.976   1.150  -4.389  0.00  0.00    +0.010 C 
ENDBRANCH   9  10
ENDBRANCH   6   9
ENDBRANCH   4   6
ENDBRANCH   1   2
BRANCH   1  14
ATOM     14  N   UNL     1       2.278  -3.149  -2.665  0.00  0.00    -0.278 N 
ATOM     15  C   UNL     1       1.514  -3.838  -3.535  0.00  0.00    +0.248 C 
ATOM     16  O   UNL     1       1.937  -4.092  -4.646  0.00  0.00    -0.270 OA
BRANCH  15  17
ATOM     17  C   UNL     1       0.161  -4.284  -3.139  0.00  0.00    +0.039 A 
ATOM     18  C   UNL     1      -0.269  -4.133  -1.820  0.00  0.00    +0.013 A 
ATOM     19  C   UNL     1      -1.532  -4.551  -1.457  0.00  0.00    +0.003 A 
ATOM     20  C   UNL     1      -2.373  -5.120  -2.398  0.00  0.00    +0.033 A 
ATOM     21  C   UNL     1      -1.952  -5.274  -3.707  0.00  0.00    +0.127 A 
ATOM     22  C   UNL     1      -0.693  -4.854  -4.084  0.00  0.00    +0.045 A 
BRANCH  21  23
ATOM     23  N   UNL     1      -2.858  -5.885  -4.706  0.00  0.00    +0.056 N 
ATOM     24  O   UNL     1      -3.963  -6.249  -4.378  0.00  0.00    -0.126 OA
ATOM     25  O   UNL     1      -2.492  -6.020  -5.850  0.00  0.00    -0.126 OA
ENDBRANCH  21  23
ENDBRANCH  15  17
BRANCH  14  26
ATOM     26  C   UNL     1       1.702  -2.667  -1.407  0.00  0.00    +0.183 C 
BRANCH  26  31
ATOM     27  C   UNL     1       0.664  -6.563   1.625  0.00  0.00    +0.086 C 
ATOM     28  C   UNL     1       1.401  -5.422   0.972  0.00  0.00    +0.102 A 
ATOM     29  C   UNL     1       2.647  -5.015   1.273  0.00  0.00    +0.045 A 
ATOM     30  C   UNL     1       2.938  -3.923   0.423  0.00  0.00    +0.046 A 
ATOM     31  C   UNL     1       1.852  -3.728  -0.347  0.00  0.00    +0.122 A 
ATOM     32  O   UNL     1       0.926  -4.643  -0.014  0.00  0.00    -0.463 OA
ENDBRANCH  26  31
ENDBRANCH  14  26
ENDBRANCH   1  14
BRANCH   1  33
ATOM     33  C   UNL     1       4.576  -3.597  -1.960  0.00  0.00    +0.045 C 
ATOM     34  C   UNL     1       6.005  -3.059  -2.067  0.00  0.00    +0.015 C 
BRANCH  33  35
ATOM     35  C   UNL     1       4.575  -5.077  -2.244  0.00  0.00    -0.042 A 
ATOM     36  C   UNL     1       5.053  -5.550  -3.451  0.00  0.00    +0.004 A 
ATOM     37  C   UNL     1       5.051  -6.907  -3.712  0.00  0.00    +0.000 A 
ATOM     38  C   UNL     1       4.572  -7.792  -2.764  0.00  0.00    +0.000 A 
ATOM     39  C   UNL     1       4.095  -7.320  -1.556  0.00  0.00    +0.000 A 
ATOM     40  C   UNL     1       4.100  -5.962  -1.294  0.00  0.00    +0.004 A 
ENDBRANCH  33  35
ENDBRANCH   1  33
TORSDOF 11
