REMARK  Name = ZINC07132963
REMARK  3 active torsions:
REMARK  status: ('A' for Active; 'I' for Inactive)
REMARK    1  A    between atoms: C_3  and  C_6
REMARK    2  A    between atoms: C_7  and  C_8
REMARK    3  A    between atoms: C_14  and  N_18
REMARK                            x       y       z     vdW  Elec       q    Type
REMARK                         _______ _______ _______ _____ _____    ______ ____
ROOT
ATOM      1  C   UNL     1      -0.017   1.373   0.010  0.00  0.00    +0.151 A 
ATOM      2  N   UNL     1       0.002  -0.004   0.002  0.00  0.00    -0.337 N 
ATOM      3  H   UNL     1      -0.794  -0.609   0.006  0.00  0.00    +0.167 HD
ATOM      4  C   UNL     1       1.318  -0.389  -0.013  0.00  0.00    +0.067 A 
ATOM      5  C   UNL     1       1.987  -1.604  -0.026  0.00  0.00    +0.030 A 
ATOM      6  C   UNL     1       3.366  -1.623  -0.038  0.00  0.00    +0.035 A 
ATOM      7  C   UNL     1       4.108  -0.443  -0.039  0.00  0.00    +0.128 A 
ATOM      8  C   UNL     1       3.504   0.775  -0.027  0.00  0.00    +0.062 A 
ATOM      9  C   UNL     1       2.095   0.856  -0.013  0.00  0.00    +0.092 A 
ATOM     10  N   UNL     1       1.220   1.853   0.000  0.00  0.00    -0.227 NA
ENDROOT
BRANCH   1  12
ATOM     11  C   UNL     1      -1.083   3.566   0.027  0.00  0.00    +0.038 C 
ATOM     12  C   UNL     1      -1.181   2.158   0.019  0.00  0.00    +0.084 C 
ATOM     13 CL   UNL     1      -2.741   1.397   0.023  0.00  0.00    -0.080 Cl
BRANCH  11  16
ATOM     14  C   UNL     1      -3.613   6.278   0.053  0.00  0.00    +0.008 A 
ATOM     15  C   UNL     1      -2.361   5.808   0.045  0.00  0.00    +0.015 A 
ATOM     16  C   UNL     1      -2.228   4.338   0.036  0.00  0.00    +0.014 A 
ATOM     17  S   UNL     1      -3.936   3.821   0.034  0.00  0.00    -0.097 S 
ATOM     18  C   UNL     1      -4.687   5.383   0.053  0.00  0.00    +0.046 A 
ENDBRANCH  11  16
ENDBRANCH   1  12
BRANCH   7  19
ATOM     19  N   UNL     1       5.586  -0.518  -0.053  0.00  0.00    +0.056 N 
ATOM     20  O   UNL     1       6.301   0.588  -0.054  0.00  0.00    -0.126 OA
ATOM     21  O   UNL     1       6.186  -1.690  -0.065  0.00  0.00    -0.126 OA
ENDBRANCH   7  19
TORSDOF 3
