REMARK  Name = ZINC13222187
REMARK  11 active torsions:
REMARK  status: ('A' for Active; 'I' for Inactive)
REMARK    1  A    between atoms: C_1  and  C_2
REMARK    2  A    between atoms: C_4  and  C_17
REMARK    3  A    between atoms: C_5  and  C_16
REMARK    4  A    between atoms: N_6  and  C_7
REMARK    5  A    between atoms: C_17  and  C_19
REMARK    6  A    between atoms: C_19  and  S_20
REMARK    7  A    between atoms: S_20  and  C_21
REMARK    8  A    between atoms: C_25  and  C_34
REMARK    9  A    between atoms: C_26  and  C_31
REMARK   10  A    between atoms: C_27  and  C_30
REMARK   11  A    between atoms: C_31  and  C_32
REMARK                            x       y       z     vdW  Elec       q    Type
REMARK                         _______ _______ _______ _____ _____    ______ ____
ROOT
ATOM      1  C   UNL     1       2.616   7.688   0.020  0.00  0.00    +0.175 C 
ATOM      2  O   UNL     1       3.814   7.881   0.010  0.00  0.00    -0.291 OA
ENDROOT
BRANCH   1   6
ATOM      3  C   UNL     1      -1.646  10.478   0.077  0.00  0.00    +0.064 C 
ATOM      4  C   UNL     1      -0.204  10.041   0.061  0.00  0.00    +0.022 A 
ATOM      5  C   UNL     1       0.223   8.767   0.050  0.00  0.00    +0.034 A 
ATOM      6  C   UNL     1       1.691   8.822   0.035  0.00  0.00    +0.039 A 
ATOM      7  C   UNL     1       2.021  10.165   0.046  0.00  0.00    +0.031 A 
ATOM      8  N   UNL     1       0.877  10.877   0.055  0.00  0.00    -0.317 N 
ATOM      9  C   UNL     1       3.416  10.734   0.043  0.00  0.00    +0.064 C 
BRANCH   8  10
ATOM     10  C   UNL     1       0.806  12.278   0.062  0.00  0.00    +0.050 A 
ATOM     11  C   UNL     1       1.289  12.991   1.151  0.00  0.00    +0.030 A 
ATOM     12  C   UNL     1       1.220  14.371   1.159  0.00  0.00    +0.051 A 
ATOM     13  C   UNL     1       0.669  15.047   0.082  0.00  0.00    +0.166 A 
ATOM     14  C   UNL     1       0.184  14.333  -1.011  0.00  0.00    +0.168 A 
ATOM     15  C   UNL     1       0.258  12.951  -1.021  0.00  0.00    +0.075 A 
ATOM     16  O   UNL     1      -0.302  15.219  -1.929  0.00  0.00    -0.453 OA
ATOM     17  C   UNL     1      -0.481  16.456  -1.214  0.00  0.00    +0.466 C 
ATOM     18  O   UNL     1       0.488  16.380  -0.152  0.00  0.00    -0.453 OA
ENDBRANCH   8  10
ENDBRANCH   1   6
BRANCH   1  19
ATOM     19  C   UNL     1       2.081   6.279   0.017  0.00  0.00    +0.157 C 
BRANCH  19  20
ATOM     20  S   UNL     1       3.465   5.106  -0.002  0.00  0.00    -0.076 S 
BRANCH  20  21
ATOM     21  C   UNL     1       2.685   3.526  -0.004  0.00  0.00    +0.211 A 
ATOM     22  N   UNL     1       1.370   3.318   0.007  0.00  0.00    -0.183 NA
ATOM     23  C   UNL     1       1.123   2.012   0.002  0.00  0.00    +0.254 A 
ATOM     24  N   UNL     1      -0.016   1.310   0.009  0.00  0.00    -0.216 NA
ATOM     25  C   UNL     1       0.002  -0.004   0.002  0.00  0.00    +0.047 A 
ATOM     26  C   UNL     1       1.220  -0.693  -0.013  0.00  0.00    +0.006 A 
ATOM     27  C   UNL     1       2.381   0.012  -0.021  0.00  0.00    +0.049 A 
ATOM     28  N   UNL     1       2.329   1.369  -0.013  0.00  0.00    -0.200 N 
ATOM     29  N   UNL     1       3.312   2.367  -0.017  0.00  0.00    -0.137 NA
ATOM     30  C   UNL     1       3.709  -0.702  -0.038  0.00  0.00    +0.066 C 
ATOM     31  C   UNL     1      -1.295  -0.772   0.011  0.00  0.00    +0.066 C 
BRANCH  26  32
ATOM     32  C   UNL     1       1.243  -2.200  -0.021  0.00  0.00    +0.163 C 
BRANCH  32  33
ATOM     33  C   UNL     1       1.237  -2.695  -1.444  0.00  0.00    +0.360 C 
ATOM     34  O   UNL     1       1.216  -1.906  -2.359  0.00  0.00    -0.246 OA
ATOM     35  O   UNL     1       1.254  -4.013  -1.697  0.00  0.00    -0.246 OA
ENDBRANCH  32  33
ENDBRANCH  26  32
ENDBRANCH  20  21
ENDBRANCH  19  20
ENDBRANCH   1  19
TORSDOF 7
