REMARK  Name = ZINC58527957
REMARK  7 active torsions:
REMARK  status: ('A' for Active; 'I' for Inactive)
REMARK    1  A    between atoms: C_1  and  C_2
REMARK    2  A    between atoms: C_11  and  S_20
REMARK    3  A    between atoms: N_12  and  C_13
REMARK    4  A    between atoms: C_13  and  C_14
REMARK    5  A    between atoms: S_20  and  C_21
REMARK    6  A    between atoms: C_21  and  C_22
REMARK    7  A    between atoms: C_30  and  N_32
REMARK                            x       y       z     vdW  Elec       q    Type
REMARK                         _______ _______ _______ _____ _____    ______ ____
ROOT
ATOM      1  C   UNL     1      -1.179  -0.204  -2.422  0.00  0.00    +0.007 C 
ATOM      2  C   UNL     1      -0.553  -0.858  -1.189  0.00  0.00    -0.011 C 
ATOM      3  C   UNL     1      -0.528  -2.377  -1.374  0.00  0.00    +0.022 C 
ATOM      4  C   UNL     1       0.131  -3.026  -0.153  0.00  0.00    +0.108 C 
ATOM      5  N   UNL     1      -0.571  -2.577   1.058  0.00  0.00    -0.300 N 
ATOM      6  C   UNL     1      -0.730  -1.134   1.288  0.00  0.00    +0.108 C 
ATOM      7  C   UNL     1      -1.380  -0.507   0.050  0.00  0.00    +0.022 C 
ATOM      8  C   UNL     1      -1.074  -3.498   1.967  0.00  0.00    +0.220 A 
ATOM      9  N   UNL     1      -2.301  -3.957   1.999  0.00  0.00    -0.112 NA
ATOM     10  N   UNL     1      -2.397  -4.862   3.064  0.00  0.00    -0.121 NA
ATOM     11  C   UNL     1      -1.225  -4.926   3.648  0.00  0.00    +0.193 A 
ATOM     12  N   UNL     1      -0.375  -4.089   2.981  0.00  0.00    -0.288 N 
ENDROOT
BRANCH  12  13
ATOM     13  C   UNL     1       1.037  -3.863   3.300  0.00  0.00    +0.158 C 
BRANCH  13  14
ATOM     14  C   UNL     1       1.148  -2.804   4.399  0.00  0.00    +0.138 C 
ATOM     15  C   UNL     1       2.628  -2.615   4.816  0.00  0.00    +0.035 C 
ATOM     16  C   UNL     1       2.593  -1.167   5.377  0.00  0.00    +0.031 C 
ATOM     17  C   UNL     1       1.543  -0.489   4.471  0.00  0.00    +0.160 C 
ATOM     18  O   UNL     1       0.729  -1.523   3.903  0.00  0.00    -0.375 OA
ENDBRANCH  13  14
ENDBRANCH  12  13
BRANCH  11  19
ATOM     19  S   UNL     1      -0.816  -5.922   5.043  0.00  0.00    -0.078 S 
BRANCH  19  20
ATOM     20  C   UNL     1      -2.362  -6.787   5.434  0.00  0.00    +0.153 C 
BRANCH  20  21
ATOM     21  C   UNL     1      -2.148  -7.685   6.625  0.00  0.00    +0.142 A 
ATOM     22  N   UNL     1      -1.750  -8.917   6.417  0.00  0.00    -0.231 NA
ATOM     23  C   UNL     1      -1.547  -9.750   7.448  0.00  0.00    +0.076 A 
ATOM     24  C   UNL     1      -1.122 -11.073   7.263  0.00  0.00    +0.028 A 
ATOM     25  C   UNL     1      -0.930 -11.876   8.347  0.00  0.00    +0.002 A 
ATOM     26  C   UNL     1      -1.151 -11.405   9.638  0.00  0.00    +0.001 A 
ATOM     27  C   UNL     1      -1.565 -10.123   9.854  0.00  0.00    +0.013 A 
ATOM     28  C   UNL     1      -1.770  -9.272   8.762  0.00  0.00    +0.040 A 
ATOM     29  C   UNL     1      -2.199  -7.932   8.923  0.00  0.00    +0.127 A 
ATOM     30  N   UNL     1      -2.364  -7.192   7.834  0.00  0.00    -0.216 NA
BRANCH  29  31
ATOM     31  N   UNL     1      -2.434  -7.409  10.177  0.00  0.00    -0.343 N 
ATOM     32  H   UNL     1      -2.305  -7.960  10.964  0.00  0.00    +0.144 HD
ATOM     33  H   UNL     1      -2.727  -6.489  10.271  0.00  0.00    +0.144 HD
ENDBRANCH  29  31
ENDBRANCH  20  21
ENDBRANCH  19  20
ENDBRANCH  11  19
TORSDOF 6
