REMARK  Name = ZINC32632140
REMARK  7 active torsions:
REMARK  status: ('A' for Active; 'I' for Inactive)
REMARK    1  A    between atoms: C_1  and  C_2
REMARK    2  A    between atoms: C_5  and  C_30
REMARK    3  A    between atoms: C_10  and  C_12
REMARK    4  A    between atoms: C_17  and  N_18
REMARK    5  A    between atoms: N_18  and  S_19
REMARK    6  A    between atoms: S_19  and  C_22
REMARK    7  A    between atoms: C_25  and  C_28
REMARK                            x       y       z     vdW  Elec       q    Type
REMARK                         _______ _______ _______ _____ _____    ______ ____
ROOT
ATOM      1  C   UNL     1       0.063   1.577   0.238  0.00  0.00    +0.061 A 
ATOM      2  C   UNL     1       0.892   2.270  -0.648  0.00  0.00    +0.015 A 
ATOM      3  C   UNL     1       0.731   3.627  -0.820  0.00  0.00    +0.001 A 
ATOM      4  C   UNL     1      -0.250   4.311  -0.118  0.00  0.00    +0.002 A 
ATOM      5  C   UNL     1      -1.076   3.640   0.760  0.00  0.00    +0.027 A 
ATOM      6  C   UNL     1      -0.933   2.270   0.943  0.00  0.00    +0.086 A 
ENDROOT
BRANCH   1  14
ATOM      7  C   UNL     1       4.833   0.916   1.616  0.00  0.00    +0.009 C 
ATOM      8  C   UNL     1       3.526   0.124   1.694  0.00  0.00    +0.004 C 
ATOM      9  C   UNL     1       3.837  -1.374   1.702  0.00  0.00    +0.009 C 
ATOM     10  C   UNL     1       2.532  -2.167   1.813  0.00  0.00    +0.004 C 
ATOM     11  C   UNL     1       1.651  -1.863   0.597  0.00  0.00    +0.111 C 
ATOM     12  N   UNL     1       1.467  -0.409   0.498  0.00  0.00    -0.297 N 
ATOM     13  C   UNL     1       2.656   0.454   0.471  0.00  0.00    +0.111 C 
ATOM     14  C   UNL     1       0.231   0.124   0.428  0.00  0.00    +0.249 C 
ATOM     15  O   UNL     1      -0.747  -0.594   0.520  0.00  0.00    -0.270 OA
ATOM     16  C   UNL     1       1.796  -1.763   3.091  0.00  0.00    +0.009 C 
ENDBRANCH   1  14
BRANCH   6  17
ATOM     17  N   UNL     1      -1.767   1.592   1.822  0.00  0.00    -0.097 NA
BRANCH  17  18
ATOM     18  S   UNL     1      -3.301   2.149   2.104  0.00  0.00    +0.092 S 
ATOM     19  O   UNL     1      -3.941   1.179   2.921  0.00  0.00    -0.148 OA
ATOM     20  O   UNL     1      -3.173   3.510   2.494  0.00  0.00    -0.148 OA
BRANCH  18  21
ATOM     21  C   UNL     1      -4.149   2.146   0.559  0.00  0.00    +0.110 A 
ATOM     22  C   UNL     1      -4.115   3.269  -0.247  0.00  0.00    +0.030 A 
ATOM     23  C   UNL     1      -4.772   3.272  -1.460  0.00  0.00    +0.021 A 
ATOM     24  C   UNL     1      -5.482   2.141  -1.868  0.00  0.00    +0.052 A 
ATOM     25  C   UNL     1      -5.517   1.012  -1.046  0.00  0.00    +0.021 A 
ATOM     26  C   UNL     1      -4.850   1.022   0.161  0.00  0.00    +0.030 A 
BRANCH  24  27
ATOM     27  C   UNL     1      -6.173   2.139  -3.122  0.00  0.00    +0.099 C 
ATOM     28  N   UNL     1      -6.720   2.137  -4.117  0.00  0.00    -0.191 NA
ENDBRANCH  24  27
ENDBRANCH  18  21
ENDBRANCH  17  18
ENDBRANCH   6  17
TORSDOF 5
