REMARK  Name = ZINC36680566
REMARK  6 active torsions:
REMARK  status: ('A' for Active; 'I' for Inactive)
REMARK    1  A    between atoms: C_1  and  C_2
REMARK    2  A    between atoms: C_2  and  C_4
REMARK    3  A    between atoms: C_2  and  C_15
REMARK    4  A    between atoms: C_4  and  O_5
REMARK    5  A    between atoms: O_5  and  C_6
REMARK    6  A    between atoms: N_16  and  O_17
REMARK                            x       y       z     vdW  Elec       q    Type
REMARK                         _______ _______ _______ _____ _____    ______ ____
ROOT
ATOM      1  C   UNL     1       0.742  -0.511   1.242  0.00  0.00    +0.240 C 
ENDROOT
BRANCH   1   3
ATOM      2  C   UNL     1      -0.019   1.526   0.010  0.00  0.00    +0.019 C 
ATOM      3  C   UNL     1       0.002  -0.004   0.002  0.00  0.00    +0.090 C 
BRANCH   3   4
ATOM      4  C   UNL     1      -1.412  -0.526   0.013  0.00  0.00    +0.138 C 
ATOM      5  N   UNL     1      -2.364   0.200   0.498  0.00  0.00    -0.076 NA
ATOM      6  N   UNL     1      -1.688  -1.775  -0.495  0.00  0.00    -0.344 N 
ATOM      7  H   UNL     1      -0.973  -2.320  -0.860  0.00  0.00    +0.144 HD
ATOM      8  H   UNL     1      -2.599  -2.111  -0.489  0.00  0.00    +0.144 HD
BRANCH   5   9
ATOM      9  O   UNL     1      -3.692  -0.291   0.509  0.00  0.00    -0.408 OA
ATOM     10  H   UNL     1      -4.335   0.322   0.891  0.00  0.00    +0.328 HD
ENDBRANCH   5   9
ENDBRANCH   3   4
ENDBRANCH   1   3
BRANCH   1  11
ATOM     11  O   UNL     1       2.113  -0.114   1.173  0.00  0.00    -0.489 OA
BRANCH  11  12
ATOM     12  C   UNL     1       2.916  -0.487   2.205  0.00  0.00    +0.148 A 
ATOM     13  C   UNL     1       3.055   0.339   3.311  0.00  0.00    +0.062 A 
ATOM     14  C   UNL     1       3.872  -0.042   4.359  0.00  0.00    +0.034 A 
ATOM     15  C   UNL     1       4.550  -1.247   4.306  0.00  0.00    +0.020 A 
ATOM     16  C   UNL     1       4.413  -2.072   3.204  0.00  0.00    +0.034 A 
ATOM     17  C   UNL     1       3.593  -1.697   2.156  0.00  0.00    +0.062 A 
ATOM     18 BR   UNL     1       3.400  -2.830   0.654  0.00  0.00    -0.046 Br
ATOM     19 BR   UNL     1       5.667  -1.765   5.741  0.00  0.00    -0.050 Br
ATOM     20 BR   UNL     1       2.129   1.986   3.385  0.00  0.00    -0.046 Br
ENDBRANCH  11  12
ENDBRANCH   1  11
TORSDOF 5
