REMARK  Name = ZINC39944802
REMARK  16 active torsions:
REMARK  status: ('A' for Active; 'I' for Inactive)
REMARK    1  A    between atoms: C_1  and  C_2
REMARK    2  A    between atoms: C_4  and  C_12
REMARK    3  A    between atoms: C_12  and  C_14
REMARK    4  A    between atoms: C_14  and  C_16
REMARK    5  A    between atoms: C_14  and  O_17
REMARK    6  A    between atoms: O_17  and  C_18
REMARK    7  A    between atoms: C_18  and  C_20
REMARK    8  A    between atoms: C_20  and  C_22
REMARK    9  A    between atoms: C_20  and  N_25
REMARK   10  A    between atoms: C_22  and  C_23
REMARK   11  A    between atoms: C_22  and  C_24
REMARK   12  A    between atoms: C_26  and  C_28
REMARK   13  A    between atoms: C_31  and  C_34
REMARK   14  A    between atoms: C_34  and  C_35
REMARK   15  A    between atoms: C_34  and  C_36
REMARK   16  A    between atoms: C_34  and  C_37
REMARK                            x       y       z     vdW  Elec       q    Type
REMARK                         _______ _______ _______ _____ _____    ______ ____
ROOT
ATOM      1  C   UNL     1       0.765  -1.771  -5.814  0.00  0.00    +0.329 C 
ATOM      2  O   UNL     1       1.581  -2.627  -5.567  0.00  0.00    -0.249 OA
ENDROOT
BRANCH   1   3
ATOM      3  O   UNL     1       0.502  -0.814  -4.910  0.00  0.00    -0.452 OA
BRANCH   3   4
ATOM      4  C   UNL     1       1.223  -0.869  -3.678  0.00  0.00    +0.244 C 
ATOM      5  C   UNL     1       2.518  -0.065  -3.809  0.00  0.00    +0.061 C 
BRANCH   4   6
ATOM      6  C   UNL     1       0.379  -0.286  -2.575  0.00  0.00    +0.202 C 
ATOM      7  O   UNL     1      -0.602   0.376  -2.847  0.00  0.00    -0.288 OA
BRANCH   6  10
ATOM      8  C   UNL     1      -0.019   1.526   0.010  0.00  0.00    +0.035 C 
ATOM      9  C   UNL     1       0.002  -0.004   0.002  0.00  0.00    +0.111 C 
ATOM     10  C   UNL     1       0.728  -0.508  -1.226  0.00  0.00    +0.030 C 
ATOM     11  C   UNL     1       1.805  -1.234  -0.750  0.00  0.00    +0.007 A 
ATOM     12  C   UNL     1       2.845  -1.946  -1.391  0.00  0.00    +0.010 A 
ATOM     13  C   UNL     1       3.789  -2.580  -0.660  0.00  0.00    +0.001 A 
ATOM     14  C   UNL     1       3.790  -2.566   0.744  0.00  0.00    +0.002 A 
ATOM     15  C   UNL     1       2.842  -1.915   1.453  0.00  0.00    +0.026 A 
ATOM     16  C   UNL     1       1.776  -1.199   0.733  0.00  0.00    +0.043 A 
ATOM     17  N   UNL     1       0.756  -0.505   1.155  0.00  0.00    -0.377 N 
ATOM     18  H   UNL     1       0.532  -0.344   2.085  0.00  0.00    +0.160 HD
ENDBRANCH   6  10
ENDBRANCH   4   6
ENDBRANCH   3   4
ENDBRANCH   1   3
BRANCH   1  19
ATOM     19  C   UNL     1       0.043  -1.778  -7.137  0.00  0.00    +0.185 C 
BRANCH  19  20
ATOM     20  N   UNL     1       0.504  -2.914  -7.939  0.00  0.00    -0.298 N 
ATOM     21  C   UNL     1       0.416  -2.870  -9.283  0.00  0.00    +0.245 C 
ATOM     22  O   UNL     1      -0.047  -1.887  -9.830  0.00  0.00    -0.270 OA
ATOM     23  H   UNL     1       0.873  -3.698  -7.503  0.00  0.00    +0.150 HD
BRANCH  21  24
ATOM     24  C   UNL     1       0.881  -4.016 -10.093  0.00  0.00    +0.037 A 
ATOM     25  C   UNL     1       1.407  -5.148  -9.468  0.00  0.00    +0.013 A 
ATOM     26  C   UNL     1       1.839  -6.214 -10.229  0.00  0.00    +0.005 A 
ATOM     27  C   UNL     1       1.752  -6.163 -11.609  0.00  0.00    -0.042 A 
ATOM     28  C   UNL     1       1.232  -5.044 -12.235  0.00  0.00    +0.005 A 
ATOM     29  C   UNL     1       0.791  -3.973 -11.485  0.00  0.00    +0.013 A 
BRANCH  27  30
ATOM     30  C   UNL     1       2.226  -7.331 -12.434  0.00  0.00    -0.013 C 
ATOM     31  C   UNL     1       1.427  -8.580 -12.057  0.00  0.00    +0.015 C 
ATOM     32  C   UNL     1       2.022  -7.024 -13.919  0.00  0.00    +0.015 C 
ATOM     33  C   UNL     1       3.712  -7.577 -12.165  0.00  0.00    +0.015 C 
ENDBRANCH  27  30
ENDBRANCH  21  24
ENDBRANCH  19  20
BRANCH  19  34
ATOM     34  C   UNL     1      -1.462  -1.902  -6.895  0.00  0.00    +0.014 C 
ATOM     35  C   UNL     1      -1.944  -0.716  -6.057  0.00  0.00    +0.009 C 
ATOM     36  C   UNL     1      -2.196  -1.909  -8.238  0.00  0.00    +0.009 C 
ENDBRANCH  19  34
ENDBRANCH   1  19
TORSDOF 9
