REMARK  Name = ZINC63676539
REMARK  4 active torsions:
REMARK  status: ('A' for Active; 'I' for Inactive)
REMARK    1  A    between atoms: C_7  and  C_10
REMARK    2  A    between atoms: C_10  and  C_11
REMARK    3  A    between atoms: C_11  and  N_12
REMARK    4  A    between atoms: C_13  and  C_15
REMARK                            x       y       z     vdW  Elec       q    Type
REMARK                         _______ _______ _______ _____ _____    ______ ____
ROOT
ATOM      1  N   UNL     1      -0.458  -4.798  -1.460  0.00  0.00    -0.311 N 
ATOM      2  C   UNL     1      -0.811  -5.380  -2.623  0.00  0.00    +0.243 C 
ATOM      3  O   UNL     1      -0.369  -4.956  -3.675  0.00  0.00    -0.270 OA
ATOM      4  H   UNL     1      -0.810  -5.136  -0.622  0.00  0.00    +0.149 HD
ENDROOT
BRANCH   2   5
ATOM      5  C   UNL     1      -1.724  -6.522  -2.622  0.00  0.00    +0.052 C 
ATOM      6  C   UNL     1      -2.076  -7.114  -3.790  0.00  0.00    +0.023 C 
ATOM      7  C   UNL     1      -3.013  -8.247  -3.732  0.00  0.00    +0.018 A 
ATOM      8  C   UNL     1      -3.173  -9.116  -4.811  0.00  0.00    +0.026 A 
ATOM      9  C   UNL     1      -4.064 -10.166  -4.712  0.00  0.00    +0.019 A 
ATOM     10  C   UNL     1      -4.795 -10.356  -3.549  0.00  0.00    +0.019 A 
ATOM     11  C   UNL     1      -4.644  -9.501  -2.474  0.00  0.00    +0.047 A 
ATOM     12  C   UNL     1      -3.756  -8.443  -2.554  0.00  0.00    +0.128 A 
ATOM     13  O   UNL     1      -3.585  -7.586  -1.518  0.00  0.00    -0.487 OA
ATOM     14  C   UNL     1      -2.272  -7.051  -1.322  0.00  0.00    +0.269 C 
ATOM     15 BR   UNL     1      -4.288 -11.349  -6.169  0.00  0.00    -0.050 Br
ENDBRANCH   2   5
BRANCH   1  16
ATOM     16  C   UNL     1       0.457  -3.653  -1.462  0.00  0.00    +0.109 C 
BRANCH  16  17
ATOM     17  C   UNL     1       0.691  -3.186  -0.024  0.00  0.00    +0.052 C 
BRANCH  17  24
ATOM     18  C   UNL     1      -0.016   1.348   0.009  0.00  0.00    +0.001 A 
ATOM     19  C   UNL     1       1.166   2.101   0.002  0.00  0.00    +0.002 A 
ATOM     20  C   UNL     1       2.391   1.535  -0.013  0.00  0.00    +0.026 A 
ATOM     21  C   UNL     1       2.529   0.120  -0.022  0.00  0.00    +0.043 A 
ATOM     22  N   UNL     1       3.587  -0.654  -0.037  0.00  0.00    -0.380 N 
ATOM     23  C   UNL     1       3.143  -2.053  -0.041  0.00  0.00    +0.144 C 
ATOM     24  C   UNL     1       1.631  -2.008  -0.025  0.00  0.00    -0.040 C 
ATOM     25  C   UNL     1       1.295  -0.698  -0.014  0.00  0.00    -0.001 A 
ATOM     26  C   UNL     1       0.002  -0.004   0.002  0.00  0.00    +0.010 A 
ATOM     27  H   UNL     1       4.509  -0.353  -0.045  0.00  0.00    +0.160 HD
ENDBRANCH  17  24
ENDBRANCH  16  17
ENDBRANCH   1  16
TORSDOF 4
