REMARK  Name = ZINC16001257
REMARK  3 active torsions:
REMARK  status: ('A' for Active; 'I' for Inactive)
REMARK    1  A    between atoms: C_1  and  C_2
REMARK    2  A    between atoms: C_7  and  C_8
REMARK    3  A    between atoms: N_25  and  C_28
REMARK                            x       y       z     vdW  Elec       q    Type
REMARK                         _______ _______ _______ _____ _____    ______ ____
ROOT
ATOM      1  C   UNL     1      -2.707   6.495   2.670  0.00  0.00    +0.044 C 
ATOM      2  C   UNL     1      -2.035   5.198   2.301  0.00  0.00    -0.046 A 
ATOM      3  C   UNL     1      -0.773   5.212   1.736  0.00  0.00    +0.004 A 
ATOM      4  C   UNL     1      -0.156   4.021   1.399  0.00  0.00    +0.005 A 
ATOM      5  C   UNL     1      -0.799   2.824   1.625  0.00  0.00    -0.027 A 
ATOM      6  C   UNL     1      -2.068   2.797   2.193  0.00  0.00    +0.039 A 
ATOM      7  C   UNL     1      -2.683   4.001   2.530  0.00  0.00    -0.026 A 
ATOM      8  C   UNL     1      -4.058   3.996   3.145  0.00  0.00    +0.046 C 
ATOM      9  N   UNL     1      -2.510   1.480   2.324  0.00  0.00    -0.286 N 
ATOM     10  C   UNL     1      -1.603   0.593   1.876  0.00  0.00    +0.212 C 
ATOM     11  O   UNL     1      -1.716  -0.615   1.869  0.00  0.00    -0.277 OA
ATOM     12  C   UNL     1      -0.418   1.386   1.383  0.00  0.00    +0.053 C 
ATOM     13  C   UNL     1      -0.013   1.086   0.008  0.00  0.00    +0.089 C 
ATOM     14  C   UNL     1       1.517   1.489  -0.004  0.00  0.00    +0.074 C 
ATOM     15  C   UNL     1       1.907   0.727   1.261  0.00  0.00    -0.054 C 
ATOM     16  N   UNL     1       0.788   1.032   2.220  0.00  0.00    +0.395 N 
ATOM     17  C   UNL     1       0.493  -0.214   2.958  0.00  0.00    -0.076 C 
ATOM     18  C   UNL     1       1.442  -1.310   2.436  0.00  0.00    -0.020 C 
ATOM     19  C   UNL     1       1.832  -0.793   1.027  0.00  0.00    -0.016 C 
ATOM     20  C   UNL     1       1.821   0.887  -1.351  0.00  0.00    +0.228 C 
ATOM     21  O   UNL     1       2.848   0.342  -1.694  0.00  0.00    -0.275 OA
ATOM     22  N   UNL     1       0.700   1.083  -2.106  0.00  0.00    -0.210 N 
ATOM     23  C   UNL     1      -0.402   1.396  -1.350  0.00  0.00    +0.229 C 
ATOM     24  O   UNL     1      -1.464   1.834  -1.735  0.00  0.00    -0.275 OA
ATOM     25  H   UNL     1      -3.501   1.272   2.755  0.00  0.00    +0.155 HD
ATOM     26  H   UNL     1       1.044   1.834   2.927  0.00  0.00    -0.079 HD
ENDROOT
BRANCH  22  27
ATOM     27  C   UNL     1       0.677   0.976  -3.505  0.00  0.00    +0.045 A 
ATOM     28  C   UNL     1       1.838   0.654  -4.196  0.00  0.00    +0.027 A 
ATOM     29  C   UNL     1       1.814   0.548  -5.573  0.00  0.00    +0.041 A 
ATOM     30  C   UNL     1       0.634   0.763  -6.264  0.00  0.00    +0.142 A 
ATOM     31  C   UNL     1      -0.525   1.083  -5.577  0.00  0.00    +0.078 A 
ATOM     32  C   UNL     1      -0.506   1.185  -4.198  0.00  0.00    +0.046 A 
ATOM     33 CL   UNL     1      -2.004   1.351  -6.446  0.00  0.00    -0.081 Cl
ATOM     34  F   UNL     1       0.613   0.659  -7.611  0.00  0.00    -0.204 F 
ENDBRANCH  22  27
TORSDOF 1
