REMARK  Name = ZINC17288150
REMARK  12 active torsions:
REMARK  status: ('A' for Active; 'I' for Inactive)
REMARK    1  A    between atoms: C_1  and  C_2
REMARK    2  A    between atoms: C_2  and  N_3
REMARK    3  A    between atoms: N_3  and  C_4
REMARK    4  A    between atoms: N_3  and  S_11
REMARK    5  A    between atoms: C_4  and  C_5
REMARK    6  A    between atoms: S_11  and  C_14
REMARK    7  A    between atoms: C_17  and  C_20
REMARK    8  A    between atoms: C_20  and  N_22
REMARK    9  A    between atoms: N_24  and  C_35
REMARK   10  A    between atoms: C_26  and  O_32
REMARK   11  A    between atoms: O_32  and  C_33
REMARK   12  A    between atoms: C_33  and  C_34
REMARK                            x       y       z     vdW  Elec       q    Type
REMARK                         _______ _______ _______ _____ _____    ______ ____
ROOT
ATOM      1  C   UNL     1      -1.316   4.407   0.756  0.00  0.00    +0.106 A 
ATOM      2  C   UNL     1      -1.060   4.955  -0.489  0.00  0.00    +0.029 A 
ATOM      3  C   UNL     1      -1.983   5.793  -1.080  0.00  0.00    +0.015 A 
ATOM      4  C   UNL     1      -3.171   6.096  -0.415  0.00  0.00    +0.039 A 
ATOM      5  C   UNL     1      -3.421   5.545   0.841  0.00  0.00    +0.015 A 
ATOM      6  C   UNL     1      -2.493   4.704   1.420  0.00  0.00    +0.029 A 
ENDROOT
BRANCH   1   7
ATOM      7  S   UNL     1      -0.135   3.333   1.501  0.00  0.00    +0.061 S 
ATOM      8  O   UNL     1      -0.285   3.477   2.907  0.00  0.00    -0.153 OA
ATOM      9  O   UNL     1       1.101   3.566   0.839  0.00  0.00    -0.153 OA
BRANCH   7  10
ATOM     10  N   UNL     1      -0.584   1.782   1.134  0.00  0.00    -0.173 NA
BRANCH  10  12
ATOM     11  C   UNL     1      -0.872   0.248   3.018  0.00  0.00    +0.022 C 
ATOM     12  C   UNL     1      -1.581   1.093   1.957  0.00  0.00    +0.106 C 
ENDBRANCH  10  12
BRANCH  10  13
ATOM     13  C   UNL     1       0.016   1.098  -0.014  0.00  0.00    +0.144 C 
BRANCH  13  14
ATOM     14  C   UNL     1       1.179   0.259   0.452  0.00  0.00    -0.032 A 
ATOM     15  C   UNL     1       2.425   0.835   0.614  0.00  0.00    +0.005 A 
ATOM     16  C   UNL     1       3.490   0.067   1.046  0.00  0.00    +0.000 A 
ATOM     17  C   UNL     1       3.311  -1.279   1.307  0.00  0.00    +0.000 A 
ATOM     18  C   UNL     1       2.066  -1.856   1.140  0.00  0.00    +0.000 A 
ATOM     19  C   UNL     1       0.999  -1.086   0.713  0.00  0.00    +0.005 A 
ENDBRANCH  13  14
ENDBRANCH  10  13
ENDBRANCH   7  10
ENDBRANCH   1   7
BRANCH   4  20
ATOM     20  C   UNL     1      -4.164   7.000  -1.042  0.00  0.00    +0.269 C 
ATOM     21  O   UNL     1      -5.201   7.264  -0.459  0.00  0.00    -0.268 OA
BRANCH  20  22
ATOM     22  N   UNL     1      -3.921   7.527  -2.246  0.00  0.00    -0.152 NA
ATOM     23  C   UNL     1      -4.812   8.338  -2.808  0.00  0.00    +0.167 A 
ATOM     24  N   UNL     1      -4.738   8.966  -4.012  0.00  0.00    -0.321 N 
ATOM     25  C   UNL     1      -5.777   9.778  -4.434  0.00  0.00    +0.099 A 
ATOM     26  C   UNL     1      -5.886  10.502  -5.637  0.00  0.00    +0.145 A 
ATOM     27  C   UNL     1      -7.000  11.273  -5.895  0.00  0.00    +0.048 A 
ATOM     28  C   UNL     1      -8.039  11.357  -4.984  0.00  0.00    +0.005 A 
ATOM     29  C   UNL     1      -7.956  10.655  -3.795  0.00  0.00    +0.017 A 
ATOM     30  C   UNL     1      -6.846   9.885  -3.535  0.00  0.00    +0.042 A 
ATOM     31  S   UNL     1      -6.343   8.855  -2.179  0.00  0.00    -0.052 S 
ATOM     32  C   UNL     1      -3.561   8.781  -4.864  0.00  0.00    +0.151 C 
BRANCH  26  33
ATOM     33  O   UNL     1      -4.883  10.440  -6.553  0.00  0.00    -0.490 OA
BRANCH  33  34
ATOM     34  C   UNL     1      -5.053  11.197  -7.753  0.00  0.00    +0.226 C 
ATOM     35  C   UNL     1      -3.833  11.004  -8.655  0.00  0.00    +0.048 C 
ENDBRANCH  33  34
ENDBRANCH  26  33
ENDBRANCH  20  22
ENDBRANCH   4  20
TORSDOF 9
