REMARK  Name = ZINC03595096
REMARK  5 active torsions:
REMARK  status: ('A' for Active; 'I' for Inactive)
REMARK    1  A    between atoms: C_1  and  C_2
REMARK    2  A    between atoms: C_2  and  C_26
REMARK    3  A    between atoms: N_5  and  C_9
REMARK    4  A    between atoms: C_9  and  C_10
REMARK    5  A    between atoms: N_15  and  C_16
REMARK                            x       y       z     vdW  Elec       q    Type
REMARK                         _______ _______ _______ _____ _____    ______ ____
ROOT
ATOM      1  C   UNL     1       6.146  -4.738   0.317  0.00  0.00    +0.214 C 
ENDROOT
BRANCH   1   6
ATOM      2  C   UNL     1       4.200  -8.921  -0.575  0.00  0.00    +0.047 C 
ATOM      3  C   UNL     1       5.545  -8.381  -0.087  0.00  0.00    +0.136 C 
ATOM      4  C   UNL     1       5.804  -7.000  -0.656  0.00  0.00    +0.251 C 
ATOM      5  O   UNL     1       5.907  -6.698  -1.826  0.00  0.00    -0.272 OA
ATOM      6  N   UNL     1       5.897  -6.179   0.408  0.00  0.00    -0.215 N 
ATOM      7  C   UNL     1       5.739  -6.843   1.559  0.00  0.00    +0.310 C 
ATOM      8  O   UNL     1       5.786  -6.318   2.654  0.00  0.00    -0.252 OA
ATOM      9  N   UNL     1       5.520  -8.157   1.369  0.00  0.00    -0.281 N 
ATOM     10  H   UNL     1       5.377  -8.826   2.056  0.00  0.00    +0.152 HD
BRANCH   3  11
ATOM     11  C   UNL     1       6.660  -9.325  -0.459  0.00  0.00    +0.003 A 
ATOM     12  C   UNL     1       7.405  -9.939   0.531  0.00  0.00    +0.009 A 
ATOM     13  C   UNL     1       8.427 -10.805   0.191  0.00  0.00    +0.020 A 
ATOM     14  C   UNL     1       8.706 -11.057  -1.141  0.00  0.00    +0.042 A 
ATOM     15  C   UNL     1       7.961 -10.444  -2.131  0.00  0.00    +0.040 A 
ATOM     16  C   UNL     1       6.934  -9.582  -1.790  0.00  0.00    +0.048 A 
ATOM     17 CL   UNL     1       5.993  -8.817  -3.033  0.00  0.00    -0.083 Cl
ATOM     18 CL   UNL     1       9.990 -12.145  -1.567  0.00  0.00    -0.083 Cl
ENDBRANCH   3  11
ENDBRANCH   1   6
BRANCH   1  19
ATOM     19  C   UNL     1       4.832  -4.007   0.224  0.00  0.00    +0.238 C 
ATOM     20  O   UNL     1       3.790  -4.627   0.234  0.00  0.00    -0.274 OA
ATOM     21  N   UNL     1       4.814  -2.662   0.131  0.00  0.00    -0.239 N 
ATOM     22  C   UNL     1       3.639  -2.008   0.048  0.00  0.00    +0.310 C 
ATOM     23  O   UNL     1       2.595  -2.630   0.057  0.00  0.00    -0.252 OA
ATOM     24  N   UNL     1       3.622  -0.663  -0.045  0.00  0.00    -0.269 N 
ATOM     25  H   UNL     1       5.647  -2.166   0.124  0.00  0.00    +0.159 HD
ATOM     26  H   UNL     1       4.454  -0.172  -0.130  0.00  0.00    +0.156 HD
BRANCH  24  27
ATOM     27  C   UNL     1       2.401   0.025  -0.019  0.00  0.00    +0.038 A 
ATOM     28  C   UNL     1       1.346  -0.460   0.742  0.00  0.00    +0.027 A 
ATOM     29  C   UNL     1       0.142   0.217   0.766  0.00  0.00    +0.051 A 
ATOM     30  C   UNL     1      -0.016   1.383   0.032  0.00  0.00    +0.162 A 
ATOM     31  C   UNL     1       1.039   1.873  -0.728  0.00  0.00    +0.164 A 
ATOM     32  C   UNL     1       2.247   1.192  -0.754  0.00  0.00    +0.072 A 
ATOM     33  O   UNL     1       0.906   3.021  -1.447  0.00  0.00    -0.485 OA
ATOM     34  C   UNL     1      -0.430   3.474  -1.695  0.00  0.00    +0.270 C 
ATOM     35  C   UNL     1      -1.216   3.395  -0.380  0.00  0.00    +0.270 C 
ATOM     36  O   UNL     1      -1.213   2.033   0.063  0.00  0.00    -0.485 OA
ENDBRANCH  24  27
ENDBRANCH   1  19
TORSDOF 4
