REMARK  Name = ZINC06194678
REMARK  9 active torsions:
REMARK  status: ('A' for Active; 'I' for Inactive)
REMARK    1  A    between atoms: C_1  and  C_2
REMARK    2  A    between atoms: C_2  and  O_3
REMARK    3  A    between atoms: O_3  and  C_4
REMARK    4  A    between atoms: C_4  and  C_6
REMARK    5  A    between atoms: C_11  and  C_13
REMARK    6  A    between atoms: C_11  and  C_28
REMARK    7  A    between atoms: C_11  and  N_67
REMARK    8  A    between atoms: N_32  and  C_33
REMARK    9  A    between atoms: C_33  and  C_34
REMARK                            x       y       z     vdW  Elec       q    Type
REMARK                         _______ _______ _______ _____ _____    ______ ____
ROOT
ATOM      1  C   UNL     1       2.849   4.724   1.887  0.00  0.00    +0.039 C 
ENDROOT
BRANCH   1   2
ATOM      2  C   UNL     1       2.940   3.787   3.063  0.00  0.00    +0.011 A 
ATOM      3  C   UNL     1       1.812   3.231   3.574  0.00  0.00    +0.017 A 
ATOM      4  C   UNL     1       1.934   2.325   4.715  0.00  0.00    +0.002 A 
ATOM      5  C   UNL     1       0.804   1.721   5.282  0.00  0.00    +0.059 A 
ATOM      6  C   UNL     1       0.951   0.872   6.357  0.00  0.00    +0.167 A 
ATOM      7  C   UNL     1       2.223   0.612   6.882  0.00  0.00    +0.168 A 
ATOM      8  C   UNL     1       3.343   1.203   6.329  0.00  0.00    +0.075 A 
ATOM      9  C   UNL     1       3.212   2.062   5.244  0.00  0.00    +0.053 A 
ATOM     10  N   UNL     1       4.320   2.660   4.678  0.00  0.00    -0.322 N 
ATOM     11  H   UNL     1       5.227   2.476   5.058  0.00  0.00    +0.169 HD
ATOM     12  C   UNL     1       4.197   3.486   3.625  0.00  0.00    +0.251 A 
ATOM     13  O   UNL     1       5.198   3.993   3.147  0.00  0.00    -0.268 OA
ATOM     14  O   UNL     1       2.089  -0.252   7.930  0.00  0.00    -0.453 OA
ATOM     15  C   UNL     1       0.782  -0.838   7.784  0.00  0.00    +0.466 C 
ATOM     16  O   UNL     1       0.030   0.169   7.080  0.00  0.00    -0.453 OA
ENDBRANCH   1   2
BRANCH   1  22
ATOM     17  C   UNL     1       3.354   8.883   2.742  0.00  0.00    +0.094 C 
ATOM     18  C   UNL     1       4.039   8.277   1.513  0.00  0.00    -0.004 C 
ATOM     19  C   UNL     1       3.333   6.973   1.133  0.00  0.00    -0.077 C 
ATOM     20  C   UNL     1       2.702   6.576   3.439  0.00  0.00    -0.077 C 
ATOM     21  C   UNL     1       3.388   7.868   3.888  0.00  0.00    -0.004 C 
ATOM     22  N   UNL     1       3.423   6.031   2.269  0.00  0.00    +0.389 N 
ATOM     23  H   UNL     1       4.410   5.901   2.517  0.00  0.00    -0.080 HD
BRANCH  17  24
ATOM     24  C   UNL     1       4.081  10.136   3.156  0.00  0.00    +0.310 C 
ATOM     25  O   UNL     1       5.047  10.509   2.533  0.00  0.00    -0.251 OA
BRANCH  24  26
ATOM     26  O   UNL     1       3.654  10.840   4.217  0.00  0.00    -0.465 OA
BRANCH  26  28
ATOM     27  C   UNL     1       3.772  12.700   5.785  0.00  0.00    +0.048 C 
ATOM     28  C   UNL     1       4.402  12.037   4.558  0.00  0.00    +0.229 C 
ENDBRANCH  26  28
ENDBRANCH  24  26
ENDBRANCH  17  24
ENDBRANCH   1  22
BRANCH   1  29
ATOM     29  C   UNL     1       1.406   4.878   1.478  0.00  0.00    +0.143 A 
ATOM     30  N   UNL     1       0.487   5.574   2.100  0.00  0.00    -0.115 NA
ATOM     31  N   UNL     1      -0.615   5.457   1.442  0.00  0.00    -0.023 NA
ATOM     32  N   UNL     1      -0.420   4.707   0.413  0.00  0.00    -0.044 NA
ATOM     33  N   UNL     1       0.812   4.326   0.404  0.00  0.00    -0.228 N 
BRANCH  33  34
ATOM     34  C   UNL     1       1.447   3.460  -0.593  0.00  0.00    +0.178 C 
BRANCH  34  35
ATOM     35  C   UNL     1       1.323   2.000  -0.153  0.00  0.00    +0.140 C 
ATOM     36  C   UNL     1       1.998   1.060  -1.184  0.00  0.00    +0.035 C 
ATOM     37  C   UNL     1       1.252  -0.275  -0.944  0.00  0.00    +0.031 C 
ATOM     38  C   UNL     1      -0.060   0.145  -0.254  0.00  0.00    +0.160 C 
ATOM     39  O   UNL     1      -0.059   1.580  -0.170  0.00  0.00    -0.375 OA
ENDBRANCH  34  35
ENDBRANCH  33  34
ENDBRANCH   1  29
TORSDOF 8
