REMARK  Name = ZINC08998600
REMARK  11 active torsions:
REMARK  status: ('A' for Active; 'I' for Inactive)
REMARK    1  A    between atoms: C_1  and  C_2
REMARK    2  A    between atoms: C_2  and  O_3
REMARK    3  A    between atoms: O_3  and  C_4
REMARK    4  A    between atoms: C_4  and  C_5
REMARK    5  A    between atoms: C_5  and  N_6
REMARK    6  A    between atoms: C_10  and  S_26
REMARK    7  A    between atoms: N_15  and  C_16
REMARK    8  A    between atoms: C_16  and  C_18
REMARK    9  A    between atoms: C_21  and  C_25
REMARK   10  A    between atoms: C_22  and  C_24
REMARK   11  A    between atoms: S_26  and  N_29
REMARK                            x       y       z     vdW  Elec       q    Type
REMARK                         _______ _______ _______ _____ _____    ______ ____
ROOT
ATOM      1  N   UNL     1       0.055  -7.092  -2.265  0.00  0.00    -0.319 N 
ATOM      2  C   UNL     1       0.040  -8.463  -2.084  0.00  0.00    +0.058 A 
ATOM      3  C   UNL     1       0.012  -9.470  -3.062  0.00  0.00    +0.029 A 
ATOM      4  C   UNL     1      -0.007 -10.797  -2.703  0.00  0.00    +0.030 A 
ATOM      5  C   UNL     1       0.001 -11.181  -1.372  0.00  0.00    +0.106 A 
ATOM      6  C   UNL     1       0.029 -10.209  -0.388  0.00  0.00    +0.045 A 
ATOM      7  C   UNL     1       0.047  -8.882  -0.746  0.00  0.00    +0.041 A 
ATOM      8  S   UNL     1       0.082  -7.355   0.159  0.00  0.00    -0.052 S 
ATOM      9  C   UNL     1       0.086  -6.263  -1.188  0.00  0.00    +0.167 A 
ATOM     10  N   UNL     1       0.108  -4.934  -1.171  0.00  0.00    -0.152 NA
ENDROOT
BRANCH   5  11
ATOM     11  S   UNL     1      -0.024 -12.889  -0.938  0.00  0.00    +0.056 S 
ATOM     12  O   UNL     1      -0.562 -12.966   0.375  0.00  0.00    -0.153 OA
ATOM     13  O   UNL     1      -0.598 -13.580  -2.038  0.00  0.00    -0.153 OA
BRANCH  11  14
ATOM     14  N   UNL     1       1.551 -13.391  -0.834  0.00  0.00    -0.204 NA
ATOM     15  H   UNL     1       2.272 -12.764  -1.004  0.00  0.00    +0.144 HD
ATOM     16  H   UNL     1       1.753 -14.311  -0.603  0.00  0.00    +0.144 HD
ENDBRANCH  11  14
ENDBRANCH   5  11
BRANCH  10  17
ATOM     17  C   UNL     1       0.132  -4.280  -0.006  0.00  0.00    +0.269 C 
ATOM     18  O   UNL     1       0.133  -4.903   1.042  0.00  0.00    -0.268 OA
BRANCH  17  19
ATOM     19  C   UNL     1       0.156  -2.800   0.013  0.00  0.00    +0.039 A 
ATOM     20  C   UNL     1       0.155  -2.084  -1.185  0.00  0.00    +0.013 A 
ATOM     21  C   UNL     1       0.174  -0.705  -1.161  0.00  0.00    +0.004 A 
ATOM     22  C   UNL     1       0.204  -0.031   0.047  0.00  0.00    -0.047 A 
ATOM     23  C   UNL     1       0.205  -0.735   1.238  0.00  0.00    -0.047 A 
ATOM     24  C   UNL     1       0.181  -2.115   1.228  0.00  0.00    +0.016 A 
ATOM     25  C   UNL     1       0.231   0.006   2.550  0.00  0.00    +0.044 C 
ATOM     26  C   UNL     1       0.229   1.475   0.066  0.00  0.00    +0.044 C 
ENDBRANCH  17  19
ENDBRANCH  10  17
BRANCH   1  27
ATOM     27  C   UNL     1       0.041  -6.533  -3.619  0.00  0.00    +0.152 C 
BRANCH  27  28
ATOM     28  C   UNL     1      -0.804  -5.258  -3.636  0.00  0.00    +0.181 C 
BRANCH  28  29
ATOM     29  O   UNL     1      -0.929  -4.787  -4.980  0.00  0.00    -0.378 OA
BRANCH  29  31
ATOM     30  C   UNL     1      -1.770  -3.183  -6.580  0.00  0.00    +0.034 C 
ATOM     31  C   UNL     1      -1.704  -3.594  -5.108  0.00  0.00    +0.156 C 
ENDBRANCH  29  31
ENDBRANCH  28  29
ENDBRANCH  27  28
ENDBRANCH   1  27
TORSDOF 8
