REMARK  Name = ZINC39637380
REMARK  7 active torsions:
REMARK  status: ('A' for Active; 'I' for Inactive)
REMARK    1  A    between atoms: C_1  and  C_2
REMARK    2  A    between atoms: C_7  and  N_12
REMARK    3  A    between atoms: C_9  and  C_11
REMARK    4  A    between atoms: C_13  and  C_15
REMARK    5  A    between atoms: C_26  and  C_28
REMARK    6  A    between atoms: C_30  and  O_35
REMARK    7  A    between atoms: O_35  and  C_36
REMARK                            x       y       z     vdW  Elec       q    Type
REMARK                         _______ _______ _______ _____ _____    ______ ____
ROOT
ATOM      1  C   UNL     1       1.766  -4.205   5.138  0.00  0.00    +0.100 C 
ATOM      2  C   UNL     1       3.161  -4.292   4.481  0.00  0.00    +0.121 C 
ATOM      3  N   UNL     1       3.682  -5.621   4.883  0.00  0.00    -0.296 N 
ATOM      4  C   UNL     1       2.502  -6.516   4.808  0.00  0.00    +0.115 C 
ATOM      5  C   UNL     1       1.337  -5.666   5.351  0.00  0.00    -0.004 C 
ATOM      6  C   UNL     1       0.060  -5.961   4.569  0.00  0.00    -0.010 C 
ATOM      7  C   UNL     1      -0.379  -7.402   4.842  0.00  0.00    -0.082 C 
ATOM      8  N   UNL     1      -0.611  -7.581   6.280  0.00  0.00    +0.379 N 
ATOM      9  C   UNL     1       0.644  -7.386   7.017  0.00  0.00    -0.082 C 
ATOM     10  C   UNL     1       1.126  -5.944   6.836  0.00  0.00    -0.010 C 
ATOM     11  C   UNL     1       4.942  -5.941   5.237  0.00  0.00    +0.248 C 
ATOM     12  O   UNL     1       5.234  -7.100   5.462  0.00  0.00    -0.270 OA
ATOM     13  H   UNL     1      -1.292  -6.908   6.596  0.00  0.00    -0.086 HD
ATOM     14  H   UNL     1      -0.958  -8.513   6.450  0.00  0.00    -0.086 HD
ENDROOT
BRANCH  11  15
ATOM     15  C   UNL     1       5.969  -4.885   5.351  0.00  0.00    +0.054 A 
ATOM     16  C   UNL     1       6.037  -3.868   4.398  0.00  0.00    +0.059 A 
ATOM     17  C   UNL     1       7.001  -2.881   4.512  0.00  0.00    +0.121 A 
ATOM     18  C   UNL     1       7.898  -2.905   5.572  0.00  0.00    +0.047 A 
ATOM     19  C   UNL     1       7.833  -3.911   6.517  0.00  0.00    +0.019 A 
ATOM     20  C   UNL     1       6.872  -4.898   6.416  0.00  0.00    +0.030 A 
ATOM     21 BR   UNL     1       6.783  -6.268   7.716  0.00  0.00    -0.050 Br
BRANCH  17  22
ATOM     22  O   UNL     1       7.071  -1.889   3.585  0.00  0.00    -0.495 OA
ATOM     23  C   UNL     1       8.090  -0.904   3.764  0.00  0.00    +0.277 C 
ENDBRANCH  17  22
ENDBRANCH  11  15
BRANCH   1  25
ATOM     24  N   UNL     1      -0.229  -2.797   4.740  0.00  0.00    -0.312 N 
ATOM     25  C   UNL     1       0.797  -3.501   4.223  0.00  0.00    +0.218 C 
ATOM     26  O   UNL     1       0.942  -3.568   3.020  0.00  0.00    -0.275 OA
ATOM     27  H   UNL     1      -0.345  -2.744   5.701  0.00  0.00    +0.149 HD
BRANCH  24  33
ATOM     28  C   UNL     1      -4.837  -1.050   4.347  0.00  0.00    +0.008 C 
ATOM     29  C   UNL     1      -3.495  -1.225   3.633  0.00  0.00    -0.009 C 
ATOM     30  C   UNL     1      -2.935   0.148   3.257  0.00  0.00    +0.003 C 
ATOM     31  C   UNL     1      -1.593  -0.026   2.543  0.00  0.00    +0.002 C 
ATOM     32  C   UNL     1      -0.610  -0.741   3.473  0.00  0.00    +0.022 C 
ATOM     33  C   UNL     1      -1.170  -2.114   3.849  0.00  0.00    +0.076 C 
ATOM     34  C   UNL     1      -2.512  -1.939   4.563  0.00  0.00    +0.009 C 
ATOM     35  C   UNL     1      -3.072  -3.312   4.940  0.00  0.00    +0.009 C 
ENDBRANCH  24  33
ENDBRANCH   1  25
TORSDOF 4
