REMARK  Name = ZINC12895748
REMARK  8 active torsions:
REMARK  status: ('A' for Active; 'I' for Inactive)
REMARK    1  A    between atoms: C_1  and  C_2
REMARK    2  A    between atoms: C_9  and  O_20
REMARK    3  A    between atoms: C_12  and  C_14
REMARK    4  A    between atoms: C_23  and  O_40
REMARK    5  A    between atoms: C_24  and  C_31
REMARK    6  A    between atoms: C_27  and  O_30
REMARK    7  A    between atoms: N_32  and  N_33
REMARK    8  A    between atoms: N_33  and  C_34
REMARK                            x       y       z     vdW  Elec       q    Type
REMARK                         _______ _______ _______ _____ _____    ______ ____
ROOT
ATOM      1  C   UNL     1       2.269   0.412  -6.064  0.00  0.00    +0.014 C 
ATOM      2  C   UNL     1       1.889   0.765  -4.625  0.00  0.00    +0.004 C 
ATOM      3  C   UNL     1       1.336  -0.476  -3.961  0.00  0.00    +0.010 C 
ATOM      4  C   UNL     1       0.829  -0.157  -2.557  0.00  0.00    +0.005 C 
ATOM      5  C   UNL     1      -0.258   0.893  -2.647  0.00  0.00    +0.009 C 
ATOM      6  C   UNL     1       0.286   2.173  -3.254  0.00  0.00    +0.025 C 
ATOM      7  C   UNL     1       0.882   1.927  -4.645  0.00  0.00    +0.075 C 
ATOM      8  C   UNL     1       1.798   3.149  -4.953  0.00  0.00    +0.036 C 
ATOM      9  C   UNL     1       3.071   2.875  -4.123  0.00  0.00    +0.011 C 
ATOM     10  C   UNL     1       3.131   1.349  -3.906  0.00  0.00    +0.027 C 
ATOM     11  C   UNL     1      -0.789   3.253  -3.387  0.00  0.00    +0.009 C 
ATOM     12  C   UNL     1      -1.712   3.265  -2.169  0.00  0.00    +0.036 C 
ATOM     13  C   UNL     1      -0.963   2.641  -0.998  0.00  0.00    +0.079 C 
ATOM     14  C   UNL     1      -0.818   1.139  -1.251  0.00  0.00    +0.039 C 
ATOM     15  C   UNL     1       0.059   0.536  -0.160  0.00  0.00    +0.018 C 
ATOM     16  C   UNL     1      -0.623   0.750   1.196  0.00  0.00    +0.032 C 
ATOM     17  C   UNL     1      -0.856   2.240   1.445  0.00  0.00    +0.117 C 
ATOM     18  C   UNL     1      -1.711   2.839   0.320  0.00  0.00    +0.067 C 
ENDROOT
BRANCH  10  19
ATOM     19  C   UNL     1       3.072   1.030  -2.434  0.00  0.00    -0.022 C 
ATOM     20  C   UNL     1       2.741   1.867  -1.455  0.00  0.00    +0.094 C 
ATOM     21  C   UNL     1       2.805   1.167  -0.169  0.00  0.00    +0.332 C 
ATOM     22  O   UNL     1       2.555   1.666   0.910  0.00  0.00    -0.246 OA
ATOM     23  O   UNL     1       3.188  -0.109  -0.360  0.00  0.00    -0.457 OA
ATOM     24  C   UNL     1       3.386  -0.300  -1.789  0.00  0.00    +0.264 C 
ENDBRANCH  10  19
BRANCH   7  25
ATOM     25  O   UNL     1      -0.131   1.745  -5.637  0.00  0.00    -0.388 OA
ATOM     26  H   UNL     1      -0.731   2.497  -5.729  0.00  0.00    +0.210 HD
ENDBRANCH   7  25
BRANCH  17  27
ATOM     27  O   UNL     1      -1.528   2.412   2.695  0.00  0.00    -0.392 OA
ATOM     28  H   UNL     1      -1.045   2.057   3.453  0.00  0.00    +0.210 HD
ENDBRANCH  17  27
BRANCH  14  29
ATOM     29  C   UNL     1      -2.183   0.504  -1.180  0.00  0.00    +0.113 C 
ATOM     30  N   UNL     1      -2.600  -0.229  -2.143  0.00  0.00    -0.194 NA
BRANCH  30  31
ATOM     31  N   UNL     1      -3.868  -0.819  -2.077  0.00  0.00    -0.238 N 
ATOM     32  H   UNL     1      -4.431  -0.673  -1.301  0.00  0.00    +0.174 HD
BRANCH  31  33
ATOM     33  C   UNL     1      -4.322  -1.618  -3.128  0.00  0.00    +0.048 A 
ATOM     34  C   UNL     1      -3.520  -1.824  -4.244  0.00  0.00    +0.025 A 
ATOM     35  C   UNL     1      -3.970  -2.619  -5.279  0.00  0.00    +0.002 A 
ATOM     36  C   UNL     1      -5.223  -3.201  -5.211  0.00  0.00    +0.000 A 
ATOM     37  C   UNL     1      -6.027  -2.994  -4.105  0.00  0.00    +0.002 A 
ATOM     38  C   UNL     1      -5.581  -2.204  -3.064  0.00  0.00    +0.025 A 
ENDBRANCH  31  33
ENDBRANCH  30  31
ENDBRANCH  14  29
BRANCH  13  39
ATOM     39  O   UNL     1       0.335   3.231  -0.898  0.00  0.00    -0.388 OA
ATOM     40  H   UNL     1       0.322   4.184  -0.737  0.00  0.00    +0.210 HD
ENDBRANCH  13  39
TORSDOF 7
