REMARK  Name = ZINC09869669
REMARK  6 active torsions:
REMARK  status: ('A' for Active; 'I' for Inactive)
REMARK    1  A    between atoms: C_4  and  C_7
REMARK    2  A    between atoms: C_12  and  C_19
REMARK    3  A    between atoms: N_21  and  C_22
REMARK    4  A    between atoms: C_22  and  C_23
REMARK    5  A    between atoms: C_26  and  S_29
REMARK    6  A    between atoms: S_29  and  N_32
REMARK                            x       y       z     vdW  Elec       q    Type
REMARK                         _______ _______ _______ _____ _____    ______ ____
ROOT
ATOM      1  C   UNL     1       3.709   6.272  -0.514  0.00  0.00    +0.211 C 
ATOM      2  C   UNL     1       2.390   5.710   0.015  0.00  0.00    +0.085 C 
ATOM      3  C   UNL     1       2.419   4.205   0.001  0.00  0.00    -0.029 A 
ATOM      4  C   UNL     1       1.235   3.496   0.003  0.00  0.00    +0.017 A 
ATOM      5  C   UNL     1       1.256   2.101   0.001  0.00  0.00    +0.037 A 
ATOM      6  C   UNL     1       2.473   1.418  -0.014  0.00  0.00    +0.014 A 
ATOM      7  C   UNL     1       3.657   2.124  -0.023  0.00  0.00    +0.016 A 
ATOM      8  C   UNL     1       3.634   3.518  -0.016  0.00  0.00    +0.062 A 
ATOM      9  C   UNL     1       4.903   4.287  -0.031  0.00  0.00    +0.340 C 
ATOM     10  O   UNL     1       5.972   3.741  -0.220  0.00  0.00    -0.245 OA
ATOM     11  O   UNL     1       4.819   5.625   0.175  0.00  0.00    -0.453 OA
ENDROOT
BRANCH   1  15
ATOM     12  C   UNL     1       3.852  10.483   0.193  0.00  0.00    +0.000 A 
ATOM     13  C   UNL     1       3.418  10.001  -1.028  0.00  0.00    +0.000 A 
ATOM     14  C   UNL     1       3.373   8.639  -1.257  0.00  0.00    +0.007 A 
ATOM     15  C   UNL     1       3.760   7.758  -0.265  0.00  0.00    -0.007 A 
ATOM     16  C   UNL     1       4.188   8.239   0.958  0.00  0.00    +0.007 A 
ATOM     17  C   UNL     1       4.239   9.602   1.185  0.00  0.00    +0.000 A 
ENDBRANCH   1  15
BRANCH   5  18
ATOM     18  C   UNL     1      -0.016   1.344   0.009  0.00  0.00    +0.244 C 
ATOM     19  O   UNL     1      -1.077   1.937   0.018  0.00  0.00    -0.270 OA
ATOM     20  N   UNL     1       0.002  -0.004   0.002  0.00  0.00    -0.307 N 
ATOM     21  H   UNL     1       0.849  -0.478  -0.009  0.00  0.00    +0.149 HD
BRANCH  20  22
ATOM     22  C   UNL     1      -1.256  -0.754   0.010  0.00  0.00    +0.139 C 
BRANCH  22  23
ATOM     23  C   UNL     1      -0.961  -2.232  -0.001  0.00  0.00    -0.030 A 
ATOM     24  C   UNL     1      -0.843  -2.904  -1.203  0.00  0.00    +0.007 A 
ATOM     25  C   UNL     1      -0.567  -4.258  -1.213  0.00  0.00    +0.029 A 
ATOM     26  C   UNL     1      -0.420  -4.943  -0.021  0.00  0.00    +0.105 A 
ATOM     27  C   UNL     1      -0.544  -4.271   1.181  0.00  0.00    +0.029 A 
ATOM     28  C   UNL     1      -0.814  -2.916   1.191  0.00  0.00    +0.007 A 
BRANCH  26  29
ATOM     29  S   UNL     1      -0.076  -6.671  -0.033  0.00  0.00    +0.056 S 
ATOM     30  O   UNL     1       0.532  -6.955  -1.286  0.00  0.00    -0.153 OA
ATOM     31  O   UNL     1       0.556  -6.968   1.205  0.00  0.00    -0.153 OA
BRANCH  29  32
ATOM     32  N   UNL     1      -1.531  -7.460  -0.023  0.00  0.00    -0.204 NA
ATOM     33  H   UNL     1      -2.358  -6.953  -0.013  0.00  0.00    +0.144 HD
ATOM     34  H   UNL     1      -1.557  -8.430  -0.028  0.00  0.00    +0.144 HD
ENDBRANCH  29  32
ENDBRANCH  26  29
ENDBRANCH  22  23
ENDBRANCH  20  22
ENDBRANCH   5  18
TORSDOF 6
