REMARK  Name = ZINC19880850
REMARK  10 active torsions:
REMARK  status: ('A' for Active; 'I' for Inactive)
REMARK    1  A    between atoms: C_1  and  C_2
REMARK    2  A    between atoms: C_3  and  C_32
REMARK    3  A    between atoms: C_4  and  C_22
REMARK    4  A    between atoms: C_10  and  C_15
REMARK    5  A    between atoms: C_26  and  O_30
REMARK    6  A    between atoms: C_27  and  O_28
REMARK    7  A    between atoms: O_28  and  C_29
REMARK    8  A    between atoms: O_30  and  C_31
REMARK    9  A    between atoms: C_32  and  O_34
REMARK   10  A    between atoms: O_34  and  C_35
REMARK                            x       y       z     vdW  Elec       q    Type
REMARK                         _______ _______ _______ _____ _____    ______ ____
ROOT
ATOM      1  C   UNL     1       6.839   0.572   1.507  0.00  0.00    +0.061 C 
ATOM      2  C   UNL     1       5.847   0.581   0.372  0.00  0.00    +0.016 C 
ATOM      3  C   UNL     1       4.911  -0.381   0.297  0.00  0.00    +0.065 C 
ATOM      4  C   UNL     1       3.903  -0.401  -0.814  0.00  0.00    +0.096 C 
ATOM      5  C   UNL     1       4.349   0.465  -1.965  0.00  0.00    +0.024 C 
ATOM      6  C   UNL     1       5.308   1.399  -1.793  0.00  0.00    +0.016 C 
ATOM      7  N   UNL     1       5.904   1.567  -0.572  0.00  0.00    -0.321 N 
ATOM      8  C   UNL     1       5.751   2.278  -2.937  0.00  0.00    +0.059 C 
ATOM      9  C   UNL     1       5.607   1.516  -4.256  0.00  0.00    +0.032 C 
ATOM     10  C   UNL     1       4.144   1.089  -4.414  0.00  0.00    +0.088 C 
ATOM     11  C   UNL     1       3.741   0.272  -3.218  0.00  0.00    +0.162 C 
ATOM     12  O   UNL     1       2.874  -0.571  -3.336  0.00  0.00    -0.292 OA
ATOM     13  H   UNL     1       6.433   2.507  -0.355  0.00  0.00    +0.152 HD
ENDROOT
BRANCH   9  14
ATOM     14  C   UNL     1       6.000   2.411  -5.403  0.00  0.00    -0.043 A 
ATOM     15  C   UNL     1       5.311   3.588  -5.629  0.00  0.00    +0.005 A 
ATOM     16  C   UNL     1       5.675   4.412  -6.677  0.00  0.00    +0.020 A 
ATOM     17  C   UNL     1       6.722   4.053  -7.508  0.00  0.00    +0.041 A 
ATOM     18  C   UNL     1       7.407   2.872  -7.285  0.00  0.00    +0.020 A 
ATOM     19  C   UNL     1       7.046   2.052  -6.233  0.00  0.00    +0.005 A 
ATOM     20 CL   UNL     1       7.174   5.084  -8.830  0.00  0.00    -0.084 Cl
ENDBRANCH   9  14
BRANCH   4  21
ATOM     21  C   UNL     1       2.583   0.109  -0.294  0.00  0.00    +0.010 A 
ATOM     22  C   UNL     1       1.422  -0.598  -0.544  0.00  0.00    +0.008 A 
ATOM     23  C   UNL     1       0.210  -0.133  -0.068  0.00  0.00    +0.004 A 
ATOM     24  C   UNL     1       0.154   1.042   0.659  0.00  0.00    +0.049 A 
ATOM     25  C   UNL     1       1.314   1.755   0.913  0.00  0.00    +0.162 A 
ATOM     26  C   UNL     1       2.535   1.286   0.435  0.00  0.00    +0.166 A 
BRANCH  26  27
ATOM     27  O   UNL     1       3.676   1.983   0.682  0.00  0.00    -0.491 OA
ATOM     28  C   UNL     1       4.189   1.935   2.014  0.00  0.00    +0.277 C 
ENDBRANCH  26  27
BRANCH  25  29
ATOM     29  O   UNL     1       1.261   2.910   1.629  0.00  0.00    -0.491 OA
ATOM     30  C   UNL     1      -0.025   3.330   2.089  0.00  0.00    +0.277 C 
ENDBRANCH  25  29
ENDBRANCH   4  21
BRANCH   3  31
ATOM     31  C   UNL     1       4.877  -1.395   1.283  0.00  0.00    +0.338 C 
ATOM     32  O   UNL     1       5.689  -1.390   2.189  0.00  0.00    -0.245 OA
BRANCH  31  33
ATOM     33  O   UNL     1       3.943  -2.367   1.219  0.00  0.00    -0.458 OA
BRANCH  33  34
ATOM     34  C   UNL     1       3.967  -3.358   2.248  0.00  0.00    +0.177 C 
ATOM     35  C   UNL     1       4.816  -4.566   1.799  0.00  0.00    +0.044 C 
ATOM     36  C   UNL     1       4.068  -5.792   2.378  0.00  0.00    +0.004 C 
ATOM     37  C   UNL     1       2.580  -5.402   2.196  0.00  0.00    +0.004 C 
ATOM     38  C   UNL     1       2.546  -3.890   2.501  0.00  0.00    +0.044 C 
ENDBRANCH  33  34
ENDBRANCH  31  33
ENDBRANCH   3  31
TORSDOF 7
