REMARK  Name = ZINC09233857
REMARK  6 active torsions:
REMARK  status: ('A' for Active; 'I' for Inactive)
REMARK    1  A    between atoms: C_3  and  N_10
REMARK    2  A    between atoms: C_5  and  N_7
REMARK    3  A    between atoms: C_14  and  C_15
REMARK    4  A    between atoms: C_18  and  C_20
REMARK    5  A    between atoms: C_22  and  C_28
REMARK    6  A    between atoms: C_24  and  C_26
REMARK                            x       y       z     vdW  Elec       q    Type
REMARK                         _______ _______ _______ _____ _____    ______ ____
ROOT
ATOM      1  N   UNL     1       1.027   2.555   0.006  0.00  0.00    -0.224 N 
ATOM      2  C   UNL     1       0.793   3.762   0.498  0.00  0.00    +0.263 C 
ATOM      3  O   UNL     1       1.683   4.458   0.943  0.00  0.00    -0.269 OA
ATOM      4  C   UNL     1      -0.628   4.218   0.473  0.00  0.00    +0.080 C 
ATOM      5  C   UNL     1      -1.181   5.431   0.917  0.00  0.00    +0.066 C 
ATOM      6  S   UNL     1      -1.417   2.854  -0.258  0.00  0.00    -0.061 S 
ATOM      7  C   UNL     1       0.013   1.812  -0.480  0.00  0.00    +0.125 C 
ATOM      8  S   UNL     1       0.083   0.241  -1.157  0.00  0.00    -0.027 S 
ENDROOT
BRANCH   1  11
ATOM      9  C   UNL     1       4.442   1.779  -1.118  0.00  0.00    +0.004 A 
ATOM     10  C   UNL     1       3.152   2.274  -1.108  0.00  0.00    +0.024 A 
ATOM     11  C   UNL     1       2.333   2.050  -0.010  0.00  0.00    +0.045 A 
ATOM     12  C   UNL     1       2.809   1.319   1.071  0.00  0.00    +0.056 A 
ATOM     13  C   UNL     1       4.097   0.822   1.052  0.00  0.00    +0.128 A 
ATOM     14  C   UNL     1       4.913   1.051  -0.041  0.00  0.00    +0.033 A 
BRANCH  13  15
ATOM     15  N   UNL     1       4.605   0.042   2.204  0.00  0.00    +0.056 N 
ATOM     16  O   UNL     1       3.829  -0.177   3.244  0.00  0.00    -0.126 OA
ATOM     17  O   UNL     1       5.834  -0.432   2.187  0.00  0.00    -0.126 OA
ENDBRANCH  13  15
ENDBRANCH   1  11
BRANCH   5  18
ATOM     18  C   UNL     1      -0.363   6.402   1.472  0.00  0.00    +0.130 A 
ATOM     19  C   UNL     1      -0.788   7.712   1.978  0.00  0.00    +0.050 A 
ATOM     20  C   UNL     1       0.338   8.330   2.428  0.00  0.00    +0.050 A 
ATOM     21  C   UNL     1       1.420   7.453   2.215  0.00  0.00    +0.136 A 
ATOM     22  O   UNL     1       0.974   6.318   1.652  0.00  0.00    -0.455 OA
BRANCH  21  23
ATOM     23  C   UNL     1       2.815   7.733   2.559  0.00  0.00    +0.019 A 
ATOM     24  C   UNL     1       3.163   8.960   3.146  0.00  0.00    +0.026 A 
ATOM     25  C   UNL     1       4.489   9.221   3.477  0.00  0.00    +0.065 A 
ATOM     26  C   UNL     1       5.476   8.268   3.215  0.00  0.00    +0.030 A 
ATOM     27  C   UNL     1       5.135   7.047   2.627  0.00  0.00    +0.065 A 
ATOM     28  C   UNL     1       3.810   6.777   2.298  0.00  0.00    +0.026 A 
BRANCH  27  29
ATOM     29  C   UNL     1       6.183   6.042   2.353  0.00  0.00    +0.387 C 
ATOM     30  O   UNL     1       5.888   4.981   1.841  0.00  0.00    -0.241 OA
ATOM     31  O   UNL     1       7.466   6.303   2.671  0.00  0.00    -0.241 OA
ENDBRANCH  27  29
BRANCH  25  32
ATOM     32  C   UNL     1       4.855  10.510   4.100  0.00  0.00    +0.387 C 
ATOM     33  O   UNL     1       3.997  11.339   4.327  0.00  0.00    -0.241 OA
ATOM     34  O   UNL     1       6.139  10.765   4.415  0.00  0.00    -0.241 OA
ENDBRANCH  25  32
ENDBRANCH  21  23
ENDBRANCH   5  18
TORSDOF 6
