REMARK  Name = ZINC16499393
REMARK  4 active torsions:
REMARK  status: ('A' for Active; 'I' for Inactive)
REMARK    1  A    between atoms: N_11  and  C_12
REMARK    2  A    between atoms: C_18  and  C_20
REMARK    3  A    between atoms: C_29  and  C_32
REMARK    4  A    between atoms: C_32  and  C_33
REMARK                            x       y       z     vdW  Elec       q    Type
REMARK                         _______ _______ _______ _____ _____    ______ ____
ROOT
ATOM      1  C   UNL     1       4.883  -2.384  -3.684  0.00  0.00    +0.095 C 
ATOM      2  C   UNL     1       5.163  -3.437  -2.609  0.00  0.00    +0.044 C 
ATOM      3  C   UNL     1       4.967  -2.811  -1.224  0.00  0.00    +0.110 C 
ATOM      4  N   UNL     1       3.622  -2.224  -1.157  0.00  0.00    -0.301 N 
ATOM      5  C   UNL     1       3.214  -1.271  -2.199  0.00  0.00    +0.110 C 
ATOM      6  C   UNL     1       3.432  -1.910  -3.570  0.00  0.00    +0.044 C 
ATOM      7  C   UNL     1       2.776  -2.557  -0.162  0.00  0.00    +0.220 C 
ATOM      8  O   UNL     1       3.154  -3.273   0.740  0.00  0.00    -0.275 OA
ENDROOT
BRANCH   1  19
ATOM      9  C   UNL     1       7.611  -2.121  -8.187  0.00  0.00    +0.002 A 
ATOM     10  C   UNL     1       7.734  -1.289  -7.087  0.00  0.00    +0.002 A 
ATOM     11  C   UNL     1       6.941  -1.487  -5.973  0.00  0.00    +0.028 A 
ATOM     12  C   UNL     1       6.016  -2.519  -5.958  0.00  0.00    +0.070 A 
ATOM     13  C   UNL     1       5.897  -3.362  -7.065  0.00  0.00    +0.067 A 
ATOM     14  C   UNL     1       6.696  -3.155  -8.179  0.00  0.00    +0.028 A 
ATOM     15  N   UNL     1       4.906  -4.292  -6.758  0.00  0.00    -0.306 N 
ATOM     16  H   UNL     1       4.599  -5.006  -7.338  0.00  0.00    +0.170 HD
ATOM     17  C   UNL     1       4.449  -4.031  -5.519  0.00  0.00    +0.328 A 
ATOM     18  O   UNL     1       3.578  -4.659  -4.947  0.00  0.00    -0.247 OA
ATOM     19  N   UNL     1       5.101  -2.970  -5.009  0.00  0.00    -0.289 N 
ENDBRANCH   1  19
BRANCH   7  20
ATOM     20  C   UNL     1       1.361  -2.038  -0.171  0.00  0.00    +0.092 C 
ATOM     21  C   UNL     1       0.468  -2.976   0.646  0.00  0.00    +0.016 C 
ATOM     22  C   UNL     1      -0.954  -2.410   0.683  0.00  0.00    +0.020 C 
ATOM     23  C   UNL     1      -0.922  -1.000   1.278  0.00  0.00    +0.107 C 
ATOM     24  N   UNL     1      -0.056  -0.142   0.461  0.00  0.00    -0.308 N 
ATOM     25  C   UNL     1       1.326  -0.639   0.450  0.00  0.00    +0.119 C 
ATOM     26  C   UNL     1      -0.106   1.171   0.895  0.00  0.00    +0.181 A 
ATOM     27  N   UNL     1      -1.157   1.967   1.038  0.00  0.00    -0.208 NA
ATOM     28  C   UNL     1      -0.965   3.190   1.474  0.00  0.00    +0.145 A 
ATOM     29  N   UNL     1       0.250   3.600   1.748  0.00  0.00    -0.192 NA
ATOM     30  S   UNL     1       1.188   2.214   1.390  0.00  0.00    +0.049 S 
BRANCH  28  31
ATOM     31  C   UNL     1      -2.136   4.121   1.654  0.00  0.00    +0.112 C 
BRANCH  31  32
ATOM     32  C   UNL     1      -2.377   4.879   0.374  0.00  0.00    -0.040 A 
ATOM     33  C   UNL     1      -1.748   6.092   0.162  0.00  0.00    +0.007 A 
ATOM     34  C   UNL     1      -1.964   6.787  -1.013  0.00  0.00    +0.038 A 
ATOM     35  C   UNL     1      -2.818   6.272  -1.974  0.00  0.00    +0.123 A 
ATOM     36  C   UNL     1      -3.451   5.059  -1.758  0.00  0.00    +0.038 A 
ATOM     37  C   UNL     1      -3.229   4.364  -0.584  0.00  0.00    +0.007 A 
ATOM     38  F   UNL     1      -3.034   6.952  -3.121  0.00  0.00    -0.205 F 
ENDBRANCH  31  32
ENDBRANCH  28  31
ENDBRANCH   7  20
TORSDOF 4
