REMARK  Name = ZINC36076703
REMARK  9 active torsions:
REMARK  status: ('A' for Active; 'I' for Inactive)
REMARK    1  A    between atoms: C_1  and  C_2
REMARK    2  A    between atoms: C_2  and  O_3
REMARK    3  A    between atoms: O_3  and  C_4
REMARK    4  A    between atoms: C_6  and  C_14
REMARK    5  A    between atoms: C_8  and  C_11
REMARK    6  A    between atoms: C_9  and  O_10
REMARK    7  A    between atoms: C_11  and  C_12
REMARK    8  A    between atoms: N_21  and  C_24
REMARK    9  A    between atoms: C_29  and  C_30
REMARK                            x       y       z     vdW  Elec       q    Type
REMARK                         _______ _______ _______ _____ _____    ______ ____
ROOT
ATOM      1  C   UNL     1      -0.199  -4.966   0.428  0.00  0.00    +0.026 C 
ATOM      2  C   UNL     1       0.319  -6.243   0.564  0.00  0.00    +0.102 C 
ATOM      3  C   UNL     1       1.504  -6.677  -0.194  0.00  0.00    +0.274 C 
ATOM      4  O   UNL     1       2.124  -5.836  -1.049  0.00  0.00    -0.268 OA
ATOM      5  N   UNL     1       1.948  -7.909  -0.017  0.00  0.00    -0.153 NA
ATOM      6  C   UNL     1       1.359  -8.760   0.819  0.00  0.00    +0.171 C 
ATOM      7  S   UNL     1       2.019 -10.332   0.970  0.00  0.00    -0.016 S 
ATOM      8  N   UNL     1       0.277  -8.454   1.550  0.00  0.00    -0.216 N 
ATOM      9  C   UNL     1      -0.288  -7.229   1.480  0.00  0.00    +0.262 C 
ATOM     10  O   UNL     1      -1.267  -6.950   2.146  0.00  0.00    -0.269 OA
ENDROOT
BRANCH   8  11
ATOM     11  C   UNL     1      -0.273  -9.419   2.404  0.00  0.00    +0.046 A 
ATOM     12  C   UNL     1       0.160  -9.511   3.720  0.00  0.00    +0.025 A 
ATOM     13  C   UNL     1      -0.384 -10.463   4.559  0.00  0.00    +0.017 A 
ATOM     14  C   UNL     1      -1.360 -11.325   4.090  0.00  0.00    +0.018 A 
ATOM     15  C   UNL     1      -1.793 -11.236   2.779  0.00  0.00    +0.020 A 
ATOM     16  C   UNL     1      -1.256 -10.281   1.937  0.00  0.00    -0.028 A 
ATOM     17  C   UNL     1      -1.733 -10.180   0.511  0.00  0.00    +0.046 C 
ATOM     18 BR   UNL     1      -2.102 -12.629   5.242  0.00  0.00    -0.050 Br
ENDBRANCH   8  11
BRANCH   1  21
ATOM     19  C   UNL     1       1.057  -1.951  -1.403  0.00  0.00    +0.162 A 
ATOM     20  C   UNL     1       0.614  -2.763  -0.379  0.00  0.00    +0.057 A 
ATOM     21  C   UNL     1       0.271  -4.097  -0.649  0.00  0.00    -0.020 A 
ATOM     22  C   UNL     1       0.384  -4.594  -1.957  0.00  0.00    +0.015 A 
ATOM     23  C   UNL     1       0.825  -3.781  -2.962  0.00  0.00    +0.002 A 
ATOM     24  C   UNL     1       1.158  -2.458  -2.700  0.00  0.00    +0.162 A 
BRANCH  24  25
ATOM     25  O   UNL     1       1.589  -1.657  -3.707  0.00  0.00    -0.503 OA
ATOM     26  H   UNL     1       2.547  -1.671  -3.837  0.00  0.00    +0.292 HD
ENDBRANCH  24  25
BRANCH  19  27
ATOM     27  O   UNL     1       1.390  -0.657  -1.149  0.00  0.00    -0.489 OA
BRANCH  27  29
ATOM     28  C   UNL     1       1.679   1.263   0.290  0.00  0.00    +0.048 C 
ATOM     29  C   UNL     1       1.263  -0.206   0.201  0.00  0.00    +0.226 C 
ENDBRANCH  27  29
ENDBRANCH  19  27
BRANCH  23  30
ATOM     30  C   UNL     1       0.944  -4.321  -4.364  0.00  0.00    +0.065 C 
BRANCH  30  31
ATOM     31  C   UNL     1       2.357  -4.785  -4.605  0.00  0.00    -0.030 C 
ATOM     32  C   UNL     1       2.584  -6.010  -5.009  0.00  0.00    +0.004 C 
ENDBRANCH  30  31
ENDBRANCH  23  30
ENDBRANCH   1  21
TORSDOF 7
