REMARK  Name = ZINC16646315
REMARK  13 active torsions:
REMARK  status: ('A' for Active; 'I' for Inactive)
REMARK    1  A    between atoms: C_1  and  C_2
REMARK    2  A    between atoms: C_5  and  C_11
REMARK    3  A    between atoms: C_7  and  N_8
REMARK    4  A    between atoms: N_13  and  C_14
REMARK    5  A    between atoms: N_13  and  C_38
REMARK    6  A    between atoms: C_14  and  C_15
REMARK    7  A    between atoms: N_17  and  C_18
REMARK    8  A    between atoms: N_17  and  C_30
REMARK    9  A    between atoms: C_18  and  C_19
REMARK   10  A    between atoms: C_19  and  C_20
REMARK   11  A    between atoms: C_30  and  C_31
REMARK   12  A    between atoms: C_38  and  C_39
REMARK   13  A    between atoms: C_38  and  C_40
REMARK                            x       y       z     vdW  Elec       q    Type
REMARK                         _______ _______ _______ _____ _____    ______ ____
ROOT
ATOM      1  C   UNL     1      -6.066  -3.476   0.458  0.00  0.00    +0.233 C 
ATOM      2  O   UNL     1      -5.132  -2.738   0.225  0.00  0.00    -0.274 OA
ATOM      3  N   UNL     1      -5.862  -4.632   1.121  0.00  0.00    -0.296 N 
ENDROOT
BRANCH   1   4
ATOM      4  C   UNL     1      -7.453  -3.102   0.004  0.00  0.00    +0.204 C 
BRANCH   4   7
ATOM      5  C   UNL     1      -7.546  -0.668  -0.074  0.00  0.00    +0.247 C 
ATOM      6  O   UNL     1      -7.031  -0.518   1.017  0.00  0.00    -0.270 OA
ATOM      7  N   UNL     1      -7.402  -1.836  -0.731  0.00  0.00    -0.286 N 
BRANCH   5  12
ATOM      8  C   UNL     1     -10.595   3.605  -2.431  0.00  0.00    +0.046 C 
ATOM      9  C   UNL     1      -9.796   2.486  -1.814  0.00  0.00    -0.020 A 
ATOM     10  C   UNL     1      -9.335   1.450  -2.607  0.00  0.00    +0.006 A 
ATOM     11  C   UNL     1      -8.599   0.425  -2.049  0.00  0.00    +0.013 A 
ATOM     12  C   UNL     1      -8.329   0.429  -0.679  0.00  0.00    +0.039 A 
ATOM     13  C   UNL     1      -8.797   1.477   0.115  0.00  0.00    +0.046 A 
ATOM     14  C   UNL     1      -9.528   2.499  -0.457  0.00  0.00    +0.130 A 
BRANCH  14  15
ATOM     15  N   UNL     1     -10.025   3.611   0.384  0.00  0.00    +0.057 N 
ATOM     16  O   UNL     1      -9.767   3.637   1.574  0.00  0.00    -0.126 OA
ATOM     17  O   UNL     1     -10.693   4.499  -0.114  0.00  0.00    -0.126 OA
ENDBRANCH  14  15
ENDBRANCH   5  12
BRANCH   7  18
ATOM     18  C   UNL     1      -7.194  -1.839  -2.182  0.00  0.00    +0.071 C 
ATOM     19  C   UNL     1      -8.533  -2.056  -2.888  0.00  0.00    +0.028 C 
ATOM     20  C   UNL     1      -6.600  -0.497  -2.614  0.00  0.00    +0.028 C 
ENDBRANCH   7  18
ENDBRANCH   4   7
ENDBRANCH   1   4
BRANCH   3  21
ATOM     21  C   UNL     1      -4.503  -5.037   1.487  0.00  0.00    +0.113 C 
BRANCH  21  22
ATOM     22  C   UNL     1      -4.160  -4.479   2.870  0.00  0.00    +0.056 C 
BRANCH  22  23
ATOM     23  C   UNL     1      -2.762  -4.896   3.247  0.00  0.00    -0.021 A 
ATOM     24  C   UNL     1      -2.418  -5.963   3.985  0.00  0.00    +0.087 A 
ATOM     25  N   UNL     1      -1.057  -6.019   4.120  0.00  0.00    -0.360 N 
ATOM     26  H   UNL     1      -0.574  -6.701   4.611  0.00  0.00    +0.165 HD
ATOM     27  C   UNL     1      -0.478  -4.962   3.454  0.00  0.00    +0.047 A 
ATOM     28  C   UNL     1      -1.520  -4.212   2.878  0.00  0.00    +0.003 A 
ATOM     29  C   UNL     1      -1.226  -3.066   2.139  0.00  0.00    +0.010 A 
ATOM     30  C   UNL     1       0.074  -2.682   1.969  0.00  0.00    +0.001 A 
ATOM     31  C   UNL     1       1.106  -3.418   2.535  0.00  0.00    +0.002 A 
ATOM     32  C   UNL     1       0.839  -4.551   3.273  0.00  0.00    +0.026 A 
ENDBRANCH  22  23
ENDBRANCH  21  22
ENDBRANCH   3  21
BRANCH   3  33
ATOM     33  C   UNL     1      -7.001  -5.483   1.476  0.00  0.00    +0.143 C 
BRANCH  33  34
ATOM     34  C   UNL     1      -7.095  -6.628   0.501  0.00  0.00    -0.030 A 
ATOM     35  C   UNL     1      -7.896  -6.516  -0.620  0.00  0.00    +0.008 A 
ATOM     36  C   UNL     1      -7.980  -7.564  -1.518  0.00  0.00    +0.038 A 
ATOM     37  C   UNL     1      -7.269  -8.730  -1.288  0.00  0.00    +0.123 A 
ATOM     38  C   UNL     1      -6.471  -8.842  -0.162  0.00  0.00    +0.038 A 
ATOM     39  C   UNL     1      -6.385  -7.792   0.731  0.00  0.00    +0.008 A 
ATOM     40  F   UNL     1      -7.353  -9.757  -2.162  0.00  0.00    -0.205 F 
ENDBRANCH  33  34
ENDBRANCH   3  33
TORSDOF 10
