REMARK  Name = ZINC00886647
REMARK  9 active torsions:
REMARK  status: ('A' for Active; 'I' for Inactive)
REMARK    1  A    between atoms: C_1  and  C_2
REMARK    2  A    between atoms: C_5  and  N_8
REMARK    3  A    between atoms: C_9  and  C_11
REMARK    4  A    between atoms: C_11  and  C_13
REMARK    5  A    between atoms: C_11  and  S_14
REMARK    6  A    between atoms: S_14  and  C_15
REMARK    7  A    between atoms: C_18  and  C_26
REMARK    8  A    between atoms: N_19  and  C_20
REMARK    9  A    between atoms: C_29  and  O_32
REMARK                            x       y       z     vdW  Elec       q    Type
REMARK                         _______ _______ _______ _____ _____    ______ ____
ROOT
ATOM      1  C   UNL     1       1.250  -8.642   2.462  0.00  0.00    +0.197 A 
ATOM      2  N   UNL     1       0.961  -9.330   1.381  0.00  0.00    -0.122 NA
ATOM      3  N   UNL     1       1.253 -10.569   1.553  0.00  0.00    -0.128 NA
ATOM      4  C   UNL     1       1.748 -10.752   2.756  0.00  0.00    +0.169 A 
ATOM      5  N   UNL     1       1.767  -9.522   3.375  0.00  0.00    -0.270 N 
ENDROOT
BRANCH   5   6
ATOM      6  C   UNL     1       2.218  -9.232   4.670  0.00  0.00    +0.051 A 
ATOM      7  C   UNL     1       3.560  -9.388   4.990  0.00  0.00    +0.026 A 
ATOM      8  C   UNL     1       4.002  -9.101   6.267  0.00  0.00    +0.002 A 
ATOM      9  C   UNL     1       3.109  -8.659   7.226  0.00  0.00    +0.000 A 
ATOM     10  C   UNL     1       1.772  -8.501   6.910  0.00  0.00    +0.002 A 
ATOM     11  C   UNL     1       1.325  -8.781   5.633  0.00  0.00    +0.026 A 
ENDBRANCH   5   6
BRANCH   4  12
ATOM     12  C   UNL     1       2.203 -12.034   3.333  0.00  0.00    +0.020 A 
ATOM     13  C   UNL     1       2.405 -12.149   4.710  0.00  0.00    +0.015 A 
ATOM     14  C   UNL     1       2.830 -13.346   5.245  0.00  0.00    +0.046 A 
ATOM     15  C   UNL     1       3.057 -14.437   4.416  0.00  0.00    +0.117 A 
ATOM     16  C   UNL     1       2.857 -14.327   3.046  0.00  0.00    +0.046 A 
ATOM     17  C   UNL     1       2.426 -13.135   2.504  0.00  0.00    +0.015 A 
BRANCH  15  18
ATOM     18  O   UNL     1       3.475 -15.616   4.947  0.00  0.00    -0.507 OA
ATOM     19  H   UNL     1       2.756 -16.209   5.203  0.00  0.00    +0.292 HD
ENDBRANCH  15  18
ENDBRANCH   4  12
BRANCH   1  20
ATOM     20  S   UNL     1       1.023  -6.910   2.692  0.00  0.00    -0.073 S 
BRANCH  20  21
ATOM     21  C   UNL     1       0.309  -6.349   1.121  0.00  0.00    +0.137 C 
ATOM     22  C   UNL     1      -1.072  -6.982   0.934  0.00  0.00    +0.029 C 
BRANCH  21  24
ATOM     23  N   UNL     1       0.059  -4.170  -0.021  0.00  0.00    -0.285 N 
ATOM     24  C   UNL     1       0.175  -4.848   1.138  0.00  0.00    +0.230 C 
ATOM     25  O   UNL     1       0.173  -4.251   2.193  0.00  0.00    -0.274 OA
ATOM     26  H   UNL     1      -0.017  -4.651  -0.860  0.00  0.00    +0.155 HD
BRANCH  23  31
ATOM     27  C   UNL     1       0.008   1.503   0.007  0.00  0.00    +0.044 C 
ATOM     28  C   UNL     1       0.022  -0.004  -0.001  0.00  0.00    -0.050 A 
ATOM     29  C   UNL     1       0.777  -0.692   0.931  0.00  0.00    +0.005 A 
ATOM     30  C   UNL     1       0.791  -2.073   0.927  0.00  0.00    +0.023 A 
ATOM     31  C   UNL     1       0.046  -2.771  -0.014  0.00  0.00    +0.033 A 
ATOM     32  C   UNL     1      -0.712  -2.077  -0.948  0.00  0.00    +0.023 A 
ATOM     33  C   UNL     1      -0.726  -0.696  -0.936  0.00  0.00    +0.005 A 
ENDBRANCH  23  31
ENDBRANCH  21  24
ENDBRANCH  20  21
ENDBRANCH   1  20
TORSDOF 7
