REMARK  Name = ZINC32733450
REMARK  12 active torsions:
REMARK  status: ('A' for Active; 'I' for Inactive)
REMARK    1  A    between atoms: C_1  and  C_2
REMARK    2  A    between atoms: C_2  and  C_3
REMARK    3  A    between atoms: C_6  and  C_9
REMARK    4  A    between atoms: C_9  and  C_11
REMARK    5  A    between atoms: C_9  and  N_29
REMARK    6  A    between atoms: C_11  and  N_12
REMARK    7  A    between atoms: C_13  and  C_15
REMARK    8  A    between atoms: C_17  and  S_22
REMARK    9  A    between atoms: S_22  and  N_25
REMARK   10  A    between atoms: N_25  and  C_26
REMARK   11  A    between atoms: N_29  and  C_30
REMARK   12  A    between atoms: N_29  and  C_31
REMARK                            x       y       z     vdW  Elec       q    Type
REMARK                         _______ _______ _______ _____ _____    ______ ____
ROOT
ATOM      1  N   UNL     1      -0.297  -1.328   1.879  0.00  0.00    -0.313 N 
ATOM      2  C   UNL     1      -0.546  -1.588   3.178  0.00  0.00    +0.245 C 
ATOM      3  O   UNL     1      -0.693  -0.671   3.963  0.00  0.00    -0.270 OA
ATOM      4  H   UNL     1      -0.164  -2.158   1.169  0.00  0.00    +0.149 HD
ENDROOT
BRANCH   2   5
ATOM      5  C   UNL     1      -0.639  -2.986   3.648  0.00  0.00    +0.052 A 
ATOM      6  C   UNL     1      -0.476  -4.040   2.748  0.00  0.00    +0.042 A 
ATOM      7  C   UNL     1      -0.560  -5.343   3.193  0.00  0.00    +0.106 A 
ATOM      8  C   UNL     1      -0.815  -5.606   4.528  0.00  0.00    +0.029 A 
ATOM      9  C   UNL     1      -0.983  -4.567   5.425  0.00  0.00    +0.018 A 
ATOM     10  C   UNL     1      -0.897  -3.258   4.993  0.00  0.00    +0.030 A 
ATOM     11 BR   UNL     1      -1.126  -1.838   6.221  0.00  0.00    -0.050 Br
BRANCH   7  12
ATOM     12  S   UNL     1      -0.348  -6.675   2.060  0.00  0.00    +0.059 S 
ATOM     13  O   UNL     1       0.421  -6.169   0.977  0.00  0.00    -0.153 OA
ATOM     14  O   UNL     1       0.062  -7.799   2.826  0.00  0.00    -0.153 OA
BRANCH  12  15
ATOM     15  N   UNL     1      -1.843  -7.040   1.448  0.00  0.00    -0.187 NA
ATOM     16  H   UNL     1      -2.361  -7.945   1.798  0.00  0.00    +0.148 HD
BRANCH  15  17
ATOM     17  C   UNL     1      -2.557  -6.061   0.624  0.00  0.00    +0.077 C 
ATOM     18  C   UNL     1      -4.083  -6.027   0.729  0.00  0.00    +0.022 C 
ATOM     19  C   UNL     1      -3.414  -6.595  -0.525  0.00  0.00    +0.022 C 
ENDBRANCH  15  17
ENDBRANCH  12  15
ENDBRANCH   7  12
ENDBRANCH   2   5
BRANCH   1  20
ATOM     20  C   UNL     1      -0.205   0.058   1.413  0.00  0.00    +0.094 C 
BRANCH  20  21
ATOM     21  C   UNL     1      -0.040   0.074  -0.108  0.00  0.00    -0.021 C 
BRANCH  21  25
ATOM     22  C   UNL     1       0.011   4.116  -1.490  0.00  0.00    -0.048 A 
ATOM     23  C   UNL     1       1.180   3.379  -1.467  0.00  0.00    +0.004 A 
ATOM     24  C   UNL     1       1.163   2.071  -1.019  0.00  0.00    +0.002 A 
ATOM     25  C   UNL     1      -0.022   1.500  -0.595  0.00  0.00    -0.059 A 
ATOM     26  C   UNL     1      -1.192   2.236  -0.624  0.00  0.00    +0.002 A 
ATOM     27  C   UNL     1      -1.175   3.545  -1.066  0.00  0.00    +0.004 A 
BRANCH  22  29
ATOM     28  C   UNL     1      -0.227   5.567  -3.487  0.00  0.00    +0.009 C 
ATOM     29  C   UNL     1       0.028   5.542  -1.979  0.00  0.00    +0.032 C 
ENDBRANCH  22  29
ENDBRANCH  21  25
BRANCH  21  30
ATOM     30  N   UNL     1      -1.162  -0.642  -0.730  0.00  0.00    +0.382 N 
ATOM     31  C   UNL     1      -2.376  -0.531   0.089  0.00  0.00    -0.096 C 
ATOM     32  C   UNL     1      -1.403  -0.158  -2.096  0.00  0.00    -0.096 C 
ATOM     33  H   UNL     1      -0.891  -1.706  -0.791  0.00  0.00    -0.082 HD
ENDBRANCH  21  30
ENDBRANCH  20  21
ENDBRANCH   1  20
TORSDOF 9
