REMARK  Name = ZINC22020774
REMARK  9 active torsions:
REMARK  status: ('A' for Active; 'I' for Inactive)
REMARK    1  A    between atoms: C_1  and  C_2
REMARK    2  A    between atoms: C_7  and  C_9
REMARK    3  A    between atoms: C_7  and  C_10
REMARK    4  A    between atoms: N_13  and  C_17
REMARK    5  A    between atoms: C_17  and  C_18
REMARK    6  A    between atoms: N_20  and  C_21
REMARK    7  A    between atoms: C_26  and  C_27
REMARK    8  A    between atoms: N_29  and  C_30
REMARK    9  A    between atoms: C_30  and  C_31
REMARK                            x       y       z     vdW  Elec       q    Type
REMARK                         _______ _______ _______ _____ _____    ______ ____
ROOT
ATOM      1  C   UNL     1      -1.434  -5.489  -2.763  0.00  0.00    +0.235 C 
ATOM      2  O   UNL     1      -1.072  -5.771  -1.641  0.00  0.00    -0.274 OA
ATOM      3  N   UNL     1      -1.310  -6.390  -3.758  0.00  0.00    -0.284 N 
ATOM      4  H   UNL     1      -1.672  -6.195  -4.636  0.00  0.00    +0.155 HD
ENDROOT
BRANCH   3   5
ATOM      5  C   UNL     1      -0.662  -7.601  -3.524  0.00  0.00    +0.046 A 
ATOM      6  C   UNL     1       0.284  -7.702  -2.512  0.00  0.00    +0.024 A 
ATOM      7  C   UNL     1       0.924  -8.903  -2.283  0.00  0.00    +0.002 A 
ATOM      8  C   UNL     1       0.630 -10.014  -3.056  0.00  0.00    +0.001 A 
ATOM      9  C   UNL     1      -0.306  -9.932  -4.064  0.00  0.00    +0.015 A 
ATOM     10  C   UNL     1      -0.967  -8.725  -4.305  0.00  0.00    +0.058 A 
BRANCH  10  11
ATOM     11  C   UNL     1      -1.975  -8.633  -5.378  0.00  0.00    +0.246 C 
ATOM     12  O   UNL     1      -2.479  -7.559  -5.648  0.00  0.00    -0.270 OA
ATOM     13  N   UNL     1      -2.337  -9.738  -6.059  0.00  0.00    -0.307 N 
ATOM     14  H   UNL     1      -1.935 -10.594  -5.844  0.00  0.00    +0.149 HD
BRANCH  13  15
ATOM     15  C   UNL     1      -3.338  -9.646  -7.125  0.00  0.00    +0.139 C 
BRANCH  15  16
ATOM     16  C   UNL     1      -3.562 -11.010  -7.723  0.00  0.00    -0.030 A 
ATOM     17  C   UNL     1      -2.792 -11.431  -8.792  0.00  0.00    +0.005 A 
ATOM     18  C   UNL     1      -2.998 -12.683  -9.341  0.00  0.00    +0.000 A 
ATOM     19  C   UNL     1      -3.972 -13.515  -8.821  0.00  0.00    +0.000 A 
ATOM     20  C   UNL     1      -4.741 -13.094  -7.752  0.00  0.00    +0.000 A 
ATOM     21  C   UNL     1      -4.533 -11.844  -7.200  0.00  0.00    +0.005 A 
ENDBRANCH  15  16
ENDBRANCH  13  15
ENDBRANCH  10  11
ENDBRANCH   3   5
BRANCH   1  22
ATOM     22  C   UNL     1      -2.022  -4.130  -3.046  0.00  0.00    +0.214 C 
BRANCH  22  34
ATOM     23  C   UNL     1      -0.001   1.511   0.040  0.00  0.00    +0.007 C 
ATOM     24  C   UNL     1       0.010  -0.021   0.028  0.00  0.00    -0.011 C 
ATOM     25  C   UNL     1      -1.431  -0.536   0.032  0.00  0.00    +0.038 C 
ATOM     26  C   UNL     1      -1.433  -2.057  -0.029  0.00  0.00    +0.113 C 
ATOM     27  C   UNL     1      -0.595  -2.691   1.063  0.00  0.00    +0.041 C 
ATOM     28  C   UNL     1       0.764  -2.055   1.299  0.00  0.00    -0.032 C 
ATOM     29  C   UNL     1       0.711  -0.532   1.284  0.00  0.00    +0.009 C 
ATOM     30  C   UNL     1       1.262  -2.495   2.694  0.00  0.00    +0.011 C 
ATOM     31  C   UNL     1       1.783  -2.556   0.271  0.00  0.00    +0.011 C 
ATOM     32  C   UNL     1      -1.040  -2.541  -1.403  0.00  0.00    +0.247 C 
ATOM     33  O   UNL     1      -0.046  -2.265  -2.040  0.00  0.00    -0.273 OA
ATOM     34  N   UNL     1      -2.047  -3.343  -1.812  0.00  0.00    -0.215 N 
ATOM     35  C   UNL     1      -3.068  -3.325  -0.948  0.00  0.00    +0.310 C 
ATOM     36  O   UNL     1      -4.096  -3.956  -1.104  0.00  0.00    -0.252 OA
ATOM     37  N   UNL     1      -2.827  -2.535   0.112  0.00  0.00    -0.285 N 
ATOM     38  H   UNL     1      -3.434  -2.313   0.832  0.00  0.00    +0.151 HD
ENDBRANCH  22  34
ENDBRANCH   1  22
TORSDOF 6
