REMARK  Name = ZINC54782926
REMARK  9 active torsions:
REMARK  status: ('A' for Active; 'I' for Inactive)
REMARK    1  A    between atoms: C_1  and  C_2
REMARK    2  A    between atoms: C_5  and  C_10
REMARK    3  A    between atoms: C_7  and  O_8
REMARK    4  A    between atoms: O_8  and  C_9
REMARK    5  A    between atoms: C_10  and  N_11
REMARK    6  A    between atoms: N_14  and  C_15
REMARK    7  A    between atoms: C_15  and  C_16
REMARK    8  A    between atoms: C_24  and  C_29
REMARK    9  A    between atoms: C_26  and  C_28
REMARK                            x       y       z     vdW  Elec       q    Type
REMARK                         _______ _______ _______ _____ _____    ______ ____
ROOT
ATOM      1  N   UNL     1       1.443  -4.753   0.017  0.00  0.00    -0.295 N 
ATOM      2  C   UNL     1       1.707  -6.075  -0.020  0.00  0.00    +0.300 C 
ATOM      3  O   UNL     1       0.794  -6.877  -0.039  0.00  0.00    -0.253 OA
ATOM      4  N   UNL     1       2.984  -6.506  -0.035  0.00  0.00    -0.295 N 
ATOM      5  H   UNL     1       2.172  -4.113   0.032  0.00  0.00    +0.151 HD
ATOM      6  H   UNL     1       3.713  -5.866  -0.019  0.00  0.00    +0.151 HD
ENDROOT
BRANCH   1   7
ATOM      7  C   UNL     1       0.056  -4.284   0.033  0.00  0.00    +0.141 C 
BRANCH   7  12
ATOM      8  C   UNL     1      -0.025   1.496   0.177  0.00  0.00    +0.047 C 
ATOM      9  C   UNL     1      -0.004  -0.011   0.141  0.00  0.00    -0.009 A 
ATOM     10  C   UNL     1       0.003  -0.673  -1.071  0.00  0.00    +0.007 A 
ATOM     11  C   UNL     1       0.023  -2.055  -1.105  0.00  0.00    +0.005 A 
ATOM     12  C   UNL     1       0.035  -2.778   0.073  0.00  0.00    -0.027 A 
ATOM     13  C   UNL     1       0.028  -2.120   1.288  0.00  0.00    +0.051 A 
ATOM     14  C   UNL     1       0.014  -0.734   1.325  0.00  0.00    +0.123 A 
BRANCH  14  15
ATOM     15  O   UNL     1       0.013  -0.084   2.519  0.00  0.00    -0.495 OA
ATOM     16  C   UNL     1       0.032  -0.893   3.697  0.00  0.00    +0.277 C 
ENDBRANCH  14  15
ENDBRANCH   7  12
ENDBRANCH   1   7
BRANCH   4  17
ATOM     17  C   UNL     1       3.271  -7.942  -0.074  0.00  0.00    +0.142 C 
BRANCH  17  18
ATOM     18  C   UNL     1       4.763  -8.156  -0.084  0.00  0.00    -0.014 A 
ATOM     19  C   UNL     1       5.455  -8.218  -1.286  0.00  0.00    +0.010 A 
ATOM     20  C   UNL     1       6.824  -8.415  -1.251  0.00  0.00    +0.042 A 
ATOM     21  C   UNL     1       7.457  -8.545  -0.019  0.00  0.00    +0.099 A 
ATOM     22  N   UNL     1       6.761  -8.481   1.106  0.00  0.00    -0.349 N 
ATOM     23  C   UNL     1       5.456  -8.287   1.103  0.00  0.00    +0.089 A 
ATOM     24  N   UNL     1       8.832  -8.745   0.032  0.00  0.00    -0.312 N 
ATOM     25  C   UNL     1       9.548  -8.759   1.317  0.00  0.00    +0.137 C 
ATOM     26  C   UNL     1      10.416 -10.022   1.372  0.00  0.00    +0.133 C 
ATOM     27  O   UNL     1      11.223 -10.090   0.194  0.00  0.00    -0.371 OA
ATOM     28  C   UNL     1      10.477 -10.201  -1.020  0.00  0.00    +0.133 C 
ATOM     29  C   UNL     1       9.612  -8.953  -1.198  0.00  0.00    +0.137 C 
ATOM     30  C   UNL     1      11.441 -10.329  -2.202  0.00  0.00    +0.039 C 
ATOM     31  C   UNL     1      11.317  -9.968   2.607  0.00  0.00    +0.039 C 
ATOM     32  H   UNL     1       7.224  -8.574   1.954  0.00  0.00    +0.167 HD
ENDBRANCH  17  18
ENDBRANCH   4  17
TORSDOF 5
