REMARK  Name = ZINC17029189
REMARK  7 active torsions:
REMARK  status: ('A' for Active; 'I' for Inactive)
REMARK    1  A    between atoms: C_1  and  C_2
REMARK    2  A    between atoms: C_2  and  N_3
REMARK    3  A    between atoms: C_16  and  C_18
REMARK    4  A    between atoms: N_24  and  C_27
REMARK    5  A    between atoms: C_32  and  O_33
REMARK    6  A    between atoms: O_33  and  C_34
REMARK    7  A    between atoms: C_34  and  C_35
REMARK                            x       y       z     vdW  Elec       q    Type
REMARK                         _______ _______ _______ _____ _____    ______ ____
ROOT
ATOM      1  C   UNL     1      -0.799  -2.374   1.493  0.00  0.00    +0.074 A 
ATOM      2  C   UNL     1      -1.505  -1.872   2.601  0.00  0.00    +0.260 A 
ATOM      3  N   UNL     1      -2.781  -2.256   2.806  0.00  0.00    -0.274 N 
ATOM      4  H   UNL     1      -3.270  -1.912   3.570  0.00  0.00    +0.173 HD
ATOM      5  C   UNL     1      -3.381  -3.113   1.960  0.00  0.00    +0.337 A 
ATOM      6  O   UNL     1      -4.533  -3.446   2.162  0.00  0.00    -0.246 OA
ATOM      7  N   UNL     1      -2.725  -3.605   0.893  0.00  0.00    -0.225 N 
ATOM      8  C   UNL     1      -1.426  -3.237   0.644  0.00  0.00    +0.267 A 
ATOM      9  O   UNL     1      -0.773  -3.728  -0.431  0.00  0.00    -0.267 OA
ATOM     10  O   UNL     1      -0.967  -1.096   3.372  0.00  0.00    -0.267 OA
ENDROOT
BRANCH   1  24
ATOM     11  N   UNL     1       0.713  -0.491   1.192  0.00  0.00    +0.388 N 
ATOM     12  C   UNL     1       2.117  -0.066   1.128  0.00  0.00    -0.073 C 
ATOM     13  C   UNL     1       2.783  -0.287   2.494  0.00  0.00    +0.019 C 
ATOM     14  C   UNL     1       2.473  -1.696   2.935  0.00  0.00    -0.022 A 
ATOM     15  C   UNL     1       3.089  -2.492   3.971  0.00  0.00    +0.003 A 
ATOM     16  C   UNL     1       4.129  -2.241   4.872  0.00  0.00    +0.010 A 
ATOM     17  C   UNL     1       4.459  -3.254   5.737  0.00  0.00    +0.001 A 
ATOM     18  C   UNL     1       3.801  -4.473   5.729  0.00  0.00    +0.002 A 
ATOM     19  C   UNL     1       2.769  -4.749   4.849  0.00  0.00    +0.026 A 
ATOM     20  C   UNL     1       2.412  -3.740   3.958  0.00  0.00    +0.047 A 
ATOM     21  N   UNL     1       1.462  -3.678   2.979  0.00  0.00    -0.359 N 
ATOM     22  H   UNL     1       0.850  -4.394   2.749  0.00  0.00    +0.166 HD
ATOM     23  C   UNL     1       1.503  -2.453   2.371  0.00  0.00    +0.011 A 
ATOM     24  C   UNL     1       0.628  -1.958   1.244  0.00  0.00    +0.021 C 
ATOM     25  H   UNL     1       0.285  -0.101   2.019  0.00  0.00    -0.080 HD
BRANCH  11  27
ATOM     26  C   UNL     1      -0.019   1.526   0.010  0.00  0.00    -0.017 C 
ATOM     27  C   UNL     1       0.002  -0.004   0.002  0.00  0.00    -0.081 C 
ENDBRANCH  11  27
ENDBRANCH   1  24
BRANCH   7  28
ATOM     28  C   UNL     1      -3.375  -4.497   0.027  0.00  0.00    +0.096 A 
ATOM     29  C   UNL     1      -4.077  -4.016  -1.069  0.00  0.00    +0.030 A 
ATOM     30  C   UNL     1      -4.715  -4.896  -1.921  0.00  0.00    +0.002 A 
ATOM     31  C   UNL     1      -4.657  -6.258  -1.685  0.00  0.00    +0.004 A 
ATOM     32  C   UNL     1      -3.960  -6.745  -0.596  0.00  0.00    +0.048 A 
ATOM     33  C   UNL     1      -3.312  -5.869   0.261  0.00  0.00    +0.144 A 
BRANCH  33  34
ATOM     34  O   UNL     1      -2.622  -6.346   1.330  0.00  0.00    -0.490 OA
BRANCH  34  35
ATOM     35  C   UNL     1      -2.600  -7.764   1.508  0.00  0.00    +0.226 C 
ATOM     36  C   UNL     1      -1.781  -8.110   2.753  0.00  0.00    +0.048 C 
ENDBRANCH  34  35
ENDBRANCH  33  34
ENDBRANCH   7  28
TORSDOF 5
