REMARK  Name = ZINC06007120
REMARK  17 active torsions:
REMARK  status: ('A' for Active; 'I' for Inactive)
REMARK    1  A    between atoms: C_2  and  C_9
REMARK    2  A    between atoms: C_4  and  O_8
REMARK    3  A    between atoms: C_5  and  O_7
REMARK    4  A    between atoms: C_10  and  C_11
REMARK    5  A    between atoms: C_10  and  C_35
REMARK    6  A    between atoms: N_13  and  C_14
REMARK    7  A    between atoms: C_14  and  C_15
REMARK    8  A    between atoms: C_15  and  C_16
REMARK    9  A    between atoms: C_16  and  C_17
REMARK   10  A    between atoms: C_17  and  C_18
REMARK   11  A    between atoms: C_18  and  C_19
REMARK   12  A    between atoms: C_19  and  N_20
REMARK   13  A    between atoms: C_21  and  C_23
REMARK   14  A    between atoms: C_23  and  C_33
REMARK   15  A    between atoms: C_24  and  C_25
REMARK   16  A    between atoms: C_27  and  O_32
REMARK   17  A    between atoms: C_28  and  O_31
REMARK                            x       y       z     vdW  Elec       q    Type
REMARK                         _______ _______ _______ _____ _____    ______ ____
ROOT
ATOM      1  C   UNL     1      -2.646   9.893  -0.292  0.00  0.00    +0.002 C 
ENDROOT
BRANCH   1   2
ATOM      2  C   UNL     1      -4.085  10.373  -0.493  0.00  0.00    +0.002 C 
BRANCH   2   3
ATOM      3  C   UNL     1      -4.108  11.902  -0.556  0.00  0.00    +0.019 C 
BRANCH   3   4
ATOM      4  C   UNL     1      -5.547  12.381  -0.757  0.00  0.00    +0.104 C 
BRANCH   4   5
ATOM      5  N   UNL     1      -5.570  13.845  -0.817  0.00  0.00    -0.311 N 
ATOM      6  C   UNL     1      -6.738  14.494  -0.990  0.00  0.00    +0.254 C 
ATOM      7  O   UNL     1      -7.774  13.865  -1.097  0.00  0.00    -0.269 OA
ATOM      8  H   UNL     1      -4.744  14.347  -0.732  0.00  0.00    +0.149 HD
BRANCH   6   9
ATOM      9  C   UNL     1      -6.761  15.964  -1.051  0.00  0.00    +0.114 C 
ATOM     10  C   UNL     1      -7.956  16.628  -1.228  0.00  0.00    +0.032 C 
BRANCH  10  11
ATOM     11  C   UNL     1      -7.964  18.076  -1.441  0.00  0.00    -0.020 A 
ATOM     12  C   UNL     1      -6.875  18.702  -2.065  0.00  0.00    +0.057 A 
ATOM     13  C   UNL     1      -6.889  20.067  -2.263  0.00  0.00    +0.159 A 
ATOM     14  C   UNL     1      -7.984  20.823  -1.841  0.00  0.00    +0.158 A 
ATOM     15  C   UNL     1      -9.064  20.205  -1.222  0.00  0.00    +0.050 A 
ATOM     16  C   UNL     1      -9.062  18.842  -1.026  0.00  0.00    +0.012 A 
BRANCH  13  17
ATOM     17  O   UNL     1      -5.835  20.677  -2.868  0.00  0.00    -0.503 OA
ATOM     18  H   UNL     1      -5.914  20.736  -3.829  0.00  0.00    +0.292 HD
ENDBRANCH  13  17
BRANCH  14  19
ATOM     19  O   UNL     1      -7.995  22.166  -2.037  0.00  0.00    -0.503 OA
ATOM     20  H   UNL     1      -8.382  22.438  -2.881  0.00  0.00    +0.292 HD
ENDBRANCH  14  19
ENDBRANCH  10  11
BRANCH   9  21
ATOM     21  C   UNL     1      -5.542  16.705  -0.926  0.00  0.00    +0.104 C 
ATOM     22  N   UNL     1      -4.575  17.293  -0.826  0.00  0.00    -0.191 NA
ENDBRANCH   9  21
ENDBRANCH   6   9
ENDBRANCH   4   5
ENDBRANCH   3   4
ENDBRANCH   2   3
ENDBRANCH   1   2
BRANCH   1  23
ATOM     23  C   UNL     1      -2.622   8.365  -0.229  0.00  0.00    +0.019 C 
BRANCH  23  24
ATOM     24  C   UNL     1      -1.183   7.885  -0.028  0.00  0.00    +0.104 C 
BRANCH  24  27
ATOM     25  C   UNL     1       0.008   5.772   0.205  0.00  0.00    +0.254 C 
ATOM     26  O   UNL     1       1.044   6.402   0.312  0.00  0.00    -0.269 OA
ATOM     27  N   UNL     1      -1.160   6.421   0.032  0.00  0.00    -0.311 N 
ATOM     28  H   UNL     1      -1.986   5.920  -0.053  0.00  0.00    +0.149 HD
BRANCH  25  30
ATOM     29  C   UNL     1       1.226   3.639   0.443  0.00  0.00    +0.032 C 
ATOM     30  C   UNL     1       0.031   4.302   0.266  0.00  0.00    +0.114 C 
BRANCH  29  32
ATOM     31  C   UNL     1       2.221   1.458   1.097  0.00  0.00    +0.012 A 
ATOM     32  C   UNL     1       1.271   2.178   0.357  0.00  0.00    -0.020 A 
ATOM     33  C   UNL     1       0.365   1.492  -0.465  0.00  0.00    +0.057 A 
ATOM     34  C   UNL     1       0.413   0.116  -0.541  0.00  0.00    +0.159 A 
ATOM     35  C   UNL     1       1.361  -0.592   0.199  0.00  0.00    +0.158 A 
ATOM     36  C   UNL     1       2.260   0.085   1.014  0.00  0.00    +0.050 A 
BRANCH  35  37
ATOM     37  O   UNL     1       1.406  -1.947   0.122  0.00  0.00    -0.503 OA
ATOM     38  H   UNL     1       1.987  -2.282  -0.574  0.00  0.00    +0.292 HD
ENDBRANCH  35  37
BRANCH  34  39
ATOM     39  O   UNL     1      -0.465  -0.552  -1.336  0.00  0.00    -0.503 OA
ATOM     40  H   UNL     1      -0.150  -0.689  -2.241  0.00  0.00    +0.292 HD
ENDBRANCH  34  39
ENDBRANCH  29  32
BRANCH  30  41
ATOM     41  C   UNL     1      -1.188   3.561   0.141  0.00  0.00    +0.104 C 
ATOM     42  N   UNL     1      -2.155   2.974   0.041  0.00  0.00    -0.191 NA
ENDBRANCH  30  41
ENDBRANCH  25  30
ENDBRANCH  24  27
ENDBRANCH  23  24
ENDBRANCH   1  23
TORSDOF 17
