REMARK  Name = ZINC13831071
REMARK  4 active torsions:
REMARK  status: ('A' for Active; 'I' for Inactive)
REMARK    1  A    between atoms: C_6  and  C_7
REMARK    2  A    between atoms: C_10  and  C_24
REMARK    3  A    between atoms: C_13  and  C_15
REMARK    4  A    between atoms: C_29  and  O_30
REMARK                            x       y       z     vdW  Elec       q    Type
REMARK                         _______ _______ _______ _____ _____    ______ ____
ROOT
ATOM      1  C   UNL     1      -1.293  -0.775   0.011  0.00  0.00    +0.081 C 
ATOM      2  N   UNL     1      -1.097  -2.056  -0.677  0.00  0.00    +0.401 N 
ATOM      3  C   UNL     1      -2.398  -2.729  -0.813  0.00  0.00    -0.028 C 
ATOM      4  C   UNL     1      -3.250  -1.933  -1.806  0.00  0.00    +0.044 C 
ATOM      5  C   UNL     1      -3.199  -0.473  -1.448  0.00  0.00    +0.040 C 
ATOM      6  N   UNL     1      -2.325   0.014  -0.649  0.00  0.00    -0.299 NA
ATOM      7  H   UNL     1      -0.704  -1.891  -1.592  0.00  0.00    -0.081 HD
ATOM      8  H   UNL     1      -0.470  -2.636  -0.139  0.00  0.00    -0.081 HD
ENDROOT
BRANCH   5   9
ATOM      9  C   UNL     1      -4.197   0.435  -2.043  0.00  0.00    -0.001 A 
ATOM     10  C   UNL     1      -5.168  -0.065  -2.915  0.00  0.00    +0.013 A 
ATOM     11  C   UNL     1      -6.100   0.785  -3.469  0.00  0.00    +0.050 A 
ATOM     12  C   UNL     1      -6.079   2.139  -3.165  0.00  0.00    +0.166 A 
ATOM     13  C   UNL     1      -5.112   2.645  -2.295  0.00  0.00    +0.167 A 
ATOM     14  C   UNL     1      -4.178   1.797  -1.732  0.00  0.00    +0.059 A 
ATOM     15  O   UNL     1      -5.306   3.990  -2.163  0.00  0.00    -0.453 OA
ATOM     16  C   UNL     1      -6.141   4.368  -3.274  0.00  0.00    +0.466 C 
ATOM     17  O   UNL     1      -6.876   3.168  -3.575  0.00  0.00    -0.453 OA
ENDBRANCH   5   9
BRANCH   1  23
ATOM     18  C   UNL     1      -0.017   1.378   0.010  0.00  0.00    +0.005 A 
ATOM     19  C   UNL     1       1.171   2.086   0.002  0.00  0.00    +0.020 A 
ATOM     20  C   UNL     1       2.378   1.410  -0.013  0.00  0.00    +0.041 A 
ATOM     21  C   UNL     1       2.396   0.027  -0.021  0.00  0.00    +0.020 A 
ATOM     22  C   UNL     1       1.208  -0.679  -0.013  0.00  0.00    +0.005 A 
ATOM     23  C   UNL     1       0.002  -0.004   0.002  0.00  0.00    -0.040 A 
ATOM     24 CL   UNL     1       3.870   2.298  -0.023  0.00  0.00    -0.084 Cl
ENDBRANCH   1  23
BRANCH   3  25
ATOM     25  C   UNL     1      -2.194  -4.131  -1.327  0.00  0.00    -0.018 A 
ATOM     26  C   UNL     1      -1.018  -4.467  -1.969  0.00  0.00    +0.020 A 
ATOM     27  C   UNL     1      -0.830  -5.754  -2.441  0.00  0.00    +0.018 A 
ATOM     28  C   UNL     1      -1.819  -6.707  -2.271  0.00  0.00    +0.019 A 
ATOM     29  C   UNL     1      -2.996  -6.375  -1.629  0.00  0.00    +0.047 A 
ATOM     30  C   UNL     1      -3.184  -5.087  -1.150  0.00  0.00    +0.119 A 
ATOM     31 BR   UNL     1       0.780  -6.211  -3.321  0.00  0.00    -0.050 Br
BRANCH  30  32
ATOM     32  O   UNL     1      -4.340  -4.759  -0.514  0.00  0.00    -0.507 OA
ATOM     33  H   UNL     1      -5.035  -4.434  -1.102  0.00  0.00    +0.292 HD
ENDBRANCH  30  32
ENDBRANCH   3  25
TORSDOF 4
