REMARK  Name = ZINC09969422
REMARK  4 active torsions:
REMARK  status: ('A' for Active; 'I' for Inactive)
REMARK    1  A    between atoms: C_4  and  C_7
REMARK    2  A    between atoms: C_7  and  C_9
REMARK    3  A    between atoms: C_17  and  N_18
REMARK    4  A    between atoms: N_21  and  C_24
REMARK                            x       y       z     vdW  Elec       q    Type
REMARK                         _______ _______ _______ _____ _____    ______ ____
ROOT
ATOM      1  C   UNL     1      -6.309  -1.187  -0.038  0.00  0.00    +0.060 A 
ATOM      2  C   UNL     1      -7.139  -2.102  -0.709  0.00  0.00    +0.096 A 
ATOM      3  C   UNL     1      -7.917  -0.469  -2.159  0.00  0.00    +0.052 A 
ATOM      4  C   UNL     1      -8.735  -0.108  -3.239  0.00  0.00    +0.075 A 
ATOM      5  C   UNL     1      -8.753   1.197  -3.683  0.00  0.00    +0.164 A 
ATOM      6  C   UNL     1      -7.959   2.172  -3.063  0.00  0.00    +0.163 A 
ATOM      7  C   UNL     1      -7.153   1.842  -2.010  0.00  0.00    +0.061 A 
ATOM      8  C   UNL     1      -7.118   0.521  -1.540  0.00  0.00    +0.024 A 
ATOM      9  C   UNL     1      -6.294   0.156  -0.450  0.00  0.00    +0.051 A 
ATOM     10  O   UNL     1      -7.981   3.463  -3.497  0.00  0.00    -0.485 OA
ATOM     11  C   UNL     1      -8.521   3.694  -4.802  0.00  0.00    +0.270 C 
ATOM     12  C   UNL     1      -9.837   2.913  -4.923  0.00  0.00    +0.270 C 
ATOM     13  O   UNL     1      -9.552   1.523  -4.736  0.00  0.00    -0.485 OA
ATOM     14  N   UNL     1      -7.937  -1.792  -1.751  0.00  0.00    -0.360 N 
ATOM     15  H   UNL     1      -8.524  -2.495  -2.215  0.00  0.00    +0.165 HD
ENDROOT
BRANCH   9  16
ATOM     16  N   UNL     1      -5.498   1.086   0.184  0.00  0.00    -0.326 N 
ATOM     17  C   UNL     1      -5.956   1.319   1.561  0.00  0.00    +0.124 C 
ATOM     18  C   UNL     1      -5.098   2.413   2.202  0.00  0.00    +0.124 C 
ATOM     19  N   UNL     1      -3.688   2.000   2.182  0.00  0.00    -0.327 N 
ATOM     20  C   UNL     1      -3.230   1.766   0.805  0.00  0.00    +0.124 C 
ATOM     21  C   UNL     1      -4.088   0.673   0.164  0.00  0.00    +0.124 C 
BRANCH  19  22
ATOM     22  C   UNL     1      -2.882   2.943   2.824  0.00  0.00    +0.031 A 
ATOM     23  C   UNL     1      -1.510   2.739   2.914  0.00  0.00    +0.023 A 
ATOM     24  C   UNL     1      -0.714   3.676   3.544  0.00  0.00    +0.003 A 
ATOM     25  C   UNL     1      -1.281   4.812   4.090  0.00  0.00    +0.020 A 
ATOM     26  C   UNL     1      -2.648   5.016   4.008  0.00  0.00    +0.043 A 
ATOM     27  C   UNL     1      -3.450   4.082   3.378  0.00  0.00    +0.043 A 
ATOM     28 CL   UNL     1      -3.355   6.445   4.694  0.00  0.00    -0.083 Cl
ENDBRANCH  19  22
ENDBRANCH   9  16
BRANCH   1  29
ATOM     29  C   UNL     1      -5.470  -1.630   1.085  0.00  0.00    +0.196 C 
ATOM     30  O   UNL     1      -5.823  -1.415   2.229  0.00  0.00    -0.287 OA
BRANCH  29  34
ATOM     31  C   UNL     1      -1.815  -3.660   0.335  0.00  0.00    +0.000 A 
ATOM     32  C   UNL     1      -2.154  -3.307   1.630  0.00  0.00    +0.001 A 
ATOM     33  C   UNL     1      -3.339  -2.647   1.880  0.00  0.00    +0.012 A 
ATOM     34  C   UNL     1      -4.198  -2.337   0.824  0.00  0.00    +0.022 A 
ATOM     35  C   UNL     1      -3.853  -2.702  -0.479  0.00  0.00    +0.012 A 
ATOM     36  C   UNL     1      -2.662  -3.357  -0.716  0.00  0.00    +0.001 A 
ENDBRANCH  29  34
ENDBRANCH   1  29
TORSDOF 4
