REMARK  Name = ZINC39276894
REMARK  2 active torsions:
REMARK  status: ('A' for Active; 'I' for Inactive)
REMARK    1  A    between atoms: N_16  and  N_17
REMARK    2  A    between atoms: C_23  and  N_28
REMARK                            x       y       z     vdW  Elec       q    Type
REMARK                         _______ _______ _______ _____ _____    ______ ____
ROOT
ATOM      1  C   UNL     1      -0.017   1.399   0.010  0.00  0.00    +0.022 A 
ATOM      2  C   UNL     1       1.110   2.141   0.003  0.00  0.00    +0.027 A 
ATOM      3  C   UNL     1       2.386   1.516  -0.013  0.00  0.00    +0.043 A 
ATOM      4  N   UNL     1       3.603   2.013   0.005  0.00  0.00    -0.372 N 
ATOM      5  C   UNL     1       4.551   0.913  -0.131  0.00  0.00    +0.153 C 
ATOM      6  C   UNL     1       3.718  -0.354  -0.009  0.00  0.00    -0.033 C 
ATOM      7  C   UNL     1       2.436   0.032  -0.010  0.00  0.00    +0.001 A 
ATOM      8  C   UNL     1       1.162  -0.700  -0.007  0.00  0.00    +0.030 A 
ATOM      9  C   UNL     1       0.002  -0.004   0.002  0.00  0.00    +0.042 A 
ATOM     10 CL   UNL     1      -1.503  -0.870   0.005  0.00  0.00    -0.084 Cl
ATOM     11  C   UNL     1       4.340  -1.713   0.181  0.00  0.00    +0.034 C 
ATOM     12  C   UNL     1       5.285  -1.611   1.389  0.00  0.00    +0.010 C 
ATOM     13  C   UNL     1       6.276  -0.463   1.202  0.00  0.00    +0.055 C 
ATOM     14  C   UNL     1       5.552   0.858   1.002  0.00  0.00    +0.067 C 
ATOM     15  N   UNL     1       5.771   1.885   1.771  0.00  0.00    -0.155 NA
ATOM     16  H   UNL     1       3.831   2.951   0.093  0.00  0.00    +0.161 HD
ENDROOT
BRANCH  15  17
ATOM     17  N   UNL     1       6.632   1.803   2.727  0.00  0.00    -0.144 NA
ATOM     18  C   UNL     1       6.853   2.841   3.504  0.00  0.00    +0.157 C 
ATOM     19  C   UNL     1       6.210   4.170   3.435  0.00  0.00    +0.032 A 
ATOM     20  C   UNL     1       5.241   4.717   2.598  0.00  0.00    +0.027 A 
ATOM     21  C   UNL     1       4.832   6.023   2.787  0.00  0.00    +0.021 A 
ATOM     22  C   UNL     1       5.385   6.783   3.805  0.00  0.00    +0.050 A 
ATOM     23  C   UNL     1       6.346   6.249   4.639  0.00  0.00    +0.149 A 
ATOM     24  C   UNL     1       6.771   4.937   4.466  0.00  0.00    +0.074 A 
ATOM     25  N   UNL     1       7.707   4.170   5.154  0.00  0.00    -0.278 N 
ATOM     26  C   UNL     1       7.797   2.931   4.643  0.00  0.00    +0.269 C 
ATOM     27  O   UNL     1       8.524   2.042   5.043  0.00  0.00    -0.268 OA
ATOM     28 BR   UNL     1       3.517   6.774   1.654  0.00  0.00    -0.050 Br
ATOM     29  H   UNL     1       8.225   4.489   5.910  0.00  0.00    +0.155 HD
BRANCH  23  30
ATOM     30  N   UNL     1       6.927   7.076   5.721  0.00  0.00    +0.058 N 
ATOM     31  O   UNL     1       6.558   8.217   5.873  0.00  0.00    -0.126 OA
ATOM     32  O   UNL     1       7.769   6.610   6.453  0.00  0.00    -0.126 OA
ENDBRANCH  23  30
ENDBRANCH  15  17
TORSDOF 2
