REMARK  Name = ZINC46914386
REMARK  12 active torsions:
REMARK  status: ('A' for Active; 'I' for Inactive)
REMARK    1  A    between atoms: C_1  and  C_2
REMARK    2  A    between atoms: C_5  and  C_8
REMARK    3  A    between atoms: C_10  and  C_13
REMARK    4  A    between atoms: C_14  and  N_34
REMARK    5  A    between atoms: N_15  and  C_20
REMARK    6  A    between atoms: C_17  and  S_18
REMARK    7  A    between atoms: S_18  and  C_19
REMARK    8  A    between atoms: C_20  and  C_21
REMARK    9  A    between atoms: N_23  and  C_24
REMARK   10  A    between atoms: C_26  and  C_33
REMARK   11  A    between atoms: C_29  and  O_30
REMARK   12  A    between atoms: O_30  and  C_31
REMARK                            x       y       z     vdW  Elec       q    Type
REMARK                         _______ _______ _______ _____ _____    ______ ____
ROOT
ATOM      1  C   UNL     1       0.101  -7.460   1.644  0.00  0.00    +0.112 A 
ATOM      2  C   UNL     1       0.120  -8.799   1.269  0.00  0.00    +0.129 A 
ATOM      3  N   UNL     1       0.136  -9.532   2.402  0.00  0.00    -0.240 N 
ATOM      4  N   UNL     1       0.128  -8.662   3.497  0.00  0.00    -0.162 NA
ATOM      5  C   UNL     1       0.113  -7.426   3.063  0.00  0.00    +0.133 A 
ENDROOT
BRANCH   1   8
ATOM      6  C   UNL     1       0.049  -4.245   0.027  0.00  0.00    +0.202 A 
ATOM      7  N   UNL     1       0.067  -5.035   1.111  0.00  0.00    -0.187 NA
ATOM      8  C   UNL     1       0.080  -6.299   0.743  0.00  0.00    +0.265 A 
ATOM      9  O   UNL     1       0.070  -6.344  -0.602  0.00  0.00    -0.332 OA
ATOM     10  N   UNL     1       0.045  -4.996  -1.047  0.00  0.00    -0.056 NA
BRANCH   6  15
ATOM     11  C   UNL     1      -0.025   1.515   0.083  0.00  0.00    +0.044 C 
ATOM     12  C   UNL     1      -0.006   0.008   0.068  0.00  0.00    -0.050 A 
ATOM     13  C   UNL     1      -0.011  -0.670  -1.138  0.00  0.00    +0.004 A 
ATOM     14  C   UNL     1       0.006  -2.050  -1.157  0.00  0.00    +0.012 A 
ATOM     15  C   UNL     1       0.030  -2.760   0.041  0.00  0.00    +0.022 A 
ATOM     16  C   UNL     1       0.036  -2.073   1.253  0.00  0.00    +0.012 A 
ATOM     17  C   UNL     1       0.023  -0.693   1.260  0.00  0.00    +0.004 A 
ENDBRANCH   6  15
ENDBRANCH   1   8
BRANCH   2  18
ATOM     18  N   UNL     1       0.122  -9.288  -0.024  0.00  0.00    -0.343 N 
ATOM     19  H   UNL     1       0.109  -8.674  -0.775  0.00  0.00    +0.144 HD
ATOM     20  H   UNL     1       0.136 -10.245  -0.181  0.00  0.00    +0.144 HD
ENDBRANCH   2  18
BRANCH   5  21
ATOM     21  S   UNL     1       0.105  -5.977   4.065  0.00  0.00    -0.107 S 
ATOM     22  C   UNL     1       0.126  -6.616   5.762  0.00  0.00    +0.091 C 
ENDBRANCH   5  21
BRANCH   3  23
ATOM     23  C   UNL     1       0.159 -10.995   2.472  0.00  0.00    +0.241 C 
BRANCH  23  24
ATOM     24  C   UNL     1       1.587 -11.475   2.491  0.00  0.00    +0.239 C 
ATOM     25  O   UNL     1       2.497 -10.674   2.449  0.00  0.00    -0.273 OA
ATOM     26  N   UNL     1       1.854 -12.795   2.554  0.00  0.00    -0.281 N 
ATOM     27  H   UNL     1       1.129 -13.432   2.652  0.00  0.00    +0.155 HD
BRANCH  26  28
ATOM     28  C   UNL     1       3.178 -13.247   2.477  0.00  0.00    +0.076 A 
ATOM     29  C   UNL     1       4.203 -12.495   3.032  0.00  0.00    +0.031 A 
ATOM     30  C   UNL     1       5.508 -12.942   2.955  0.00  0.00    -0.030 A 
ATOM     31  C   UNL     1       5.797 -14.139   2.324  0.00  0.00    +0.047 A 
ATOM     32  C   UNL     1       4.780 -14.894   1.768  0.00  0.00    +0.067 A 
ATOM     33  C   UNL     1       3.468 -14.455   1.847  0.00  0.00    +0.143 A 
ATOM     34 CL   UNL     1       7.439 -14.695   2.230  0.00  0.00    -0.083 Cl
ATOM     35  C   UNL     1       6.620 -12.123   3.559  0.00  0.00    +0.045 C 
BRANCH  33  36
ATOM     36  O   UNL     1       2.466 -15.199   1.306  0.00  0.00    -0.493 OA
ATOM     37  C   UNL     1       2.838 -16.426   0.676  0.00  0.00    +0.277 C 
ENDBRANCH  33  36
ENDBRANCH  26  28
ENDBRANCH  23  24
ENDBRANCH   3  23
TORSDOF 8
