REMARK  Name = ZINC02614748
REMARK  6 active torsions:
REMARK  status: ('A' for Active; 'I' for Inactive)
REMARK    1  A    between atoms: C_1  and  C_2
REMARK    2  A    between atoms: C_2  and  C_4
REMARK    3  A    between atoms: C_2  and  N_17
REMARK    4  A    between atoms: N_6  and  C_7
REMARK    5  A    between atoms: C_12  and  C_13
REMARK    6  A    between atoms: C_24  and  C_27
REMARK                            x       y       z     vdW  Elec       q    Type
REMARK                         _______ _______ _______ _____ _____    ______ ____
ROOT
ATOM      1  N   UNL     1       2.406   1.042   0.006  0.00  0.00    -0.287 N 
ATOM      2  C   UNL     1       2.542   0.152   1.022  0.00  0.00    +0.204 A 
ATOM      3  N   UNL     1       3.533  -0.699   1.047  0.00  0.00    -0.230 NA
ATOM      4  C   UNL     1       4.442  -0.721   0.076  0.00  0.00    +0.116 A 
ATOM      5  C   UNL     1       4.383   0.161  -1.016  0.00  0.00    +0.080 A 
ATOM      6  C   UNL     1       3.283   1.076  -1.015  0.00  0.00    +0.263 A 
ATOM      7  O   UNL     1       3.144   1.878  -1.923  0.00  0.00    -0.267 OA
ATOM      8  C   UNL     1       5.454   0.006  -1.993  0.00  0.00    +0.004 A 
ATOM      9  C   UNL     1       6.396  -0.945  -1.783  0.00  0.00    +0.056 A 
ATOM     10  S   UNL     1       5.891  -1.693  -0.245  0.00  0.00    -0.076 S 
ENDROOT
BRANCH   8  11
ATOM     11  C   UNL     1       5.511   0.873  -3.194  0.00  0.00    -0.016 A 
ATOM     12  C   UNL     1       4.383   1.030  -3.998  0.00  0.00    +0.011 A 
ATOM     13  C   UNL     1       4.440   1.842  -5.112  0.00  0.00    +0.039 A 
ATOM     14  C   UNL     1       5.619   2.492  -5.439  0.00  0.00    +0.123 A 
ATOM     15  C   UNL     1       6.744   2.335  -4.646  0.00  0.00    +0.039 A 
ATOM     16  C   UNL     1       6.696   1.530  -3.527  0.00  0.00    +0.011 A 
ATOM     17  F   UNL     1       5.671   3.281  -6.534  0.00  0.00    -0.205 F 
ENDBRANCH   8  11
BRANCH   1  19
ATOM     18  C   UNL     1       1.353   2.848   1.274  0.00  0.00    +0.041 C 
ATOM     19  C   UNL     1       1.280   1.979   0.017  0.00  0.00    +0.174 C 
BRANCH  19  20
ATOM     20  C   UNL     1      -0.015   1.208   0.014  0.00  0.00    +0.240 C 
ATOM     21  O   UNL     1       0.001  -0.004   0.003  0.00  0.00    -0.273 OA
ATOM     22  N   UNL     1      -1.191   1.867   0.018  0.00  0.00    -0.283 N 
ATOM     23  H   UNL     1      -1.205   2.834   0.092  0.00  0.00    +0.155 HD
BRANCH  22  24
ATOM     24  C   UNL     1      -2.391   1.155  -0.086  0.00  0.00    +0.045 A 
ATOM     25  C   UNL     1      -2.510  -0.099   0.499  0.00  0.00    +0.024 A 
ATOM     26  C   UNL     1      -3.697  -0.796   0.399  0.00  0.00    +0.002 A 
ATOM     27  C   UNL     1      -4.764  -0.252  -0.292  0.00  0.00    +0.001 A 
ATOM     28  C   UNL     1      -4.648   0.994  -0.880  0.00  0.00    +0.014 A 
ATOM     29  C   UNL     1      -3.464   1.699  -0.779  0.00  0.00    +0.076 A 
BRANCH  29  30
ATOM     30  C   UNL     1      -3.338   3.057  -1.421  0.00  0.00    +0.419 C 
ATOM     31  F   UNL     1      -4.540   3.386  -2.055  0.00  0.00    -0.166 F 
ATOM     32  F   UNL     1      -3.051   4.011  -0.439  0.00  0.00    -0.166 F 
ATOM     33  F   UNL     1      -2.305   3.032  -2.364  0.00  0.00    -0.166 F 
ENDBRANCH  29  30
ENDBRANCH  22  24
ENDBRANCH  19  20
ENDBRANCH   1  19
TORSDOF 5
