REMARK  Name = ZINC39456158
REMARK  5 active torsions:
REMARK  status: ('A' for Active; 'I' for Inactive)
REMARK    1  A    between atoms: C_1  and  C_2
REMARK    2  A    between atoms: C_2  and  O_3
REMARK    3  A    between atoms: O_3  and  C_4
REMARK    4  A    between atoms: C_23  and  S_26
REMARK    5  A    between atoms: S_26  and  C_29
REMARK                            x       y       z     vdW  Elec       q    Type
REMARK                         _______ _______ _______ _____ _____    ______ ____
ROOT
ATOM      1  C   UNL     1      -1.498  -1.846   0.006  0.00  0.00    +0.130 A 
ATOM      2  C   UNL     1      -0.400  -2.679  -0.003  0.00  0.00    +0.046 A 
ATOM      3  C   UNL     1      -0.542  -4.061  -0.009  0.00  0.00    +0.006 A 
ATOM      4  C   UNL     1      -1.766  -4.659  -0.006  0.00  0.00    +0.028 A 
ATOM      5  C   UNL     1      -2.930  -3.871   0.002  0.00  0.00    +0.075 A 
ATOM      6  C   UNL     1      -2.789  -2.412   0.016  0.00  0.00    +0.043 A 
ATOM      7  C   UNL     1      -3.944  -1.619   0.033  0.00  0.00    +0.029 A 
ATOM      8  C   UNL     1      -5.173  -2.265   0.039  0.00  0.00    +0.070 A 
ATOM      9  C   UNL     1      -5.236  -3.684   0.029  0.00  0.00    +0.100 A 
ATOM     10  N   UNL     1      -4.143  -4.423   0.003  0.00  0.00    -0.244 NA
ATOM     11  C   UNL     1      -6.568  -4.315   0.032  0.00  0.00    +0.085 A 
ATOM     12  C   UNL     1      -7.702  -3.529   0.050  0.00  0.00    +0.144 A 
ATOM     13  N   UNL     1      -7.611  -2.141   0.060  0.00  0.00    -0.136 N 
ATOM     14  C   UNL     1      -6.429  -1.500   0.056  0.00  0.00    +0.289 A 
ATOM     15  O   UNL     1      -6.398  -0.283   0.067  0.00  0.00    -0.265 OA
ATOM     16  F   UNL     1      -8.705  -1.440   0.073  0.00  0.00    -0.090 F 
ATOM     17  C   UNL     1      -8.979  -4.136   0.062  0.00  0.00    +0.187 C 
ATOM     18  O   UNL     1      -9.975  -3.443   0.028  0.00  0.00    -0.290 OA
ATOM     19  C   UNL     1      -9.115  -5.636   0.116  0.00  0.00    +0.127 C 
ATOM     20  C   UNL     1      -7.902  -6.281  -0.564  0.00  0.00    +0.227 C 
ATOM     21  N   UNL     1      -6.684  -5.692   0.014  0.00  0.00    -0.319 N 
ATOM     22  H   UNL     1      -5.980  -6.255   0.372  0.00  0.00    +0.148 HD
ENDROOT
BRANCH  20  23
ATOM     23  S   UNL     1      -7.954  -5.954  -2.347  0.00  0.00    +0.016 S 
ATOM     24  O   UNL     1      -9.046  -6.645  -2.939  0.00  0.00    -0.168 OA
ATOM     25  O   UNL     1      -7.751  -4.570  -2.598  0.00  0.00    -0.168 OA
BRANCH  23  26
ATOM     26  C   UNL     1      -6.518  -6.744  -2.994  0.00  0.00    +0.090 A 
ATOM     27  C   UNL     1      -5.326  -6.049  -3.078  0.00  0.00    +0.027 A 
ATOM     28  C   UNL     1      -4.199  -6.669  -3.586  0.00  0.00    +0.002 A 
ATOM     29  C   UNL     1      -4.265  -7.983  -4.010  0.00  0.00    +0.000 A 
ATOM     30  C   UNL     1      -5.457  -8.678  -3.926  0.00  0.00    +0.002 A 
ATOM     31  C   UNL     1      -6.582  -8.059  -3.414  0.00  0.00    +0.027 A 
ENDBRANCH  23  26
ENDBRANCH  20  23
BRANCH   1  32
ATOM     32  O   UNL     1      -1.339  -0.499   0.012  0.00  0.00    -0.492 OA
BRANCH  32  34
ATOM     33  C   UNL     1      -0.019   1.526   0.010  0.00  0.00    +0.048 C 
ATOM     34  C   UNL     1       0.002  -0.004   0.002  0.00  0.00    +0.226 C 
ENDBRANCH  32  34
ENDBRANCH   1  32
TORSDOF 4
