REMARK  Name = ZINC12536733
REMARK  6 active torsions:
REMARK  status: ('A' for Active; 'I' for Inactive)
REMARK    1  A    between atoms: C_1  and  C_2
REMARK    2  A    between atoms: C_2  and  C_4
REMARK    3  A    between atoms: C_2  and  O_7
REMARK    4  A    between atoms: O_7  and  C_8
REMARK    5  A    between atoms: C_8  and  C_10
REMARK    6  A    between atoms: C_15  and  N_16
REMARK                            x       y       z     vdW  Elec       q    Type
REMARK                         _______ _______ _______ _____ _____    ______ ____
ROOT
ATOM      1  C   UNL     1      -1.264  -0.757  -0.002  0.00  0.00    +0.082 A 
ATOM      2  C   UNL     1      -2.483  -0.083   0.119  0.00  0.00    +0.032 A 
ATOM      3  C   UNL     1      -3.663  -0.795   0.137  0.00  0.00    +0.020 A 
ATOM      4  C   UNL     1      -3.649  -2.178   0.036  0.00  0.00    +0.032 A 
ATOM      5  C   UNL     1      -2.453  -2.858  -0.084  0.00  0.00    +0.040 A 
ATOM      6  C   UNL     1      -1.253  -2.156  -0.109  0.00  0.00    +0.053 A 
ATOM      7 BR   UNL     1      -2.448  -4.744  -0.221  0.00  0.00    -0.048 Br
ATOM      8 BR   UNL     1      -5.311   0.119   0.300  0.00  0.00    -0.050 Br
ENDROOT
BRANCH   6   9
ATOM      9  N   UNL     1      -0.049  -2.837  -0.235  0.00  0.00    -0.356 N 
ATOM     10  H   UNL     1       0.790  -2.356  -0.169  0.00  0.00    +0.142 HD
ATOM     11  H   UNL     1      -0.047  -3.795  -0.390  0.00  0.00    +0.142 HD
ENDBRANCH   6   9
BRANCH   1  12
ATOM     12  C   UNL     1       0.001  -0.002  -0.022  0.00  0.00    +0.342 C 
ATOM     13  O   UNL     1       1.062  -0.594  -0.018  0.00  0.00    -0.245 OA
BRANCH  12  14
ATOM     14  O   UNL     1      -0.019   1.345  -0.044  0.00  0.00    -0.449 OA
BRANCH  14  16
ATOM     15  C   UNL     1       1.707   2.237  -1.512  0.00  0.00    +0.062 C 
ATOM     16  C   UNL     1       1.265   2.023  -0.063  0.00  0.00    +0.259 C 
BRANCH  16  17
ATOM     17  C   UNL     1       1.139   3.357   0.626  0.00  0.00    +0.251 C 
ATOM     18  O   UNL     1       0.072   3.703   1.088  0.00  0.00    -0.272 OA
ATOM     19  N   UNL     1       2.212   4.166   0.729  0.00  0.00    -0.326 N 
ATOM     20  H   UNL     1       3.065   3.890   0.360  0.00  0.00    +0.145 HD
ATOM     21  H   UNL     1       2.131   5.025   1.173  0.00  0.00    +0.145 HD
ENDBRANCH  16  17
ENDBRANCH  14  16
ENDBRANCH  12  14
ENDBRANCH   1  12
TORSDOF 5
