REMARK  Name = ZINC06631489
REMARK  15 active torsions:
REMARK  status: ('A' for Active; 'I' for Inactive)
REMARK    1  A    between atoms: C_1  and  C_2
REMARK    2  A    between atoms: C_2  and  O_3
REMARK    3  A    between atoms: O_3  and  C_4
REMARK    4  A    between atoms: C_9  and  N_10
REMARK    5  A    between atoms: N_10  and  C_11
REMARK    6  A    between atoms: C_11  and  C_13
REMARK    7  A    between atoms: C_11  and  C_18
REMARK    8  A    between atoms: N_20  and  C_21
REMARK    9  A    between atoms: C_21  and  C_22
REMARK   10  A    between atoms: C_21  and  C_23
REMARK   11  A    between atoms: C_21  and  C_24
REMARK   12  A    between atoms: C_25  and  C_27
REMARK   13  A    between atoms: C_27  and  N_28
REMARK   14  A    between atoms: C_30  and  C_33
REMARK   15  A    between atoms: C_36  and  C_39
REMARK                            x       y       z     vdW  Elec       q    Type
REMARK                         _______ _______ _______ _____ _____    ______ ____
ROOT
ATOM      1  N   UNL     1       0.002  -0.004   0.002  0.00  0.00    -0.247 N 
ATOM      2  C   UNL     1      -0.563  -0.691   1.015  0.00  0.00    +0.244 C 
ATOM      3  O   UNL     1      -1.087  -0.097   1.933  0.00  0.00    -0.273 OA
ENDROOT
BRANCH   1   9
ATOM      4  C   UNL     1      -0.140  -1.049  -2.177  0.00  0.00    +0.142 A 
ATOM      5  C   UNL     1       0.466  -1.723  -3.225  0.00  0.00    +0.047 A 
ATOM      6  C   UNL     1       1.807  -2.048  -3.154  0.00  0.00    +0.004 A 
ATOM      7  C   UNL     1       2.550  -1.698  -2.042  0.00  0.00    +0.002 A 
ATOM      8  C   UNL     1       1.954  -1.021  -0.995  0.00  0.00    +0.027 A 
ATOM      9  C   UNL     1       0.608  -0.691  -1.058  0.00  0.00    +0.079 A 
BRANCH   4  10
ATOM     10  O   UNL     1      -1.462  -0.734  -2.243  0.00  0.00    -0.490 OA
BRANCH  10  12
ATOM     11  C   UNL     1      -3.628  -0.694  -3.313  0.00  0.00    +0.048 C 
ATOM     12  C   UNL     1      -2.166  -1.133  -3.420  0.00  0.00    +0.226 C 
ENDBRANCH  10  12
ENDBRANCH   4  10
ENDBRANCH   1   9
BRANCH   1  13
ATOM     13  C   UNL     1      -0.018   1.461   0.010  0.00  0.00    +0.233 C 
BRANCH  13  14
ATOM     14  C   UNL     1      -0.747   1.960  -1.211  0.00  0.00    +0.135 A 
ATOM     15  C   UNL     1      -1.600   2.999  -1.247  0.00  0.00    +0.047 A 
ATOM     16  C   UNL     1      -2.048   3.114  -2.583  0.00  0.00    +0.041 A 
ATOM     17  C   UNL     1      -1.441   2.139  -3.284  0.00  0.00    +0.195 A 
ATOM     18  O   UNL     1      -0.650   1.447  -2.448  0.00  0.00    -0.465 OA
ENDBRANCH  13  14
BRANCH  13  19
ATOM     19  C   UNL     1       1.396   1.982  -0.001  0.00  0.00    +0.242 C 
ATOM     20  O   UNL     1       2.328   1.207  -0.014  0.00  0.00    -0.273 OA
ATOM     21  N   UNL     1       1.624   3.311   0.004  0.00  0.00    -0.309 N 
ATOM     22  H   UNL     1       0.879   3.931   0.015  0.00  0.00    +0.149 HD
BRANCH  21  23
ATOM     23  C   UNL     1       2.999   3.818  -0.006  0.00  0.00    +0.026 C 
ATOM     24  C   UNL     1       3.715   3.324  -1.265  0.00  0.00    +0.031 C 
ATOM     25  C   UNL     1       2.978   5.348   0.002  0.00  0.00    +0.031 C 
ATOM     26  C   UNL     1       3.739   3.311   1.234  0.00  0.00    +0.031 C 
ENDBRANCH  21  23
ENDBRANCH  13  19
ENDBRANCH   1  13
BRANCH   2  27
ATOM     27  C   UNL     1      -0.542  -2.198   1.006  0.00  0.00    +0.264 C 
BRANCH  27  28
ATOM     28  N   UNL     1      -1.215  -2.702   2.206  0.00  0.00    -0.154 N 
ATOM     29  N   UNL     1      -0.641  -2.954   3.332  0.00  0.00    -0.130 NA
ATOM     30  C   UNL     1      -1.564  -3.386   4.168  0.00  0.00    +0.205 A 
ATOM     31  N   UNL     1      -2.722  -3.391   3.492  0.00  0.00    -0.108 NA
ATOM     32  N   UNL     1      -2.471  -2.968   2.300  0.00  0.00    -0.045 NA
BRANCH  30  33
ATOM     33  C   UNL     1      -1.360  -3.793   5.581  0.00  0.00    +0.023 A 
ATOM     34  C   UNL     1      -0.089  -3.738   6.148  0.00  0.00    +0.012 A 
ATOM     35  C   UNL     1       0.094  -4.113   7.464  0.00  0.00    +0.004 A 
ATOM     36  C   UNL     1      -0.981  -4.552   8.216  0.00  0.00    -0.050 A 
ATOM     37  C   UNL     1      -2.244  -4.613   7.657  0.00  0.00    +0.004 A 
ATOM     38  C   UNL     1      -2.439  -4.236   6.343  0.00  0.00    +0.012 A 
ATOM     39  C   UNL     1      -0.774  -4.966   9.650  0.00  0.00    +0.044 C 
ENDBRANCH  30  33
ENDBRANCH  27  28
ENDBRANCH   2  27
TORSDOF 10
