REMARK  Name = ZINC39325424
REMARK  9 active torsions:
REMARK  status: ('A' for Active; 'I' for Inactive)
REMARK    1  A    between atoms: C_1  and  C_2
REMARK    2  A    between atoms: C_9  and  C_14
REMARK    3  A    between atoms: C_14  and  N_15
REMARK    4  A    between atoms: N_15  and  C_16
REMARK    5  A    between atoms: N_15  and  S_25
REMARK    6  A    between atoms: C_16  and  C_17
REMARK    7  A    between atoms: C_17  and  C_18
REMARK    8  A    between atoms: C_23  and  C_24
REMARK    9  A    between atoms: S_25  and  C_28
REMARK                            x       y       z     vdW  Elec       q    Type
REMARK                         _______ _______ _______ _____ _____    ______ ____
ROOT
ATOM      1  N   UNL     1      -1.009  -6.414   3.027  0.00  0.00    -0.175 NA
ENDROOT
BRANCH   1   2
ATOM      2  S   UNL     1      -1.657  -7.300   1.787  0.00  0.00    +0.061 S 
ATOM      3  O   UNL     1      -2.028  -8.557   2.337  0.00  0.00    -0.153 OA
ATOM      4  O   UNL     1      -2.587  -6.453   1.126  0.00  0.00    -0.153 OA
BRANCH   2   5
ATOM      5  C   UNL     1      -0.359  -7.617   0.639  0.00  0.00    +0.109 A 
ATOM      6  C   UNL     1      -0.207  -6.807  -0.471  0.00  0.00    +0.032 A 
ATOM      7  C   UNL     1       0.809  -7.053  -1.375  0.00  0.00    +0.051 A 
ATOM      8  C   UNL     1       1.681  -8.112  -1.169  0.00  0.00    +0.162 A 
ATOM      9  C   UNL     1       1.530  -8.924  -0.052  0.00  0.00    +0.164 A 
ATOM     10  C   UNL     1       0.510  -8.670   0.853  0.00  0.00    +0.078 A 
ATOM     11  O   UNL     1       2.379  -9.964   0.173  0.00  0.00    -0.485 OA
ATOM     12  C   UNL     1       3.159 -10.411  -0.941  0.00  0.00    +0.270 C 
ATOM     13  C   UNL     1       3.754  -9.179  -1.636  0.00  0.00    +0.270 C 
ATOM     14  O   UNL     1       2.675  -8.344  -2.070  0.00  0.00    -0.485 OA
ENDBRANCH   2   5
ENDBRANCH   1   2
BRANCH   1  15
ATOM     15  C   UNL     1      -1.135  -4.954   3.028  0.00  0.00    +0.126 C 
BRANCH  15  24
ATOM     16  C   UNL     1       0.885   1.691   1.363  0.00  0.00    +0.044 C 
ATOM     17  C   UNL     1       1.000   0.190   1.287  0.00  0.00    -0.050 A 
ATOM     18  C   UNL     1       1.636  -0.391   0.190  0.00  0.00    +0.005 A 
ATOM     19  C   UNL     1       1.778  -1.736   0.052  0.00  0.00    +0.024 A 
ATOM     20  C   UNL     1       1.276  -2.611   1.033  0.00  0.00    +0.040 A 
ATOM     21  N   UNL     1       1.421  -3.928   0.887  0.00  0.00    -0.284 N 
ATOM     22  C   UNL     1       0.973  -4.805   1.769  0.00  0.00    +0.225 C 
ATOM     23  O   UNL     1       1.135  -5.997   1.582  0.00  0.00    -0.275 OA
ATOM     24  C   UNL     1       0.259  -4.323   3.012  0.00  0.00    +0.114 C 
ATOM     25  C   UNL     1       0.092  -2.825   3.182  0.00  0.00    -0.003 C 
ATOM     26  C   UNL     1       0.598  -2.024   2.202  0.00  0.00    -0.007 A 
ATOM     27  C   UNL     1       0.485  -0.568   2.289  0.00  0.00    +0.012 A 
ATOM     28  H   UNL     1       1.876  -4.258   0.097  0.00  0.00    +0.155 HD
ENDBRANCH  15  24
ENDBRANCH   1  15
BRANCH   1  29
ATOM     29  C   UNL     1      -0.310  -7.090   4.123  0.00  0.00    +0.114 C 
BRANCH  29  30
ATOM     30  C   UNL     1      -1.282  -7.321   5.282  0.00  0.00    +0.052 C 
BRANCH  30  31
ATOM     31  C   UNL     1      -0.563  -8.016   6.409  0.00  0.00    -0.043 A 
ATOM     32  C   UNL     1      -0.616  -9.393   6.518  0.00  0.00    +0.004 A 
ATOM     33  C   UNL     1       0.044 -10.031   7.552  0.00  0.00    +0.000 A 
ATOM     34  C   UNL     1       0.756  -9.291   8.477  0.00  0.00    +0.000 A 
ATOM     35  C   UNL     1       0.810  -7.915   8.368  0.00  0.00    +0.003 A 
ATOM     36  C   UNL     1       0.154  -7.277   7.332  0.00  0.00    -0.047 A 
ATOM     37  C   UNL     1       0.216  -5.776   7.210  0.00  0.00    +0.044 C 
ENDBRANCH  30  31
ENDBRANCH  29  30
ENDBRANCH   1  29
TORSDOF 7
