REMARK  Name = ZINC08645323
REMARK  9 active torsions:
REMARK  status: ('A' for Active; 'I' for Inactive)
REMARK    1  A    between atoms: C_1  and  C_2
REMARK    2  A    between atoms: C_2  and  C_25
REMARK    3  A    between atoms: N_5  and  C_9
REMARK    4  A    between atoms: C_9  and  C_10
REMARK    5  A    between atoms: N_12  and  C_13
REMARK    6  A    between atoms: C_17  and  S_19
REMARK    7  A    between atoms: S_19  and  N_22
REMARK    8  A    between atoms: N_22  and  C_23
REMARK    9  A    between atoms: N_22  and  C_24
REMARK                            x       y       z     vdW  Elec       q    Type
REMARK                         _______ _______ _______ _____ _____    ______ ____
ROOT
ATOM      1  C   UNL     1      -3.501   1.309  -1.109  0.00  0.00    +0.047 C 
ATOM      2  C   UNL     1      -2.627   0.892   0.076  0.00  0.00    +0.136 C 
ATOM      3  C   UNL     1      -3.395   1.010   1.377  0.00  0.00    +0.251 C 
ATOM      4  O   UNL     1      -3.870   2.017   1.859  0.00  0.00    -0.272 OA
ATOM      5  N   UNL     1      -3.440  -0.236   1.889  0.00  0.00    -0.215 N 
ATOM      6  C   UNL     1      -2.814  -1.116   1.099  0.00  0.00    +0.310 C 
ATOM      7  O   UNL     1      -2.722  -2.302   1.349  0.00  0.00    -0.252 OA
ATOM      8  N   UNL     1      -2.298  -0.541  -0.002  0.00  0.00    -0.281 N 
ATOM      9  H   UNL     1      -1.805  -0.985  -0.711  0.00  0.00    +0.152 HD
ENDROOT
BRANCH   2  10
ATOM     10  C   UNL     1      -1.371   1.723   0.125  0.00  0.00    -0.008 A 
ATOM     11  C   UNL     1      -0.151   1.124   0.053  0.00  0.00    +0.007 A 
ATOM     12  C   UNL     1       1.022   1.876   0.091  0.00  0.00    +0.001 A 
ATOM     13  C   UNL     1       0.981   3.232   0.206  0.00  0.00    +0.008 A 
ATOM     14  C   UNL     1      -0.260   3.885   0.288  0.00  0.00    -0.018 A 
ATOM     15  C   UNL     1      -1.452   3.120   0.249  0.00  0.00    -0.012 A 
ATOM     16  C   UNL     1      -2.694   3.774   0.332  0.00  0.00    +0.009 A 
ATOM     17  C   UNL     1      -2.734   5.130   0.446  0.00  0.00    +0.001 A 
ATOM     18  C   UNL     1      -1.562   5.882   0.483  0.00  0.00    +0.001 A 
ATOM     19  C   UNL     1      -0.342   5.284   0.406  0.00  0.00    +0.008 A 
ENDBRANCH   2  10
BRANCH   5  20
ATOM     20  C   UNL     1      -4.094  -0.584   3.153  0.00  0.00    +0.214 C 
BRANCH  20  21
ATOM     21  C   UNL     1      -3.102  -0.462   4.281  0.00  0.00    +0.235 C 
ATOM     22  O   UNL     1      -1.962  -0.118   4.052  0.00  0.00    -0.274 OA
ATOM     23  N   UNL     1      -3.483  -0.735   5.545  0.00  0.00    -0.284 N 
ATOM     24  H   UNL     1      -4.376  -1.071   5.721  0.00  0.00    +0.155 HD
BRANCH  23  25
ATOM     25  C   UNL     1      -2.590  -0.534   6.603  0.00  0.00    +0.035 A 
ATOM     26  C   UNL     1      -1.234  -0.781   6.426  0.00  0.00    +0.023 A 
ATOM     27  C   UNL     1      -0.355  -0.577   7.471  0.00  0.00    +0.004 A 
ATOM     28  C   UNL     1      -0.824  -0.137   8.696  0.00  0.00    +0.028 A 
ATOM     29  C   UNL     1      -2.173   0.105   8.876  0.00  0.00    +0.107 A 
ATOM     30  C   UNL     1      -3.057  -0.092   7.834  0.00  0.00    +0.051 A 
BRANCH  29  31
ATOM     31  S   UNL     1      -2.765   0.665  10.438  0.00  0.00    +0.060 S 
ATOM     32  O   UNL     1      -1.668   1.293  11.087  0.00  0.00    -0.153 OA
ATOM     33  O   UNL     1      -3.991   1.339  10.190  0.00  0.00    -0.153 OA
BRANCH  31  34
ATOM     34  N   UNL     1      -3.137  -0.679  11.332  0.00  0.00    -0.183 NA
ATOM     35  C   UNL     1      -2.118  -1.297  12.184  0.00  0.00    +0.131 C 
ATOM     36  C   UNL     1      -4.484  -1.250  11.270  0.00  0.00    +0.131 C 
ENDBRANCH  31  34
ENDBRANCH  29  31
ENDBRANCH  23  25
ENDBRANCH  20  21
ENDBRANCH   5  20
TORSDOF 6
