REMARK  Name = ZINC09245856
REMARK  5 active torsions:
REMARK  status: ('A' for Active; 'I' for Inactive)
REMARK    1  A    between atoms: C_1  and  C_2
REMARK    2  A    between atoms: C_15  and  C_17
REMARK    3  A    between atoms: C_17  and  S_18
REMARK    4  A    between atoms: S_18  and  C_19
REMARK    5  A    between atoms: C_22  and  C_25
REMARK                            x       y       z     vdW  Elec       q    Type
REMARK                         _______ _______ _______ _____ _____    ______ ____
ROOT
ATOM      1  C   UNL     1      -0.019   1.526   0.010  0.00  0.00    +0.029 C 
ATOM      2  C   UNL     1       0.002  -0.004   0.002  0.00  0.00    +0.087 C 
ATOM      3  C   UNL     1      -1.433  -0.532   0.009  0.00  0.00    +0.118 C 
ATOM      4  C   UNL     1      -1.448  -1.987   0.396  0.00  0.00    +0.219 C 
ATOM      5  O   UNL     1      -1.623  -2.835  -0.454  0.00  0.00    -0.275 OA
ATOM      6  N   UNL     1      -1.268  -2.354   1.683  0.00  0.00    -0.284 N 
ATOM      7  C   UNL     1      -0.970  -1.397   2.659  0.00  0.00    +0.055 A 
ATOM      8  C   UNL     1      -1.673  -1.354   3.851  0.00  0.00    +0.025 A 
ATOM      9  C   UNL     1      -1.345  -0.414   4.811  0.00  0.00    +0.002 A 
ATOM     10  C   UNL     1      -0.316   0.482   4.584  0.00  0.00    +0.002 A 
ATOM     11  C   UNL     1       0.385   0.452   3.393  0.00  0.00    +0.025 A 
ATOM     12  C   UNL     1       0.054  -0.479   2.422  0.00  0.00    +0.058 A 
ATOM     13  N   UNL     1       0.714  -0.487   1.187  0.00  0.00    -0.266 N 
ATOM     14  C   UNL     1       1.982  -0.932   1.091  0.00  0.00    +0.230 C 
ATOM     15  O   UNL     1       2.545  -0.934   0.017  0.00  0.00    -0.274 OA
ATOM     16  H   UNL     1      -1.347  -3.288   1.933  0.00  0.00    +0.155 HD
ENDROOT
BRANCH  14  17
ATOM     17  C   UNL     1       2.702  -1.427   2.320  0.00  0.00    +0.173 C 
BRANCH  17  18
ATOM     18  S   UNL     1       4.378  -1.953   1.868  0.00  0.00    -0.079 S 
BRANCH  18  19
ATOM     19  C   UNL     1       5.079  -2.496   3.390  0.00  0.00    +0.167 A 
ATOM     20  N   UNL     1       6.340  -2.982   3.555  0.00  0.00    -0.333 N 
ATOM     21  H   UNL     1       7.012  -3.091   2.864  0.00  0.00    +0.168 HD
ATOM     22  C   UNL     1       6.481  -3.289   4.898  0.00  0.00    +0.067 A 
ATOM     23  C   UNL     1       5.300  -2.978   5.493  0.00  0.00    +0.139 A 
ATOM     24  N   UNL     1       4.473  -2.495   4.557  0.00  0.00    -0.230 NA
BRANCH  22  25
ATOM     25  C   UNL     1       7.681  -3.846   5.555  0.00  0.00    -0.000 A 
ATOM     26  C   UNL     1       8.831  -4.111   4.808  0.00  0.00    +0.011 A 
ATOM     27  C   UNL     1       9.948  -4.631   5.427  0.00  0.00    +0.016 A 
ATOM     28  C   UNL     1       9.931  -4.891   6.787  0.00  0.00    +0.018 A 
ATOM     29  C   UNL     1       8.794  -4.631   7.534  0.00  0.00    +0.016 A 
ATOM     30  C   UNL     1       7.672  -4.106   6.927  0.00  0.00    +0.011 A 
ATOM     31 BR   UNL     1      11.467  -5.604   7.628  0.00  0.00    -0.050 Br
ENDBRANCH  22  25
ENDBRANCH  18  19
ENDBRANCH  17  18
ENDBRANCH  14  17
TORSDOF 4
