REMARK  Name = ZINC20806334
REMARK  5 active torsions:
REMARK  status: ('A' for Active; 'I' for Inactive)
REMARK    1  A    between atoms: C_6  and  C_7
REMARK    2  A    between atoms: N_12  and  C_13
REMARK    3  A    between atoms: C_13  and  C_14
REMARK    4  A    between atoms: N_16  and  C_17
REMARK    5  A    between atoms: C_22  and  C_23
REMARK                            x       y       z     vdW  Elec       q    Type
REMARK                         _______ _______ _______ _____ _____    ______ ____
ROOT
ATOM      1  C   UNL     1       1.381   4.476  -4.451  0.00  0.00    -0.037 C 
ATOM      2  C   UNL     1       2.869   4.779  -4.171  0.00  0.00    -0.013 C 
ATOM      3  C   UNL     1       3.275   5.816  -5.237  0.00  0.00    -0.020 C 
ATOM      4  C   UNL     1       1.999   6.054  -6.073  0.00  0.00    -0.077 C 
ATOM      5  N   UNL     1       0.881   5.678  -5.167  0.00  0.00    +0.390 N 
ATOM      6  H   UNL     1       0.594   6.492  -4.486  0.00  0.00    -0.080 HD
ENDROOT
BRANCH   1  12
ATOM      7  C   UNL     1       0.278   5.383  -2.397  0.00  0.00    +0.006 A 
ATOM      8  C   UNL     1      -0.411   5.215  -1.210  0.00  0.00    +0.049 A 
ATOM      9  C   UNL     1      -0.747   3.941  -0.786  0.00  0.00    +0.162 A 
ATOM     10  C   UNL     1      -0.393   2.838  -1.550  0.00  0.00    +0.162 A 
ATOM     11  C   UNL     1       0.297   3.010  -2.737  0.00  0.00    +0.051 A 
ATOM     12  C   UNL     1       0.631   4.285  -3.159  0.00  0.00    -0.057 A 
ATOM     13  O   UNL     1      -0.730   1.586  -1.123  0.00  0.00    -0.488 OA
ATOM     14  C   UNL     1      -0.055   1.123   0.049  0.00  0.00    +0.232 C 
ATOM     15  C   UNL     1      -0.756   1.618   1.304  0.00  0.00    +0.082 C 
ATOM     16  C   UNL     1      -0.700   3.132   1.440  0.00  0.00    +0.232 C 
ATOM     17  O   UNL     1      -1.428   3.761   0.383  0.00  0.00    -0.488 OA
ENDBRANCH   1  12
BRANCH   5  18
ATOM     18  C   UNL     1      -0.336   5.369  -5.930  0.00  0.00    +0.020 C 
BRANCH  18  19
ATOM     19  C   UNL     1      -0.949   6.648  -6.438  0.00  0.00    +0.201 C 
ATOM     20  O   UNL     1      -0.424   7.713  -6.190  0.00  0.00    -0.278 OA
ATOM     21  N   UNL     1      -2.081   6.608  -7.169  0.00  0.00    -0.287 N 
ATOM     22  H   UNL     1      -2.507   5.640  -7.471  0.00  0.00    +0.155 HD
BRANCH  21  23
ATOM     23  C   UNL     1      -2.714   7.799  -7.543  0.00  0.00    +0.045 A 
ATOM     24  C   UNL     1      -2.529   8.952  -6.790  0.00  0.00    +0.025 A 
ATOM     25  C   UNL     1      -3.155  10.125  -7.162  0.00  0.00    +0.022 A 
ATOM     26  C   UNL     1      -3.966  10.153  -8.283  0.00  0.00    +0.042 A 
ATOM     27  C   UNL     1      -4.152   9.007  -9.035  0.00  0.00    +0.034 A 
ATOM     28  C   UNL     1      -3.524   7.832  -8.671  0.00  0.00    +0.077 A 
ATOM     29 CL   UNL     1      -4.752  11.630  -8.747  0.00  0.00    -0.084 Cl
BRANCH  28  30
ATOM     30  C   UNL     1      -3.722   6.585  -9.493  0.00  0.00    +0.419 C 
ATOM     31  F   UNL     1      -4.571   6.865 -10.569  0.00  0.00    -0.166 F 
ATOM     32  F   UNL     1      -2.485   6.145  -9.978  0.00  0.00    -0.166 F 
ATOM     33  F   UNL     1      -4.292   5.586  -8.697  0.00  0.00    -0.166 F 
ENDBRANCH  28  30
ENDBRANCH  21  23
ENDBRANCH  18  19
ENDBRANCH   5  18
TORSDOF 5
