REMARK  Name = ZINC39785623
REMARK  6 active torsions:
REMARK  status: ('A' for Active; 'I' for Inactive)
REMARK    1  A    between atoms: C_7  and  C_10
REMARK    2  A    between atoms: C_13  and  S_19
REMARK    3  A    between atoms: N_15  and  C_16
REMARK    4  A    between atoms: S_19  and  C_20
REMARK    5  A    between atoms: C_20  and  C_21
REMARK    6  A    between atoms: C_21  and  C_23
REMARK                            x       y       z     vdW  Elec       q    Type
REMARK                         _______ _______ _______ _____ _____    ______ ____
ROOT
ATOM      1  C   UNL     1       0.684  -3.156   0.163  0.00  0.00    +0.147 C 
ATOM      2  N   UNL     1      -0.617  -3.037   0.207  0.00  0.00    -0.169 NA
ATOM      3  N   UNL     1      -1.248  -4.260  -0.049  0.00  0.00    -0.237 N 
ATOM      4  C   UNL     1      -0.177  -5.244  -0.278  0.00  0.00    +0.237 C 
ATOM      5  N   UNL     1       1.065  -4.467  -0.133  0.00  0.00    -0.282 N 
ATOM      6  H   UNL     1      -2.204  -4.426  -0.072  0.00  0.00    +0.171 HD
ENDROOT
BRANCH   1  13
ATOM      7  C   UNL     1       0.051   1.157   1.420  0.00  0.00    +0.001 A 
ATOM      8  C   UNL     1       1.236   1.889   1.521  0.00  0.00    +0.002 A 
ATOM      9  C   UNL     1       2.445   1.333   1.260  0.00  0.00    +0.026 A 
ATOM     10  C   UNL     1       2.526  -0.029   0.874  0.00  0.00    +0.043 A 
ATOM     11  N   UNL     1       3.560  -0.790   0.571  0.00  0.00    -0.380 N 
ATOM     12  C   UNL     1       3.088  -2.137   0.237  0.00  0.00    +0.152 C 
ATOM     13  C   UNL     1       1.583  -2.100   0.379  0.00  0.00    +0.022 C 
ATOM     14  C   UNL     1       1.274  -0.796   0.769  0.00  0.00    +0.006 A 
ATOM     15  C   UNL     1       0.053  -0.151   1.056  0.00  0.00    +0.010 A 
ATOM     16  H   UNL     1       4.487  -0.504   0.570  0.00  0.00    +0.160 HD
ENDBRANCH   1  13
BRANCH   5  17
ATOM     17  C   UNL     1       2.434  -4.971  -0.270  0.00  0.00    +0.078 C 
ATOM     18  C   UNL     1       2.610  -6.431  -0.694  0.00  0.00    +0.024 C 
ATOM     19  C   UNL     1       2.909  -6.011   0.747  0.00  0.00    +0.024 C 
ENDBRANCH   5  17
BRANCH   4  20
ATOM     20  S   UNL     1      -0.257  -6.567   0.960  0.00  0.00    -0.110 S 
BRANCH  20  21
ATOM     21  C   UNL     1      -0.092  -5.698   2.543  0.00  0.00    +0.152 C 
BRANCH  21  22
ATOM     22  C   UNL     1      -0.143  -6.696   3.672  0.00  0.00    +0.173 C 
ATOM     23  O   UNL     1      -0.278  -7.877   3.431  0.00  0.00    -0.291 OA
BRANCH  22  24
ATOM     24  C   UNL     1      -0.030  -6.238   5.063  0.00  0.00    +0.022 A 
ATOM     25  C   UNL     1       0.119  -4.874   5.342  0.00  0.00    +0.015 A 
ATOM     26  C   UNL     1       0.224  -4.445   6.647  0.00  0.00    +0.050 A 
ATOM     27  C   UNL     1       0.182  -5.366   7.685  0.00  0.00    +0.162 A 
ATOM     28  C   UNL     1       0.034  -6.723   7.415  0.00  0.00    +0.163 A 
ATOM     29  C   UNL     1      -0.078  -7.164   6.113  0.00  0.00    +0.060 A 
ATOM     30  O   UNL     1      -0.007  -7.615   8.448  0.00  0.00    -0.488 OA
ATOM     31  C   UNL     1       1.211  -7.785   9.176  0.00  0.00    +0.232 C 
ATOM     32  C   UNL     1       1.351  -6.718  10.250  0.00  0.00    +0.082 C 
ATOM     33  C   UNL     1       1.480  -5.320   9.664  0.00  0.00    +0.232 C 
ATOM     34  O   UNL     1       0.284  -4.945   8.977  0.00  0.00    -0.488 OA
ENDBRANCH  22  24
ENDBRANCH  21  22
ENDBRANCH  20  21
ENDBRANCH   4  20
TORSDOF 6
