REMARK  Name = ZINC09584121
REMARK  7 active torsions:
REMARK  status: ('A' for Active; 'I' for Inactive)
REMARK    1  A    between atoms: C_1  and  O_2
REMARK    2  A    between atoms: O_2  and  C_3
REMARK    3  A    between atoms: C_6  and  C_9
REMARK    4  A    between atoms: C_14  and  O_39
REMARK    5  A    between atoms: C_22  and  C_27
REMARK    6  A    between atoms: C_27  and  O_28
REMARK    7  A    between atoms: O_28  and  C_29
REMARK                            x       y       z     vdW  Elec       q    Type
REMARK                         _______ _______ _______ _____ _____    ______ ____
ROOT
ATOM      1  C   UNL     1       2.490   1.045  -0.016  0.00  0.00    +0.091 C 
ATOM      2  C   UNL     1       3.284   1.414   1.209  0.00  0.00    +0.007 A 
ATOM      3  C   UNL     1       2.953   0.856   2.430  0.00  0.00    +0.012 A 
ATOM      4  C   UNL     1       3.672   1.184   3.563  0.00  0.00    +0.046 A 
ATOM      5  C   UNL     1       4.731   2.077   3.476  0.00  0.00    +0.120 A 
ATOM      6  C   UNL     1       5.064   2.638   2.255  0.00  0.00    +0.092 A 
ATOM      7  C   UNL     1       4.340   2.307   1.116  0.00  0.00    +0.138 A 
ATOM      8  O   UNL     1       4.678   2.866  -0.070  0.00  0.00    -0.437 OA
ATOM      9  C   UNL     1       4.295   2.289  -1.233  0.00  0.00    +0.230 A 
ATOM     10  C   UNL     1       3.247   1.409  -1.256  0.00  0.00    +0.070 A 
ATOM     11  C   UNL     1       2.911   0.859  -2.504  0.00  0.00    +0.167 A 
ATOM     12  N   UNL     1       1.988   0.009  -2.888  0.00  0.00    -0.207 NA
ATOM     13  C   UNL     1       2.088  -0.193  -4.201  0.00  0.00    +0.189 A 
ATOM     14  N   UNL     1       3.079   0.524  -4.687  0.00  0.00    -0.145 NA
ATOM     15  N   UNL     1       3.637   1.219  -3.624  0.00  0.00    -0.201 N 
ATOM     16  C   UNL     1       4.669   2.095  -3.534  0.00  0.00    +0.229 A 
ATOM     17  N   UNL     1       4.961   2.595  -2.358  0.00  0.00    -0.201 NA
ENDROOT
BRANCH   1  21
ATOM     18  C   UNL     1      -1.237   3.137   0.031  0.00  0.00    +0.120 A 
ATOM     19  C   UNL     1      -1.218   1.750   0.017  0.00  0.00    +0.046 A 
ATOM     20  C   UNL     1      -0.013   1.076   0.008  0.00  0.00    +0.008 A 
ATOM     21  C   UNL     1       1.176   1.783   0.000  0.00  0.00    -0.035 A 
ATOM     22  C   UNL     1       1.160   3.165   0.007  0.00  0.00    +0.008 A 
ATOM     23  C   UNL     1      -0.043   3.844   0.023  0.00  0.00    +0.046 A 
BRANCH  18  25
ATOM     24  C   UNL     1      -3.611   3.009   0.054  0.00  0.00    +0.277 C 
ATOM     25  O   UNL     1      -2.422   3.802   0.046  0.00  0.00    -0.495 OA
ENDBRANCH  18  25
ENDBRANCH   1  21
BRANCH   5  26
ATOM     26  O   UNL     1       5.440   2.401   4.590  0.00  0.00    -0.507 OA
ATOM     27  H   UNL     1       5.093   3.165   5.069  0.00  0.00    +0.292 HD
ENDBRANCH   5  26
BRANCH  13  28
ATOM     28  C   UNL     1       1.200  -1.105  -5.008  0.00  0.00    +0.306 C 
BRANCH  28  29
ATOM     29  O   UNL     1       1.768  -2.416  -5.040  0.00  0.00    -0.484 OA
BRANCH  29  30
ATOM     30  C   UNL     1       1.087  -3.366  -5.732  0.00  0.00    +0.122 A 
ATOM     31  C   UNL     1      -0.116  -3.031  -6.363  0.00  0.00    +0.046 A 
ATOM     32  C   UNL     1      -0.818  -3.959  -7.067  0.00  0.00    +0.012 A 
ATOM     33  C   UNL     1      -0.337  -5.278  -7.155  0.00  0.00    -0.018 A 
ATOM     34  C   UNL     1      -1.040  -6.263  -7.870  0.00  0.00    +0.008 A 
ATOM     35  C   UNL     1      -0.545  -7.529  -7.936  0.00  0.00    +0.001 A 
ATOM     36  C   UNL     1       0.650  -7.866  -7.303  0.00  0.00    +0.001 A 
ATOM     37  C   UNL     1       1.358  -6.939  -6.602  0.00  0.00    +0.008 A 
ATOM     38  C   UNL     1       0.878  -5.621  -6.512  0.00  0.00    -0.014 A 
ATOM     39  C   UNL     1       1.582  -4.637  -5.798  0.00  0.00    +0.054 A 
ENDBRANCH  29  30
ENDBRANCH  28  29
ENDBRANCH  13  28
TORSDOF 6
