REMARK  Name = ZINC25851033
REMARK  9 active torsions:
REMARK  status: ('A' for Active; 'I' for Inactive)
REMARK    1  A    between atoms: C_1  and  C_2
REMARK    2  A    between atoms: C_6  and  C_15
REMARK    3  A    between atoms: N_8  and  C_9
REMARK    4  A    between atoms: C_15  and  O_17
REMARK    5  A    between atoms: O_17  and  C_18
REMARK    6  A    between atoms: C_18  and  C_20
REMARK    7  A    between atoms: C_18  and  C_21
REMARK    8  A    between atoms: N_23  and  C_24
REMARK    9  A    between atoms: C_29  and  C_30
REMARK                            x       y       z     vdW  Elec       q    Type
REMARK                         _______ _______ _______ _____ _____    ______ ____
ROOT
ATOM      1  C   UNL     1      -2.546  -2.491  -1.286  0.00  0.00    +0.259 C 
ATOM      2  C   UNL     1      -3.209  -2.994  -0.002  0.00  0.00    +0.062 C 
ENDROOT
BRANCH   1   3
ATOM      3  C   UNL     1      -2.332  -3.648  -2.227  0.00  0.00    +0.258 C 
ATOM      4  O   UNL     1      -1.206  -3.991  -2.519  0.00  0.00    -0.271 OA
ATOM      5  N   UNL     1      -3.391  -4.302  -2.743  0.00  0.00    -0.282 N 
ATOM      6  H   UNL     1      -4.409  -4.051  -2.409  0.00  0.00    +0.155 HD
BRANCH   5   7
ATOM      7  C   UNL     1      -3.197  -5.299  -3.703  0.00  0.00    +0.041 A 
ATOM      8  C   UNL     1      -2.057  -5.291  -4.494  0.00  0.00    +0.024 A 
ATOM      9  C   UNL     1      -1.864  -6.281  -5.438  0.00  0.00    +0.002 A 
ATOM     10  C   UNL     1      -2.809  -7.278  -5.608  0.00  0.00    +0.001 A 
ATOM     11  C   UNL     1      -3.950  -7.295  -4.832  0.00  0.00    +0.010 A 
ATOM     12  C   UNL     1      -4.153  -6.306  -3.873  0.00  0.00    +0.003 A 
BRANCH  12  13
ATOM     13  C   UNL     1      -5.378  -6.320  -3.036  0.00  0.00    -0.016 A 
ATOM     14  C   UNL     1      -5.279  -6.211  -1.650  0.00  0.00    +0.008 A 
ATOM     15  C   UNL     1      -6.422  -6.219  -0.877  0.00  0.00    +0.001 A 
ATOM     16  C   UNL     1      -7.663  -6.347  -1.474  0.00  0.00    +0.000 A 
ATOM     17  C   UNL     1      -7.767  -6.460  -2.849  0.00  0.00    +0.001 A 
ATOM     18  C   UNL     1      -6.631  -6.448  -3.632  0.00  0.00    +0.008 A 
ENDBRANCH  12  13
ENDBRANCH   5   7
ENDBRANCH   1   3
BRANCH   1  19
ATOM     19  O   UNL     1      -1.267  -1.884  -0.964  0.00  0.00    -0.448 OA
BRANCH  19  20
ATOM     20  C   UNL     1      -1.267  -0.565  -0.690  0.00  0.00    +0.364 C 
ATOM     21  O   UNL     1      -2.307   0.062  -0.719  0.00  0.00    -0.243 OA
BRANCH  20  27
ATOM     22  C   UNL     1       3.711   1.915   0.582  0.00  0.00    +0.066 C 
ATOM     23  C   UNL     1       2.358   1.337   0.257  0.00  0.00    +0.044 A 
ATOM     24  C   UNL     1       1.269   2.142   0.258  0.00  0.00    +0.076 A 
ATOM     25  C   UNL     1       0.013   1.559  -0.054  0.00  0.00    +0.215 A 
ATOM     26  O   UNL     1      -1.010   2.225  -0.076  0.00  0.00    -0.285 OA
ATOM     27  C   UNL     1      -0.003   0.119  -0.356  0.00  0.00    +0.214 A 
ATOM     28  N   UNL     1       1.132  -0.548  -0.321  0.00  0.00    -0.156 NA
ATOM     29  N   UNL     1       2.246   0.018  -0.034  0.00  0.00    -0.236 N 
BRANCH  29  30
ATOM     30  C   UNL     1       3.405  -0.766  -0.020  0.00  0.00    +0.066 A 
ATOM     31  C   UNL     1       4.559  -0.313  -0.646  0.00  0.00    +0.028 A 
ATOM     32  C   UNL     1       5.703  -1.087  -0.625  0.00  0.00    +0.002 A 
ATOM     33  C   UNL     1       5.697  -2.316   0.008  0.00  0.00    +0.000 A 
ATOM     34  C   UNL     1       4.548  -2.772   0.627  0.00  0.00    +0.002 A 
ATOM     35  C   UNL     1       3.402  -2.001   0.615  0.00  0.00    +0.028 A 
ENDBRANCH  29  30
ENDBRANCH  20  27
ENDBRANCH  19  20
ENDBRANCH   1  19
TORSDOF 7
