REMARK  Name = ZINC60309262
REMARK  9 active torsions:
REMARK  status: ('A' for Active; 'I' for Inactive)
REMARK    1  A    between atoms: C_1  and  C_2
REMARK    2  A    between atoms: C_2  and  C_3
REMARK    3  A    between atoms: C_3  and  C_4
REMARK    4  A    between atoms: C_14  and  C_16
REMARK    5  A    between atoms: C_16  and  C_17
REMARK    6  A    between atoms: C_17  and  C_18
REMARK    7  A    between atoms: C_19  and  C_31
REMARK    8  A    between atoms: C_21  and  C_30
REMARK    9  A    between atoms: N_23  and  C_29
REMARK                            x       y       z     vdW  Elec       q    Type
REMARK                         _______ _______ _______ _____ _____    ______ ____
ROOT
ATOM      1  C   UNL     1       0.514  -2.203  -3.099  0.00  0.00    -0.006 C 
ATOM      2  C   UNL     1       0.995  -2.932  -4.357  0.00  0.00    +0.010 C 
ATOM      3  C   UNL     1       0.822  -4.443  -4.187  0.00  0.00    +0.056 C 
ATOM      4  C   UNL     1       1.488  -4.868  -2.886  0.00  0.00    +0.054 A 
ATOM      5  C   UNL     1       1.768  -3.952  -1.923  0.00  0.00    +0.015 A 
ATOM      6  S   UNL     1       2.516  -4.939  -0.658  0.00  0.00    -0.057 S 
ATOM      7  C   UNL     1       2.412  -6.425  -1.448  0.00  0.00    +0.165 A 
ATOM      8  N   UNL     1       1.838  -6.116  -2.589  0.00  0.00    -0.229 NA
ATOM      9  N   UNL     1       2.831  -7.672  -1.001  0.00  0.00    -0.265 N 
ATOM     10  C   UNL     1       2.663  -8.759  -1.780  0.00  0.00    +0.219 C 
ATOM     11  O   UNL     1       2.146  -8.648  -2.872  0.00  0.00    -0.275 OA
ATOM     12  C   UNL     1       1.496  -2.486  -1.952  0.00  0.00    +0.048 C 
ATOM     13  H   UNL     1       3.244  -7.761  -0.128  0.00  0.00    +0.157 HD
ENDROOT
BRANCH   1  14
ATOM     14  C   UNL     1       0.460  -0.698  -3.369  0.00  0.00    +0.003 C 
BRANCH  14  16
ATOM     15  C   UNL     1      -0.186   1.522  -2.423  0.00  0.00    +0.004 C 
ATOM     16  C   UNL     1      -0.132   0.017  -2.153  0.00  0.00    -0.003 C 
ENDBRANCH  14  16
ENDBRANCH   1  14
BRANCH  10  17
ATOM     17  C   UNL     1       3.117 -10.111  -1.295  0.00  0.00    +0.101 C 
BRANCH  17  18
ATOM     18  C   UNL     1       2.812 -11.164  -2.363  0.00  0.00    +0.050 C 
BRANCH  18  19
ATOM     19  C   UNL     1       3.266 -12.517  -1.878  0.00  0.00    +0.021 A 
ATOM     20  C   UNL     1       2.392 -13.338  -1.237  0.00  0.00    -0.030 A 
ATOM     21  C   UNL     1       2.838 -14.603  -0.790  0.00  0.00    +0.043 A 
ATOM     22  C   UNL     1       2.207 -15.670  -0.109  0.00  0.00    +0.069 A 
ATOM     23  N   UNL     1       3.085 -16.618   0.061  0.00  0.00    -0.174 NA
ATOM     24  N   UNL     1       4.309 -16.222  -0.491  0.00  0.00    -0.251 N 
ATOM     25  C   UNL     1       4.162 -14.986  -1.015  0.00  0.00    +0.139 A 
ATOM     26  N   UNL     1       5.017 -14.136  -1.664  0.00  0.00    -0.307 N 
ATOM     27  H   UNL     1       5.936 -14.405  -1.819  0.00  0.00    +0.170 HD
ATOM     28  C   UNL     1       4.592 -12.933  -2.094  0.00  0.00    +0.254 A 
ATOM     29  O   UNL     1       5.369 -12.192  -2.674  0.00  0.00    -0.268 OA
ATOM     30  C   UNL     1       5.541 -17.014  -0.500  0.00  0.00    +0.174 C 
ATOM     31  C   UNL     1       0.770 -15.705   0.342  0.00  0.00    +0.068 C 
ATOM     32  C   UNL     1       0.968 -12.904  -1.005  0.00  0.00    +0.045 C 
ENDBRANCH  18  19
ENDBRANCH  17  18
ENDBRANCH  10  17
TORSDOF 5
