REMARK  Name = ZINC16569969
REMARK  6 active torsions:
REMARK  status: ('A' for Active; 'I' for Inactive)
REMARK    1  A    between atoms: C_12  and  C_33
REMARK    2  A    between atoms: C_15  and  C_17
REMARK    3  A    between atoms: C_17  and  N_18
REMARK    4  A    between atoms: N_18  and  C_19
REMARK    5  A    between atoms: N_24  and  C_25
REMARK    6  A    between atoms: C_28  and  C_31
REMARK                            x       y       z     vdW  Elec       q    Type
REMARK                         _______ _______ _______ _____ _____    ______ ____
ROOT
ATOM      1  C   UNL     1      -7.297  10.131  -0.666  0.00  0.00    +0.002 A 
ATOM      2  C   UNL     1      -5.992  10.008  -1.108  0.00  0.00    +0.002 A 
ATOM      3  C   UNL     1      -4.979   9.697  -0.220  0.00  0.00    +0.025 A 
ATOM      4  C   UNL     1      -5.267   9.513   1.121  0.00  0.00    +0.061 A 
ATOM      5  C   UNL     1      -6.590   9.641   1.565  0.00  0.00    +0.068 A 
ATOM      6  C   UNL     1      -7.597   9.948   0.672  0.00  0.00    +0.028 A 
ATOM      7  N   UNL     1      -6.843   9.456   2.932  0.00  0.00    -0.316 N 
ATOM      8  C   UNL     1      -8.016   9.288   3.588  0.00  0.00    +0.092 A 
ATOM      9  C   UNL     1      -7.744   9.137   4.904  0.00  0.00    +0.020 A 
ATOM     10  C   UNL     1      -6.343   9.218   5.062  0.00  0.00    +0.025 A 
ATOM     11  C   UNL     1      -5.815   9.416   3.849  0.00  0.00    +0.049 A 
ATOM     12  C   UNL     1      -4.370   9.580   3.444  0.00  0.00    +0.159 C 
ATOM     13  N   UNL     1      -4.253   9.182   2.031  0.00  0.00    -0.255 N 
ATOM     14  C   UNL     1      -3.167   8.504   1.611  0.00  0.00    +0.238 C 
ATOM     15  O   UNL     1      -3.074   8.167   0.450  0.00  0.00    -0.273 OA
ENDROOT
BRANCH  12  16
ATOM     16  C   UNL     1      -3.954  11.019   3.606  0.00  0.00    -0.021 A 
ATOM     17  C   UNL     1      -4.317  11.954   2.654  0.00  0.00    +0.008 A 
ATOM     18  C   UNL     1      -3.940  13.275   2.804  0.00  0.00    +0.038 A 
ATOM     19  C   UNL     1      -3.191  13.660   3.902  0.00  0.00    +0.123 A 
ATOM     20  C   UNL     1      -2.824  12.722   4.853  0.00  0.00    +0.038 A 
ATOM     21  C   UNL     1      -3.206  11.403   4.703  0.00  0.00    +0.008 A 
ATOM     22  F   UNL     1      -2.818  14.951   4.048  0.00  0.00    -0.205 F 
ENDBRANCH  12  16
BRANCH  14  23
ATOM     23  C   UNL     1      -2.067   8.166   2.584  0.00  0.00    +0.205 C 
BRANCH  23  24
ATOM     24  N   UNL     1      -0.978   7.490   1.875  0.00  0.00    -0.274 N 
ATOM     25  C   UNL     1       0.026   8.212   1.339  0.00  0.00    +0.307 C 
ATOM     26  O   UNL     1       0.830   7.679   0.598  0.00  0.00    -0.252 OA
ATOM     27  N   UNL     1       0.140   9.524   1.624  0.00  0.00    -0.269 N 
ATOM     28  H   UNL     1      -0.461   9.935   2.265  0.00  0.00    +0.156 HD
BRANCH  27  29
ATOM     29  C   UNL     1       1.122  10.292   0.996  0.00  0.00    +0.035 A 
ATOM     30  C   UNL     1       0.888  11.638   0.735  0.00  0.00    +0.024 A 
ATOM     31  C   UNL     1       1.855  12.399   0.117  0.00  0.00    +0.020 A 
ATOM     32  C   UNL     1       3.073  11.817  -0.248  0.00  0.00    +0.052 A 
ATOM     33  C   UNL     1       3.302  10.463   0.010  0.00  0.00    +0.020 A 
ATOM     34  C   UNL     1       2.332   9.709   0.634  0.00  0.00    +0.024 A 
BRANCH  32  35
ATOM     35  C   UNL     1       4.081  12.605  -0.891  0.00  0.00    +0.099 C 
ATOM     36  N   UNL     1       4.881  13.230  -1.401  0.00  0.00    -0.191 NA
ENDBRANCH  32  35
ENDBRANCH  27  29
BRANCH  24  37
ATOM     37  C   UNL     1      -0.981   6.031   1.747  0.00  0.00    +0.078 C 
ATOM     38  C   UNL     1       0.338   5.353   1.369  0.00  0.00    +0.024 C 
ATOM     39  C   UNL     1      -0.798   5.444   0.346  0.00  0.00    +0.024 C 
ENDBRANCH  24  37
ENDBRANCH  23  24
ENDBRANCH  14  23
TORSDOF 6
