REMARK  Name = ZINC03349925
REMARK  4 active torsions:
REMARK  status: ('A' for Active; 'I' for Inactive)
REMARK    1  A    between atoms: C_5  and  N_7
REMARK    2  A    between atoms: C_12  and  C_13
REMARK    3  A    between atoms: C_12  and  N_51
REMARK    4  A    between atoms: C_19  and  C_24
REMARK                            x       y       z     vdW  Elec       q    Type
REMARK                         _______ _______ _______ _____ _____    ______ ____
ROOT
ATOM      1  C   UNL     1      -1.220   3.239   0.030  0.00  0.00    +0.094 A 
ATOM      2  N   UNL     1      -1.183   1.882   0.018  0.00  0.00    -0.312 N 
ATOM      3  H   UNL     1      -2.015   1.384   0.019  0.00  0.00    +0.170 HD
ATOM      4  C   UNL     1      -0.015   1.215   0.009  0.00  0.00    +0.260 A 
ATOM      5  O   UNL     1       0.002  -0.004   0.002  0.00  0.00    -0.267 OA
ATOM      6  C   UNL     1       1.209   1.958   0.001  0.00  0.00    +0.080 A 
ATOM      7  C   UNL     1       2.583   1.473  -0.015  0.00  0.00    +0.004 A 
ATOM      8  C   UNL     1       3.594   2.376  -0.020  0.00  0.00    +0.056 A 
ATOM      9  S   UNL     1       2.745   3.943  -0.004  0.00  0.00    -0.076 S 
ATOM     10  C   UNL     1       1.071   3.356   0.009  0.00  0.00    +0.116 A 
ATOM     11  N   UNL     1      -0.121   3.945   0.024  0.00  0.00    -0.229 NA
ENDROOT
BRANCH   7  12
ATOM     12  C   UNL     1       2.871   0.018  -0.025  0.00  0.00    -0.016 A 
ATOM     13  C   UNL     1       2.259  -0.822   0.904  0.00  0.00    +0.010 A 
ATOM     14  C   UNL     1       2.525  -2.176   0.886  0.00  0.00    +0.020 A 
ATOM     15  C   UNL     1       3.408  -2.698  -0.045  0.00  0.00    +0.041 A 
ATOM     16  C   UNL     1       4.022  -1.867  -0.966  0.00  0.00    +0.020 A 
ATOM     17  C   UNL     1       3.758  -0.513  -0.961  0.00  0.00    +0.010 A 
ATOM     18 CL   UNL     1       3.744  -4.401  -0.057  0.00  0.00    -0.084 Cl
ENDBRANCH   7  12
BRANCH   1  19
ATOM     19  C   UNL     1      -2.553   3.943   0.046  0.00  0.00    -0.003 C 
BRANCH  19  25
ATOM     20  N   UNL     1      -2.686   8.054   1.014  0.00  0.00    -0.331 N 
ATOM     21  C   UNL     1      -3.323   7.620  -0.238  0.00  0.00    +0.086 C 
ATOM     22  C   UNL     1      -3.600   6.116  -0.171  0.00  0.00    -0.059 C 
ATOM     23  C   UNL     1      -1.702   5.831   1.303  0.00  0.00    -0.059 C 
ATOM     24  C   UNL     1      -1.424   7.334   1.236  0.00  0.00    +0.086 C 
ATOM     25  N   UNL     1      -2.321   5.404   0.031  0.00  0.00    +0.386 N 
ATOM     26  H   UNL     1      -1.686   5.633  -0.743  0.00  0.00    -0.081 HD
BRANCH  20  31
ATOM     27  C   UNL     1      -3.359  11.667   0.907  0.00  0.00    +0.002 A 
ATOM     28  C   UNL     1      -2.079  12.176   1.027  0.00  0.00    +0.003 A 
ATOM     29  C   UNL     1      -0.999  11.320   1.143  0.00  0.00    +0.040 A 
ATOM     30  C   UNL     1      -1.196   9.951   1.139  0.00  0.00    +0.144 A 
ATOM     31  C   UNL     1      -2.482   9.437   1.019  0.00  0.00    +0.065 A 
ATOM     32  C   UNL     1      -3.563  10.300   0.898  0.00  0.00    +0.026 A 
ATOM     33  F   UNL     1      -0.141   9.116   1.252  0.00  0.00    -0.204 F 
ENDBRANCH  20  31
ENDBRANCH  19  25
ENDBRANCH   1  19
TORSDOF 4
