REMARK  Name = ZINC45615273
REMARK  7 active torsions:
REMARK  status: ('A' for Active; 'I' for Inactive)
REMARK    1  A    between atoms: C_1  and  N_2
REMARK    2  A    between atoms: C_6  and  C_7
REMARK    3  A    between atoms: C_7  and  C_9
REMARK    4  A    between atoms: C_7  and  N_17
REMARK    5  A    between atoms: C_12  and  O_15
REMARK    6  A    between atoms: O_15  and  C_16
REMARK    7  A    between atoms: C_25  and  C_27
REMARK                            x       y       z     vdW  Elec       q    Type
REMARK                         _______ _______ _______ _____ _____    ______ ____
ROOT
ATOM      1  N   UNL     1      -0.572   0.978   2.612  0.00  0.00    -0.315 N 
ATOM      2  C   UNL     1      -1.945   1.111   2.715  0.00  0.00    +0.132 A 
ATOM      3  C   UNL     1      -2.532   2.395   2.905  0.00  0.00    +0.051 A 
ATOM      4  C   UNL     1      -1.870   3.695   3.021  0.00  0.00    -0.025 A 
ATOM      5  C   UNL     1      -2.662   4.772   3.197  0.00  0.00    -0.004 A 
ATOM      6  S   UNL     1      -4.315   4.132   3.220  0.00  0.00    -0.073 S 
ATOM      7  C   UNL     1      -3.939   2.413   2.994  0.00  0.00    +0.114 A 
ATOM      8  N   UNL     1      -4.651   1.308   2.908  0.00  0.00    -0.220 NA
ATOM      9  C   UNL     1      -4.050   0.138   2.732  0.00  0.00    +0.164 A 
ATOM     10  N   UNL     1      -2.727   0.050   2.632  0.00  0.00    -0.212 NA
ATOM     11  C   UNL     1      -2.233   6.200   3.344  0.00  0.00    +0.043 C 
ATOM     12  C   UNL     1      -0.726   6.226   3.637  0.00  0.00    +0.005 C 
ATOM     13  C   UNL     1      -0.017   5.306   2.639  0.00  0.00    +0.005 C 
ATOM     14  C   UNL     1      -0.353   3.847   2.948  0.00  0.00    +0.037 C 
ATOM     15  H   UNL     1      -0.003   1.761   2.671  0.00  0.00    +0.148 HD
ENDROOT
BRANCH   9  16
ATOM     16  C   UNL     1      -4.870  -1.094   2.639  0.00  0.00    +0.037 A 
ATOM     17  C   UNL     1      -6.264  -1.028   2.728  0.00  0.00    +0.014 A 
ATOM     18  C   UNL     1      -6.984  -2.206   2.634  0.00  0.00    +0.020 A 
ATOM     19  C   UNL     1      -6.308  -3.400   2.457  0.00  0.00    +0.111 A 
ATOM     20  N   UNL     1      -4.992  -3.431   2.376  0.00  0.00    -0.263 NA
ATOM     21  C   UNL     1      -4.264  -2.335   2.454  0.00  0.00    +0.122 A 
ENDBRANCH   9  16
BRANCH   1  22
ATOM     22  C   UNL     1       0.023  -0.346   2.414  0.00  0.00    +0.167 C 
BRANCH  22  28
ATOM     23  C   UNL     1       0.007   1.673   0.064  0.00  0.00    +0.150 C 
ATOM     24  N   UNL     1       0.018   0.214  -0.067  0.00  0.00    -0.337 N 
ATOM     25  C   UNL     1       0.029  -0.496  -1.236  0.00  0.00    +0.104 A 
ATOM     26  C   UNL     1       0.038  -1.800  -0.900  0.00  0.00    +0.102 A 
ATOM     27  N   UNL     1       0.032  -1.883   0.439  0.00  0.00    -0.348 N 
ATOM     28  C   UNL     1       0.025  -0.681   0.945  0.00  0.00    +0.112 A 
ATOM     29  H   UNL     1       0.036  -2.708   0.950  0.00  0.00    +0.167 HD
ENDBRANCH  22  28
BRANCH  22  30
ATOM     30  C   UNL     1       1.438  -0.344   2.931  0.00  0.00    -0.020 A 
ATOM     31  C   UNL     1       2.248   0.758   2.722  0.00  0.00    +0.009 A 
ATOM     32  C   UNL     1       3.546   0.762   3.195  0.00  0.00    +0.046 A 
ATOM     33  C   UNL     1       4.037  -0.339   3.880  0.00  0.00    +0.120 A 
ATOM     34  C   UNL     1       3.223  -1.443   4.089  0.00  0.00    +0.046 A 
ATOM     35  C   UNL     1       1.923  -1.440   3.619  0.00  0.00    +0.009 A 
BRANCH  33  36
ATOM     36  O   UNL     1       5.313  -0.337   4.346  0.00  0.00    -0.495 OA
ATOM     37  C   UNL     1       5.752  -1.505   5.043  0.00  0.00    +0.277 C 
ENDBRANCH  33  36
ENDBRANCH  22  30
ENDBRANCH   1  22
TORSDOF 5
