REMARK  Name = ZINC01778585
REMARK  10 active torsions:
REMARK  status: ('A' for Active; 'I' for Inactive)
REMARK    1  A    between atoms: C_1  and  C_2
REMARK    2  A    between atoms: C_2  and  O_3
REMARK    3  A    between atoms: O_3  and  C_4
REMARK    4  A    between atoms: C_4  and  C_6
REMARK    5  A    between atoms: C_7  and  N_17
REMARK    6  A    between atoms: C_12  and  C_16
REMARK    7  A    between atoms: C_18  and  C_20
REMARK    8  A    between atoms: C_20  and  S_21
REMARK    9  A    between atoms: S_21  and  C_22
REMARK   10  A    between atoms: C_32  and  C_36
REMARK                            x       y       z     vdW  Elec       q    Type
REMARK                         _______ _______ _______ _____ _____    ______ ____
ROOT
ATOM      1  N   UNL     1       1.159  -4.845   1.112  0.00  0.00    -0.283 N 
ATOM      2  C   UNL     1       1.032  -6.180   0.980  0.00  0.00    +0.227 C 
ATOM      3  O   UNL     1       1.062  -6.687  -0.121  0.00  0.00    -0.275 OA
ATOM      4  H   UNL     1       1.183  -4.445   1.995  0.00  0.00    +0.155 HD
ENDROOT
BRANCH   1   6
ATOM      5  C   UNL     1       2.191  -3.010  -0.094  0.00  0.00    +0.118 A 
ATOM      6  C   UNL     1       1.257  -4.038  -0.022  0.00  0.00    +0.058 A 
ATOM      7  C   UNL     1       0.423  -4.236  -1.119  0.00  0.00    -0.015 A 
ATOM      8  C   UNL     1       0.594  -3.397  -2.180  0.00  0.00    -0.004 A 
ATOM      9  S   UNL     1       1.871  -2.339  -1.716  0.00  0.00    -0.085 S 
ATOM     10  C   UNL     1      -0.171  -3.405  -3.469  0.00  0.00    +0.046 C 
ATOM     11  C   UNL     1      -0.930  -4.735  -3.574  0.00  0.00    -0.009 C 
ATOM     12  C   UNL     1      -1.656  -4.993  -2.250  0.00  0.00    +0.008 C 
ATOM     13  C   UNL     1      -0.641  -5.331  -1.158  0.00  0.00    +0.038 C 
ATOM     14  C   UNL     1      -1.951  -4.654  -4.711  0.00  0.00    +0.008 C 
BRANCH   5  15
ATOM     15  C   UNL     1       3.144  -2.602   0.869  0.00  0.00    +0.348 C 
ATOM     16  O   UNL     1       3.297  -3.251   1.887  0.00  0.00    -0.244 OA
BRANCH  15  17
ATOM     17  O   UNL     1       3.884  -1.493   0.657  0.00  0.00    -0.461 OA
BRANCH  17  19
ATOM     18  C   UNL     1       5.567   0.135   1.258  0.00  0.00    +0.048 C 
ATOM     19  C   UNL     1       4.828  -1.140   1.671  0.00  0.00    +0.229 C 
ENDBRANCH  17  19
ENDBRANCH  15  17
ENDBRANCH   5  15
ENDBRANCH   1   6
BRANCH   2  20
ATOM     20  C   UNL     1       0.852  -7.044   2.202  0.00  0.00    +0.171 C 
BRANCH  20  21
ATOM     21  S   UNL     1       0.711  -8.777   1.700  0.00  0.00    -0.096 S 
BRANCH  21  22
ATOM     22  C   UNL     1       0.515  -9.538   3.277  0.00  0.00    +0.109 A 
ATOM     23  C   UNL     1       0.356 -10.949   3.383  0.00  0.00    +0.043 A 
ATOM     24  C   UNL     1       0.324 -11.950   2.316  0.00  0.00    -0.025 A 
ATOM     25  C   UNL     1       0.160 -13.236   2.688  0.00  0.00    -0.004 A 
ATOM     26  S   UNL     1       0.053 -13.195   4.457  0.00  0.00    -0.073 S 
ATOM     27  C   UNL     1       0.214 -11.445   4.694  0.00  0.00    +0.113 A 
ATOM     28  N   UNL     1       0.219 -10.640   5.740  0.00  0.00    -0.228 NA
ATOM     29  C   UNL     1       0.364  -9.339   5.579  0.00  0.00    +0.223 A 
ATOM     30  N   UNL     1       0.508  -8.805   4.379  0.00  0.00    -0.229 NA
ATOM     31  C   UNL     1       0.095 -14.437   1.795  0.00  0.00    +0.046 C 
ATOM     32  C   UNL     1      -0.129 -13.959   0.353  0.00  0.00    -0.009 C 
ATOM     33  C   UNL     1       0.858 -12.827   0.053  0.00  0.00    +0.008 C 
ATOM     34  C   UNL     1       0.470 -11.577   0.843  0.00  0.00    +0.037 C 
ATOM     35  C   UNL     1       0.107 -15.117  -0.618  0.00  0.00    +0.008 C 
ENDBRANCH  21  22
ENDBRANCH  20  21
ENDBRANCH   2  20
TORSDOF 7
