REMARK  Name = ZINC09915907
REMARK  13 active torsions:
REMARK  status: ('A' for Active; 'I' for Inactive)
REMARK    1  A    between atoms: C_1  and  C_2
REMARK    2  A    between atoms: C_2  and  C_23
REMARK    3  A    between atoms: C_3  and  C_21
REMARK    4  A    between atoms: C_3  and  O_22
REMARK    5  A    between atoms: C_4  and  C_19
REMARK    6  A    between atoms: C_4  and  O_20
REMARK    7  A    between atoms: C_5  and  C_17
REMARK    8  A    between atoms: C_5  and  O_18
REMARK    9  A    between atoms: C_6  and  C_8
REMARK   10  A    between atoms: C_6  and  S_9
REMARK   11  A    between atoms: S_9  and  C_10
REMARK   12  A    between atoms: C_13  and  N_16
REMARK   13  A    between atoms: C_23  and  O_24
REMARK                            x       y       z     vdW  Elec       q    Type
REMARK                         _______ _______ _______ _____ _____    ______ ____
ROOT
ATOM      1  C   UNL     1      -1.126  -2.048  -3.445  0.00  0.00    +0.047 C 
ATOM      2  C   UNL     1      -1.047  -0.553  -3.109  0.00  0.00    +0.122 C 
ATOM      3  C   UNL     1      -2.128  -0.198  -2.094  0.00  0.00    +0.125 C 
ATOM      4  C   UNL     1      -1.712  -0.516  -0.665  0.00  0.00    +0.126 C 
ATOM      5  C   UNL     1      -0.328   0.018  -0.324  0.00  0.00    +0.132 C 
ATOM      6  C   UNL     1       0.716  -0.338  -1.378  0.00  0.00    +0.148 C 
ATOM      7  O   UNL     1       0.245  -0.190  -2.695  0.00  0.00    -0.348 OA
ATOM      8  C   UNL     1       1.217  -1.769  -1.134  0.00  0.00    +0.057 C 
ATOM      9  C   UNL     1      -0.374   1.540  -0.144  0.00  0.00    +0.048 C 
ATOM     10  C   UNL     1      -2.732   0.133   0.293  0.00  0.00    +0.047 C 
ATOM     11  C   UNL     1      -3.394  -1.010  -2.428  0.00  0.00    +0.047 C 
ENDROOT
BRANCH   5  12
ATOM     12  O   UNL     1       0.086  -0.559   0.929  0.00  0.00    -0.382 OA
ATOM     13  H   UNL     1       0.957  -0.265   1.229  0.00  0.00    +0.210 HD
ENDBRANCH   5  12
BRANCH   4  14
ATOM     14  O   UNL     1      -1.757  -1.932  -0.447  0.00  0.00    -0.383 OA
ATOM     15  H   UNL     1      -1.571  -2.196   0.465  0.00  0.00    +0.210 HD
ENDBRANCH   4  14
BRANCH   3  16
ATOM     16  O   UNL     1      -2.456   1.192  -2.216  0.00  0.00    -0.383 OA
ATOM     17  H   UNL     1      -2.729   1.454  -3.106  0.00  0.00    +0.210 HD
ENDBRANCH   3  16
BRANCH   6  18
ATOM     18  S   UNL     1       2.142   0.783  -1.150  0.00  0.00    -0.088 S 
BRANCH  18  19
ATOM     19  C   UNL     1       3.211   0.392  -2.495  0.00  0.00    +0.011 A 
ATOM     20  C   UNL     1       4.215  -0.554  -2.333  0.00  0.00    +0.016 A 
ATOM     21  C   UNL     1       5.049  -0.864  -3.388  0.00  0.00    +0.024 A 
ATOM     22  C   UNL     1       4.891  -0.222  -4.610  0.00  0.00    +0.025 A 
ATOM     23  C   UNL     1       3.890   0.728  -4.771  0.00  0.00    +0.024 A 
ATOM     24  C   UNL     1       3.053   1.034  -3.717  0.00  0.00    +0.016 A 
BRANCH  22  25
ATOM     25  N   UNL     1       5.740  -0.532  -5.678  0.00  0.00    -0.358 N 
ATOM     26  H   UNL     1       5.630  -0.084  -6.532  0.00  0.00    +0.142 HD
ATOM     27  H   UNL     1       6.439  -1.196  -5.566  0.00  0.00    +0.142 HD
ENDBRANCH  22  25
ENDBRANCH  18  19
ENDBRANCH   6  18
BRANCH   2  28
ATOM     28  C   UNL     1      -1.366   0.219  -4.411  0.00  0.00    +0.193 C 
BRANCH  28  29
ATOM     29  O   UNL     1      -0.446  -0.171  -5.433  0.00  0.00    -0.392 OA
ATOM     30  H   UNL     1      -0.587   0.274  -6.280  0.00  0.00    +0.210 HD
ENDBRANCH  28  29
ENDBRANCH   2  28
TORSDOF 8
