REMARK  Name = ZINC27662669
REMARK  6 active torsions:
REMARK  status: ('A' for Active; 'I' for Inactive)
REMARK    1  A    between atoms: C_1  and  C_2
REMARK    2  A    between atoms: C_10  and  C_11
REMARK    3  A    between atoms: N_13  and  C_14
REMARK    4  A    between atoms: C_14  and  C_15
REMARK    5  A    between atoms: C_15  and  C_17
REMARK    6  A    between atoms: C_15  and  N_22
REMARK                            x       y       z     vdW  Elec       q    Type
REMARK                         _______ _______ _______ _____ _____    ______ ____
ROOT
ATOM      1  C   UNL     1       3.623  -1.465   3.496  0.00  0.00    +0.280 C 
ATOM      2  O   UNL     1       3.111  -2.462   3.970  0.00  0.00    -0.267 OA
ATOM      3  N   UNL     1       3.405  -1.144   2.205  0.00  0.00    -0.310 N 
ATOM      4  H   UNL     1       3.867  -0.243   1.777  0.00  0.00    +0.149 HD
ENDROOT
BRANCH   1  14
ATOM      5  C   UNL     1       4.274  -1.973   6.494  0.00  0.00    +0.048 C 
ATOM      6  C   UNL     1       4.764  -0.832   5.641  0.00  0.00    +0.008 A 
ATOM      7  C   UNL     1       5.645   0.261   6.053  0.00  0.00    +0.025 A 
ATOM      8  C   UNL     1       6.278   0.601   7.251  0.00  0.00    +0.027 A 
ATOM      9  C   UNL     1       7.054   1.725   7.312  0.00  0.00    +0.019 A 
ATOM     10  C   UNL     1       7.217   2.528   6.190  0.00  0.00    +0.019 A 
ATOM     11  C   UNL     1       6.601   2.209   5.000  0.00  0.00    +0.048 A 
ATOM     12  C   UNL     1       5.807   1.071   4.914  0.00  0.00    +0.136 A 
ATOM     13  O   UNL     1       5.096   0.515   3.914  0.00  0.00    -0.450 OA
ATOM     14  C   UNL     1       4.479  -0.611   4.331  0.00  0.00    +0.193 A 
ATOM     15 BR   UNL     1       7.911   2.188   8.932  0.00  0.00    -0.050 Br
ENDBRANCH   1  14
BRANCH   3  16
ATOM     16  C   UNL     1       2.551  -1.996   1.373  0.00  0.00    +0.094 C 
BRANCH  16  17
ATOM     17  C   UNL     1       2.554  -1.471  -0.064  0.00  0.00    -0.013 C 
BRANCH  17  18
ATOM     18  N   UNL     1       1.773  -2.377  -0.917  0.00  0.00    +0.386 N 
ATOM     19  C   UNL     1       2.207  -3.780  -0.737  0.00  0.00    -0.078 C 
ATOM     20  C   UNL     1       1.634  -4.706  -1.776  0.00  0.00    -0.019 C 
ATOM     21  C   UNL     1       2.649  -4.834  -2.931  0.00  0.00    -0.002 C 
ATOM     22  C   UNL     1       2.615  -3.681  -3.824  0.00  0.00    -0.002 C 
ATOM     23  C   UNL     1       2.973  -2.369  -3.095  0.00  0.00    -0.019 C 
ATOM     24  C   UNL     1       1.767  -1.909  -2.322  0.00  0.00    -0.078 C 
ATOM     25  H   UNL     1       0.722  -2.351  -0.595  0.00  0.00    -0.081 HD
ENDBRANCH  17  18
BRANCH  17  26
ATOM     26  C   UNL     1       1.939  -0.095  -0.098  0.00  0.00    -0.022 A 
ATOM     27  C   UNL     1       2.552   1.113  -0.142  0.00  0.00    +0.009 A 
ATOM     28  C   UNL     1       1.778   2.257  -0.166  0.00  0.00    +0.008 A 
ATOM     29  C   UNL     1       0.427   2.138  -0.144  0.00  0.00    +0.045 A 
ATOM     30  S   UNL     1       0.214   0.366  -0.089  0.00  0.00    -0.103 S 
ENDBRANCH  17  26
ENDBRANCH  16  17
ENDBRANCH   3  16
TORSDOF 5
