REMARK  Name = ZINC59018585
REMARK  8 active torsions:
REMARK  status: ('A' for Active; 'I' for Inactive)
REMARK    1  A    between atoms: C_1  and  C_2
REMARK    2  A    between atoms: C_5  and  N_9
REMARK    3  A    between atoms: C_10  and  C_12
REMARK    4  A    between atoms: C_12  and  S_13
REMARK    5  A    between atoms: S_13  and  C_14
REMARK    6  A    between atoms: N_19  and  N_20
REMARK    7  A    between atoms: C_21  and  C_22
REMARK    8  A    between atoms: C_27  and  O_28
REMARK                            x       y       z     vdW  Elec       q    Type
REMARK                         _______ _______ _______ _____ _____    ______ ____
ROOT
ATOM      1  C   UNL     1      -0.358  -8.691  -2.732  0.00  0.00    +0.211 A 
ATOM      2  N   UNL     1      -0.457  -9.563  -3.741  0.00  0.00    -0.186 NA
ATOM      3  C   UNL     1      -0.512 -10.789  -3.263  0.00  0.00    +0.232 A 
ATOM      4  N   UNL     1      -0.448 -10.715  -1.917  0.00  0.00    -0.245 N 
ATOM      5  N   UNL     1      -0.344  -9.351  -1.598  0.00  0.00    -0.144 NA
ATOM      6  N   UNL     1      -0.618 -11.948  -4.009  0.00  0.00    -0.205 N 
ATOM      7  H   UNL     1      -0.652 -12.810  -3.564  0.00  0.00    +0.177 HD
ATOM      8  H   UNL     1      -0.467 -11.457  -1.292  0.00  0.00    +0.192 HD
ENDROOT
BRANCH   6   9
ATOM      9  N   UNL     1      -0.675 -11.879  -5.407  0.00  0.00    -0.187 NA
ATOM     10  C   UNL     1      -0.774 -12.967  -6.108  0.00  0.00    +0.142 C 
BRANCH  10  11
ATOM     11  C   UNL     1      -0.834 -12.894  -7.579  0.00  0.00    +0.037 A 
ATOM     12  C   UNL     1      -0.947 -14.063  -8.335  0.00  0.00    +0.033 A 
ATOM     13  C   UNL     1      -1.003 -13.987  -9.712  0.00  0.00    +0.042 A 
ATOM     14  C   UNL     1      -0.949 -12.757 -10.347  0.00  0.00    +0.023 A 
ATOM     15  C   UNL     1      -0.838 -11.594  -9.607  0.00  0.00    +0.047 A 
ATOM     16  C   UNL     1      -0.785 -11.652  -8.225  0.00  0.00    +0.126 A 
ATOM     17 CL   UNL     1      -1.142 -15.439 -10.653  0.00  0.00    -0.084 Cl
BRANCH  16  18
ATOM     18  O   UNL     1      -0.681 -10.509  -7.498  0.00  0.00    -0.506 OA
ATOM     19  H   UNL     1       0.230 -10.233  -7.327  0.00  0.00    +0.292 HD
ENDBRANCH  16  18
ENDBRANCH  10  11
ENDBRANCH   6   9
BRANCH   1  20
ATOM     20  S   UNL     1      -0.257  -6.940  -2.898  0.00  0.00    -0.075 S 
BRANCH  20  21
ATOM     21  C   UNL     1      -0.136  -6.343  -1.190  0.00  0.00    +0.173 C 
BRANCH  21  23
ATOM     22  N   UNL     1       0.057  -4.171  -0.023  0.00  0.00    -0.284 N 
ATOM     23  C   UNL     1      -0.042  -4.839  -1.189  0.00  0.00    +0.228 C 
ATOM     24  O   UNL     1      -0.055  -4.230  -2.238  0.00  0.00    -0.275 OA
ATOM     25  H   UNL     1       0.149  -4.660   0.810  0.00  0.00    +0.155 HD
BRANCH  22  30
ATOM     26  C   UNL     1      -0.063   1.502   0.016  0.00  0.00    +0.044 C 
ATOM     27  C   UNL     1      -0.031  -0.005   0.006  0.00  0.00    -0.049 A 
ATOM     28  C   UNL     1      -0.622  -0.701  -1.033  0.00  0.00    +0.005 A 
ATOM     29  C   UNL     1      -0.594  -2.081  -1.045  0.00  0.00    +0.024 A 
ATOM     30  C   UNL     1       0.028  -2.771  -0.013  0.00  0.00    +0.047 A 
ATOM     31  C   UNL     1       0.621  -2.070   1.029  0.00  0.00    +0.039 A 
ATOM     32  C   UNL     1       0.595  -0.688   1.032  0.00  0.00    +0.020 A 
ATOM     33 BR   UNL     1       1.470  -3.004   2.437  0.00  0.00    -0.048 Br
ENDBRANCH  22  30
ENDBRANCH  21  23
ENDBRANCH  20  21
ENDBRANCH   1  20
TORSDOF 7
