REMARK  Name = ZINC12038868
REMARK  8 active torsions:
REMARK  status: ('A' for Active; 'I' for Inactive)
REMARK    1  A    between atoms: C_1  and  N_2
REMARK    2  A    between atoms: N_2  and  C_3
REMARK    3  A    between atoms: C_3  and  C_5
REMARK    4  A    between atoms: C_3  and  C_12
REMARK    5  A    between atoms: C_5  and  C_6
REMARK    6  A    between atoms: C_17  and  C_18
REMARK    7  A    between atoms: C_17  and  N_64
REMARK    8  A    between atoms: C_28  and  C_30
REMARK                            x       y       z     vdW  Elec       q    Type
REMARK                         _______ _______ _______ _____ _____    ______ ____
ROOT
ATOM      1  C   UNL     1      -0.150   1.414  -0.297  0.00  0.00    +0.006 C 
ATOM      2  C   UNL     1      -0.965   1.988   0.865  0.00  0.00    -0.013 C 
ATOM      3  C   UNL     1      -2.381   1.406   0.823  0.00  0.00    -0.078 C 
ATOM      4  C   UNL     1      -2.274   1.162  -1.585  0.00  0.00    -0.078 C 
ATOM      5  C   UNL     1      -0.856   1.737  -1.617  0.00  0.00    -0.013 C 
ATOM      6  N   UNL     1      -3.014   1.772  -0.461  0.00  0.00    +0.383 N 
ATOM      7  H   UNL     1      -2.992   2.794  -0.564  0.00  0.00    -0.081 HD
ENDROOT
BRANCH   1   8
ATOM      8  C   UNL     1       1.248   2.037  -0.299  0.00  0.00    +0.083 C 
BRANCH   8  10
ATOM      9  C   UNL     1       0.551   4.304   0.605  0.00  0.00    +0.132 C 
ATOM     10  N   UNL     1       1.135   3.488  -0.463  0.00  0.00    -0.297 N 
ATOM     11  C   UNL     1       1.567   4.074  -1.598  0.00  0.00    +0.253 C 
ATOM     12  O   UNL     1       2.138   3.412  -2.445  0.00  0.00    -0.269 OA
BRANCH  11  13
ATOM     13  C   UNL     1       1.350   5.507  -1.812  0.00  0.00    +0.074 A 
ATOM     14  C   UNL     1       1.632   6.277  -2.930  0.00  0.00    +0.021 A 
ATOM     15  C   UNL     1       1.321   7.612  -2.865  0.00  0.00    +0.008 A 
ATOM     16  C   UNL     1       0.771   8.110  -1.726  0.00  0.00    +0.046 A 
ATOM     17  S   UNL     1       0.661   6.719  -0.698  0.00  0.00    -0.092 S 
ENDBRANCH  11  13
ENDBRANCH   8  10
BRANCH   8  18
ATOM     18  C   UNL     1       1.946   1.727   1.027  0.00  0.00    +0.058 C 
BRANCH  18  19
ATOM     19  C   UNL     1       3.364   2.234   0.978  0.00  0.00    -0.046 A 
ATOM     20  C   UNL     1       4.377   1.411   0.523  0.00  0.00    +0.004 A 
ATOM     21  C   UNL     1       5.678   1.878   0.474  0.00  0.00    +0.000 A 
ATOM     22  C   UNL     1       5.966   3.165   0.889  0.00  0.00    +0.000 A 
ATOM     23  C   UNL     1       4.954   3.986   1.349  0.00  0.00    +0.000 A 
ATOM     24  C   UNL     1       3.653   3.521   1.393  0.00  0.00    +0.004 A 
ENDBRANCH  18  19
ENDBRANCH   8  18
ENDBRANCH   1   8
BRANCH   6  25
ATOM     25  C   UNL     1      -4.421   1.319  -0.478  0.00  0.00    -0.024 C 
BRANCH  25  26
ATOM     26  C   UNL     1      -5.224   2.204   0.440  0.00  0.00    +0.009 A 
ATOM     27  C   UNL     1      -5.529   1.939   1.727  0.00  0.00    +0.021 A 
ATOM     28  C   UNL     1      -6.290   3.022   2.213  0.00  0.00    +0.020 A 
ATOM     29  C   UNL     1      -6.423   3.908   1.206  0.00  0.00    +0.093 A 
ATOM     30  N   UNL     1      -5.766   3.415   0.114  0.00  0.00    -0.301 N 
ATOM     31  C   UNL     1      -5.668   4.042  -1.127  0.00  0.00    +0.177 A 
ATOM     32  N   UNL     1      -6.085   5.241  -1.485  0.00  0.00    -0.231 NA
ATOM     33  C   UNL     1      -5.910   5.687  -2.713  0.00  0.00    +0.121 A 
ATOM     34  C   UNL     1      -5.288   4.883  -3.610  0.00  0.00    +0.068 A 
ATOM     35  S   UNL     1      -4.957   3.449  -2.596  0.00  0.00    -0.058 S 
ENDBRANCH  25  26
ENDBRANCH   6  25
TORSDOF 7
