REMARK  Name = ZINC20906679
REMARK  10 active torsions:
REMARK  status: ('A' for Active; 'I' for Inactive)
REMARK    1  A    between atoms: C_4  and  C_7
REMARK    2  A    between atoms: C_7  and  C_8
REMARK    3  A    between atoms: C_7  and  N_14
REMARK    4  A    between atoms: C_15  and  C_17
REMARK    5  A    between atoms: C_17  and  C_18
REMARK    6  A    between atoms: C_18  and  S_19
REMARK    7  A    between atoms: S_19  and  C_20
REMARK    8  A    between atoms: N_25  and  N_26
REMARK    9  A    between atoms: C_27  and  C_28
REMARK   10  A    between atoms: C_32  and  O_34
REMARK                            x       y       z     vdW  Elec       q    Type
REMARK                         _______ _______ _______ _____ _____    ______ ____
ROOT
ATOM      1  C   UNL     1       1.058  -2.248  -0.020  0.00  0.00    +0.086 C 
ENDROOT
BRANCH   1   2
ATOM      2  C   UNL     1       1.317  -0.740  -0.015  0.00  0.00    +0.107 C 
BRANCH   2   4
ATOM      3  N   UNL     1      -0.016   1.344   0.009  0.00  0.00    -0.304 N 
ATOM      4  C   UNL     1       0.002  -0.004   0.002  0.00  0.00    +0.215 C 
ATOM      5  O   UNL     1      -1.040  -0.625   0.009  0.00  0.00    -0.276 OA
ATOM      6  H   UNL     1       0.929   1.907   0.008  0.00  0.00    +0.150 HD
BRANCH   3   7
ATOM      7  C   UNL     1      -1.295   2.059   0.019  0.00  0.00    +0.134 C 
BRANCH   7  11
ATOM      8  C   UNL     1      -2.690   2.425   4.040  0.00  0.00    +0.000 A 
ATOM      9  C   UNL     1      -3.582   2.144   3.022  0.00  0.00    +0.000 A 
ATOM     10  C   UNL     1      -3.130   2.026   1.721  0.00  0.00    +0.006 A 
ATOM     11  C   UNL     1      -1.787   2.188   1.438  0.00  0.00    -0.023 A 
ATOM     12  C   UNL     1      -0.894   2.464   2.457  0.00  0.00    +0.006 A 
ATOM     13  C   UNL     1      -1.346   2.587   3.757  0.00  0.00    +0.000 A 
ENDBRANCH   7  11
BRANCH   7  14
ATOM     14  C   UNL     1      -1.107   3.431  -0.575  0.00  0.00    -0.023 A 
ATOM     15  C   UNL     1       0.027   4.163  -0.279  0.00  0.00    +0.006 A 
ATOM     16  C   UNL     1       0.201   5.420  -0.827  0.00  0.00    +0.000 A 
ATOM     17  C   UNL     1      -0.764   5.949  -1.664  0.00  0.00    +0.000 A 
ATOM     18  C   UNL     1      -1.901   5.219  -1.955  0.00  0.00    +0.000 A 
ATOM     19  C   UNL     1      -2.073   3.960  -1.411  0.00  0.00    +0.006 A 
ENDBRANCH   7  14
ENDBRANCH   3   7
ENDBRANCH   2   4
ENDBRANCH   1   2
BRANCH   1  20
ATOM     20  S   UNL     1       2.641  -3.133  -0.040  0.00  0.00    -0.084 S 
BRANCH  20  21
ATOM     21  C   UNL     1       2.179  -4.833  -0.045  0.00  0.00    +0.210 A 
ATOM     22  N   UNL     1       3.034  -5.898  -0.059  0.00  0.00    -0.186 NA
ATOM     23  C   UNL     1       2.285  -7.042  -0.057  0.00  0.00    +0.232 A 
ATOM     24  N   UNL     1       1.020  -6.698  -0.043  0.00  0.00    -0.245 N 
ATOM     25  N   UNL     1       0.952  -5.299  -0.030  0.00  0.00    -0.144 NA
ATOM     26  N   UNL     1       2.777  -8.339  -0.069  0.00  0.00    -0.205 N 
ATOM     27  H   UNL     1       3.863  -8.515  -0.081  0.00  0.00    +0.177 HD
ATOM     28  H   UNL     1       0.239  -7.473  -0.043  0.00  0.00    +0.192 HD
BRANCH  26  29
ATOM     29  N   UNL     1       1.892  -9.425  -0.066  0.00  0.00    -0.188 NA
ATOM     30  C   UNL     1       2.353 -10.639  -0.077  0.00  0.00    +0.138 C 
BRANCH  30  31
ATOM     31  C   UNL     1       1.420 -11.781  -0.074  0.00  0.00    -0.002 A 
ATOM     32  C   UNL     1       0.040 -11.560  -0.058  0.00  0.00    +0.010 A 
ATOM     33  C   UNL     1      -0.828 -12.632  -0.056  0.00  0.00    +0.004 A 
ATOM     34  C   UNL     1      -0.338 -13.925  -0.068  0.00  0.00    +0.045 A 
ATOM     35  C   UNL     1       1.031 -14.155  -0.084  0.00  0.00    +0.117 A 
ATOM     36  C   UNL     1       1.913 -13.087  -0.091  0.00  0.00    +0.054 A 
BRANCH  35  37
ATOM     37  O   UNL     1       1.506 -15.428  -0.096  0.00  0.00    -0.507 OA
ATOM     38  H   UNL     1       2.591 -15.610  -0.109  0.00  0.00    +0.292 HD
ENDBRANCH  35  37
ENDBRANCH  30  31
ENDBRANCH  26  29
ENDBRANCH  20  21
ENDBRANCH   1  20
TORSDOF 10
