REMARK  Name = ZINC33072035
REMARK  6 active torsions:
REMARK  status: ('A' for Active; 'I' for Inactive)
REMARK    1  A    between atoms: C_1  and  C_2
REMARK    2  A    between atoms: C_5  and  C_8
REMARK    3  A    between atoms: C_8  and  C_9
REMARK    4  A    between atoms: C_9  and  N_10
REMARK    5  A    between atoms: C_11  and  C_13
REMARK    6  A    between atoms: C_25  and  C_30
REMARK                            x       y       z     vdW  Elec       q    Type
REMARK                         _______ _______ _______ _____ _____    ______ ____
ROOT
ATOM      1  C   UNL     1      -0.752   1.593  -1.232  0.00  0.00    +0.092 C 
ATOM      2  C   UNL     1      -0.788   3.123  -1.209  0.00  0.00    +0.016 C 
ATOM      3  C   UNL     1      -1.465   3.591   0.082  0.00  0.00    +0.020 C 
ATOM      4  C   UNL     1      -0.705   3.026   1.284  0.00  0.00    +0.108 C 
ATOM      5  N   UNL     1      -0.700   1.559   1.216  0.00  0.00    -0.302 N 
ATOM      6  C   UNL     1      -0.013   1.086   0.008  0.00  0.00    +0.120 C 
ATOM      7  C   UNL     1      -0.136   1.014   2.351  0.00  0.00    +0.174 A 
ATOM      8  N   UNL     1      -0.547   1.264   3.629  0.00  0.00    -0.327 N 
ATOM      9  H   UNL     1      -1.389   1.948   3.812  0.00  0.00    +0.169 HD
ATOM     10  C   UNL     1       0.268   0.529   4.474  0.00  0.00    +0.066 A 
ATOM     11  C   UNL     1       0.336   0.373   5.850  0.00  0.00    +0.031 A 
ATOM     12  C   UNL     1       1.295  -0.451   6.402  0.00  0.00    -0.048 A 
ATOM     13  C   UNL     1       2.193  -1.126   5.589  0.00  0.00    +0.005 A 
ATOM     14  C   UNL     1       2.140  -0.984   4.220  0.00  0.00    +0.028 A 
ATOM     15  C   UNL     1       1.175  -0.153   3.646  0.00  0.00    +0.065 A 
ATOM     16  N   UNL     1       0.877   0.184   2.363  0.00  0.00    -0.327 N 
ATOM     17  C   UNL     1       1.367  -0.618   7.898  0.00  0.00    +0.044 C 
ATOM     18  H   UNL     1       1.344  -0.128   1.418  0.00  0.00    +0.169 HD
ENDROOT
BRANCH   1  20
ATOM     19  N   UNL     1      -0.510   1.454  -3.690  0.00  0.00    -0.315 N 
ATOM     20  C   UNL     1      -0.035   1.125  -2.472  0.00  0.00    +0.218 C 
ATOM     21  O   UNL     1       0.969   0.452  -2.374  0.00  0.00    -0.275 OA
ATOM     22  H   UNL     1      -1.421   2.064  -3.779  0.00  0.00    +0.149 HD
BRANCH  19  23
ATOM     23  C   UNL     1       0.188   0.999  -4.895  0.00  0.00    +0.109 C 
BRANCH  23  24
ATOM     24  C   UNL     1      -0.552   1.506  -6.135  0.00  0.00    +0.054 C 
BRANCH  24  29
ATOM     25  C   UNL     1       2.197  -0.288 -10.890  0.00  0.00    +0.044 C 
ATOM     26  C   UNL     1       1.480   0.180  -9.650  0.00  0.00    -0.050 A 
ATOM     27  C   UNL     1       0.486  -0.601  -9.090  0.00  0.00    +0.003 A 
ATOM     28  C   UNL     1      -0.172  -0.172  -7.953  0.00  0.00    +0.004 A 
ATOM     29  C   UNL     1       0.165   1.038  -7.375  0.00  0.00    -0.046 A 
ATOM     30  C   UNL     1       1.155   1.821  -7.937  0.00  0.00    +0.004 A 
ATOM     31  C   UNL     1       1.816   1.390  -9.072  0.00  0.00    +0.003 A 
ENDBRANCH  24  29
ENDBRANCH  23  24
ENDBRANCH  19  23
ENDBRANCH   1  20
TORSDOF 4
