REMARK  Name = ZINC32196245
REMARK  7 active torsions:
REMARK  status: ('A' for Active; 'I' for Inactive)
REMARK    1  A    between atoms: C_1  and  C_2
REMARK    2  A    between atoms: C_2  and  C_4
REMARK    3  A    between atoms: C_2  and  O_13
REMARK    4  A    between atoms: O_13  and  C_14
REMARK    5  A    between atoms: C_17  and  C_20
REMARK    6  A    between atoms: C_20  and  C_21
REMARK    7  A    between atoms: C_20  and  C_22
REMARK                            x       y       z     vdW  Elec       q    Type
REMARK                         _______ _______ _______ _____ _____    ______ ____
ROOT
ATOM      1  C   UNL     1      -0.044   1.273   0.345  0.00  0.00    +0.060 C 
ATOM      2  C   UNL     1      -0.015  -0.229   0.058  0.00  0.00    +0.239 C 
ENDROOT
BRANCH   2   3
ATOM      3  C   UNL     1      -1.426  -0.749  -0.046  0.00  0.00    +0.195 A 
ATOM      4  N   UNL     1      -2.234  -0.575  -1.054  0.00  0.00    -0.128 NA
ATOM      5  N   UNL     1      -3.362  -1.149  -0.817  0.00  0.00    -0.120 NA
ATOM      6  C   UNL     1      -3.321  -1.713   0.352  0.00  0.00    +0.220 A 
ATOM      7  N   UNL     1      -2.086  -1.496   0.907  0.00  0.00    -0.185 N 
ATOM      8  N   UNL     1      -1.865  -2.041   2.165  0.00  0.00    -0.140 NA
ATOM      9  C   UNL     1      -2.794  -2.726   2.778  0.00  0.00    +0.179 A 
ATOM     10  S   UNL     1      -4.140  -2.668   1.605  0.00  0.00    -0.012 S 
ATOM     11  N   UNL     1      -2.749  -3.334   4.022  0.00  0.00    -0.336 N 
ATOM     12  H   UNL     1      -1.944  -3.280   4.559  0.00  0.00    +0.144 HD
ATOM     13  H   UNL     1      -3.523  -3.815   4.355  0.00  0.00    +0.144 HD
ENDBRANCH   2   3
BRANCH   2  14
ATOM     14  O   UNL     1       0.671  -0.465  -1.174  0.00  0.00    -0.481 OA
BRANCH  14  15
ATOM     15  C   UNL     1       2.026  -0.553  -1.118  0.00  0.00    +0.122 A 
ATOM     16  C   UNL     1       2.690  -0.309   0.075  0.00  0.00    +0.046 A 
ATOM     17  C   UNL     1       4.067  -0.400   0.129  0.00  0.00    +0.007 A 
ATOM     18  C   UNL     1       4.784  -0.733  -1.005  0.00  0.00    -0.045 A 
ATOM     19  C   UNL     1       4.125  -0.976  -2.196  0.00  0.00    +0.007 A 
ATOM     20  C   UNL     1       2.747  -0.893  -2.253  0.00  0.00    +0.046 A 
BRANCH  18  21
ATOM     21  C   UNL     1       6.287  -0.831  -0.944  0.00  0.00    +0.013 C 
ATOM     22  C   UNL     1       6.722  -2.247  -1.324  0.00  0.00    +0.012 C 
ATOM     23  C   UNL     1       6.904   0.172  -1.921  0.00  0.00    +0.012 C 
ENDBRANCH  18  21
ENDBRANCH  14  15
ENDBRANCH   2  14
TORSDOF 4
