REMARK  Name = ZINC39462147
REMARK  9 active torsions:
REMARK  status: ('A' for Active; 'I' for Inactive)
REMARK    1  A    between atoms: C_1  and  C_2
REMARK    2  A    between atoms: C_2  and  N_3
REMARK    3  A    between atoms: N_3  and  C_4
REMARK    4  A    between atoms: N_3  and  C_11
REMARK    5  A    between atoms: C_4  and  C_5
REMARK    6  A    between atoms: C_11  and  C_12
REMARK    7  A    between atoms: N_14  and  C_15
REMARK    8  A    between atoms: C_20  and  C_25
REMARK    9  A    between atoms: C_26  and  C_29
REMARK                            x       y       z     vdW  Elec       q    Type
REMARK                         _______ _______ _______ _____ _____    ______ ____
ROOT
ATOM      1  C   UNL     1      -0.052   1.493   2.253  0.00  0.00    +0.199 C 
ATOM      2  O   UNL     1       0.462   2.117   1.349  0.00  0.00    -0.278 OA
ATOM      3  N   UNL     1      -0.726   2.143   3.223  0.00  0.00    -0.288 N 
ATOM      4  H   UNL     1      -1.137   1.643   3.946  0.00  0.00    +0.151 HD
ENDROOT
BRANCH   3   5
ATOM      5  C   UNL     1      -0.837   3.603   3.186  0.00  0.00    +0.243 C 
ATOM      6  C   UNL     1      -2.168   4.037   3.743  0.00  0.00    +0.072 A 
ATOM      7  H   UNL     1      -5.391   3.905   4.145  0.00  0.00    +0.192 HD
ATOM      8  C   UNL     1      -1.946   5.107   4.564  0.00  0.00    +0.016 A 
ATOM      9  C   UNL     1      -3.042   5.695   5.206  0.00  0.00    +0.065 A 
ATOM     10  N   UNL     1      -4.244   5.220   5.015  0.00  0.00    -0.176 NA
ATOM     11  N   UNL     1      -4.479   4.216   4.250  0.00  0.00    -0.243 N 
ATOM     12  C   UNL     1      -3.489   3.581   3.588  0.00  0.00    +0.272 A 
ATOM     13  O   UNL     1      -3.736   2.629   2.866  0.00  0.00    -0.266 OA
ATOM     14  C   UNL     1      -2.836   6.877   6.118  0.00  0.00    +0.068 C 
ATOM     15  C   UNL     1      -0.466   5.389   4.554  0.00  0.00    +0.150 C 
ATOM     16  O   UNL     1       0.162   4.199   4.035  0.00  0.00    -0.347 OA
ATOM     17  C   UNL     1      -0.162   6.584   3.648  0.00  0.00    +0.043 C 
ENDBRANCH   3   5
BRANCH   1  18
ATOM     18  C   UNL     1       0.062  -0.009   2.292  0.00  0.00    +0.019 C 
BRANCH  18  19
ATOM     19  N   UNL     1       0.963  -0.459   1.223  0.00  0.00    +0.388 N 
ATOM     20  H   UNL     1       0.656  -0.077   0.341  0.00  0.00    -0.081 HD
BRANCH  19  22
ATOM     21  C   UNL     1      -0.446  -2.400   0.725  0.00  0.00    -0.017 C 
ATOM     22  C   UNL     1       0.945  -1.927   1.152  0.00  0.00    -0.081 C 
ENDBRANCH  19  22
BRANCH  19  23
ATOM     23  C   UNL     1       2.329   0.000   1.507  0.00  0.00    -0.035 C 
BRANCH  23  24
ATOM     24  C   UNL     1       3.229  -0.355   0.352  0.00  0.00    -0.026 A 
ATOM     25  C   UNL     1       3.526   0.372  -0.753  0.00  0.00    +0.010 A 
ATOM     26  C   UNL     1       4.388  -0.160  -1.694  0.00  0.00    +0.023 A 
ATOM     27  C   UNL     1       4.910  -1.394  -1.483  0.00  0.00    +0.055 A 
ATOM     28  S   UNL     1       4.187  -1.838   0.087  0.00  0.00    -0.088 S 
ATOM     29 BR   UNL     1       6.102  -2.384  -2.568  0.00  0.00    -0.043 Br
ENDBRANCH  23  24
ENDBRANCH  19  23
ENDBRANCH  18  19
ENDBRANCH   1  18
TORSDOF 6
