REMARK  Name = ZINC30977740
REMARK  13 active torsions:
REMARK  status: ('A' for Active; 'I' for Inactive)
REMARK    1  A    between atoms: C_1  and  C_2
REMARK    2  A    between atoms: C_5  and  C_9
REMARK    3  A    between atoms: C_6  and  C_8
REMARK    4  A    between atoms: C_9  and  C_11
REMARK    5  A    between atoms: C_9  and  N_12
REMARK    6  A    between atoms: C_13  and  C_15
REMARK    7  A    between atoms: N_18  and  C_21
REMARK    8  A    between atoms: C_21  and  C_22
REMARK    9  A    between atoms: C_24  and  C_27
REMARK   10  A    between atoms: C_30  and  C_33
REMARK   11  A    between atoms: C_33  and  C_34
REMARK   12  A    between atoms: C_33  and  C_35
REMARK   13  A    between atoms: C_33  and  C_36
REMARK                            x       y       z     vdW  Elec       q    Type
REMARK                         _______ _______ _______ _____ _____    ______ ____
ROOT
ATOM      1  C   UNL     1      -3.177   7.153   1.911  0.00  0.00    +0.071 C 
ATOM      2  C   UNL     1      -2.044   7.098   2.940  0.00  0.00    -0.006 C 
ATOM      3  C   UNL     1      -1.891   8.472   3.596  0.00  0.00    -0.077 C 
ATOM      4  N   UNL     1      -3.152   8.847   4.249  0.00  0.00    +0.386 N 
ATOM      5  C   UNL     1      -4.244   8.953   3.273  0.00  0.00    -0.077 C 
ATOM      6  C   UNL     1      -4.468   7.593   2.607  0.00  0.00    -0.006 C 
ATOM      7  H   UNL     1      -3.412   8.049   4.959  0.00  0.00    -0.081 HD
ENDROOT
BRANCH   1   9
ATOM      8  N   UNL     1      -2.363   5.196   0.636  0.00  0.00    -0.309 N 
ATOM      9  C   UNL     1      -3.373   5.787   1.304  0.00  0.00    +0.216 C 
ATOM     10  O   UNL     1      -4.439   5.221   1.417  0.00  0.00    -0.276 OA
ATOM     11  H   UNL     1      -1.395   5.709   0.534  0.00  0.00    +0.149 HD
BRANCH   8  12
ATOM     12  C   UNL     1      -2.553   3.868   0.046  0.00  0.00    +0.100 C 
ATOM     13  C   UNL     1      -3.139   4.014  -1.360  0.00  0.00    +0.033 C 
BRANCH  12  18
ATOM     14  C   UNL     1       2.537   1.150  -0.261  0.00  0.00    +0.044 C 
ATOM     15  C   UNL     1       1.210   1.859  -0.181  0.00  0.00    -0.050 A 
ATOM     16  C   UNL     1       1.161   3.240  -0.214  0.00  0.00    +0.004 A 
ATOM     17  C   UNL     1      -0.057   3.890  -0.141  0.00  0.00    +0.006 A 
ATOM     18  C   UNL     1      -1.226   3.159  -0.035  0.00  0.00    -0.025 A 
ATOM     19  C   UNL     1      -1.177   1.778  -0.006  0.00  0.00    -0.045 A 
ATOM     20  C   UNL     1       0.041   1.128  -0.074  0.00  0.00    +0.007 A 
ATOM     21  C   UNL     1      -2.451   0.982   0.105  0.00  0.00    +0.044 C 
ENDBRANCH  12  18
ENDBRANCH   8  12
ENDBRANCH   1   9
BRANCH   4  22
ATOM     22  C   UNL     1      -3.000  10.097   5.007  0.00  0.00    +0.022 C 
BRANCH  22  23
ATOM     23  C   UNL     1      -2.048   9.876   6.154  0.00  0.00    +0.211 A 
ATOM     24  N   UNL     1      -0.749  10.039   6.129  0.00  0.00    -0.193 NA
ATOM     25  C   UNL     1      -0.320   9.728   7.373  0.00  0.00    +0.202 A 
ATOM     26  N   UNL     1      -1.373   9.399   8.073  0.00  0.00    -0.056 NA
ATOM     27  O   UNL     1      -2.371   9.483   7.390  0.00  0.00    -0.340 OA
BRANCH  25  28
ATOM     28  C   UNL     1       1.085   9.756   7.853  0.00  0.00    +0.022 A 
ATOM     29  C   UNL     1       2.112  10.124   6.987  0.00  0.00    +0.012 A 
ATOM     30  C   UNL     1       3.416  10.154   7.441  0.00  0.00    +0.005 A 
ATOM     31  C   UNL     1       3.704   9.808   8.748  0.00  0.00    -0.042 A 
ATOM     32  C   UNL     1       2.688   9.437   9.611  0.00  0.00    +0.005 A 
ATOM     33  C   UNL     1       1.380   9.409   9.169  0.00  0.00    +0.012 A 
BRANCH  31  34
ATOM     34  C   UNL     1       5.130   9.835   9.236  0.00  0.00    -0.013 C 
ATOM     35  C   UNL     1       5.535   8.437   9.706  0.00  0.00    +0.015 C 
ATOM     36  C   UNL     1       6.050  10.276   8.096  0.00  0.00    +0.015 C 
ATOM     37  C   UNL     1       5.252  10.821  10.400  0.00  0.00    +0.015 C 
ENDBRANCH  31  34
ENDBRANCH  25  28
ENDBRANCH  22  23
ENDBRANCH   4  22
TORSDOF 7
