REMARK  Name = ZINC35867565
REMARK  7 active torsions:
REMARK  status: ('A' for Active; 'I' for Inactive)
REMARK    1  A    between atoms: C_1  and  C_2
REMARK    2  A    between atoms: C_11  and  N_19
REMARK    3  A    between atoms: C_13  and  C_15
REMARK    4  A    between atoms: C_15  and  C_16
REMARK    5  A    between atoms: C_16  and  C_17
REMARK    6  A    between atoms: C_16  and  C_18
REMARK    7  A    between atoms: N_27  and  C_28
REMARK                            x       y       z     vdW  Elec       q    Type
REMARK                         _______ _______ _______ _____ _____    ______ ____
ROOT
ATOM      1  C   UNL     1      -0.026   1.516   0.043  0.00  0.00    +0.008 C 
ATOM      2  C   UNL     1      -0.005  -0.014   0.029  0.00  0.00    -0.009 C 
ATOM      3  C   UNL     1      -1.440  -0.548   0.044  0.00  0.00    +0.008 C 
ATOM      4  C   UNL     1      -1.436  -2.054  -0.218  0.00  0.00    +0.037 C 
ATOM      5  C   UNL     1      -0.478  -2.724   0.763  0.00  0.00    -0.025 A 
ATOM      6  C   UNL     1       0.468  -2.000   1.404  0.00  0.00    -0.004 A 
ATOM      7  S   UNL     1       1.336  -3.164   2.425  0.00  0.00    -0.073 S 
ATOM      8  C   UNL     1       0.433  -4.617   1.996  0.00  0.00    +0.114 A 
ATOM      9  C   UNL     1      -0.524  -4.146   1.062  0.00  0.00    +0.051 A 
ATOM     10  C   UNL     1      -1.422  -5.110   0.520  0.00  0.00    +0.133 A 
ATOM     11  N   UNL     1      -1.264  -6.359   0.954  0.00  0.00    -0.217 NA
ATOM     12  C   UNL     1      -0.347  -6.724   1.827  0.00  0.00    +0.133 A 
ATOM     13  N   UNL     1       0.520  -5.878   2.370  0.00  0.00    -0.225 NA
ATOM     14  C   UNL     1       0.729  -0.530   1.275  0.00  0.00    +0.046 C 
ENDROOT
BRANCH  10  15
ATOM     15  N   UNL     1      -2.399  -4.770  -0.399  0.00  0.00    -0.312 N 
ATOM     16  C   UNL     1      -2.087  -4.707  -1.833  0.00  0.00    +0.125 C 
ATOM     17  C   UNL     1      -3.060  -5.622  -2.587  0.00  0.00    +0.128 C 
ATOM     18  N   UNL     1      -4.428  -5.317  -2.146  0.00  0.00    -0.283 N 
ATOM     19  C   UNL     1      -4.740  -5.380  -0.712  0.00  0.00    +0.128 C 
ATOM     20  C   UNL     1      -3.769  -4.470   0.042  0.00  0.00    +0.125 C 
ATOM     21  C   UNL     1      -5.379  -4.985  -3.042  0.00  0.00    +0.303 C 
ATOM     22  O   UNL     1      -5.136  -5.029  -4.232  0.00  0.00    -0.253 OA
ATOM     23  N   UNL     1      -6.601  -4.606  -2.617  0.00  0.00    -0.296 N 
ATOM     24  H   UNL     1      -6.773  -4.499  -1.669  0.00  0.00    +0.151 HD
BRANCH  23  25
ATOM     25  C   UNL     1      -7.668  -4.354  -3.588  0.00  0.00    +0.074 C 
ATOM     26  C   UNL     1      -7.562  -2.918  -4.103  0.00  0.00    +0.022 C 
ATOM     27  C   UNL     1      -8.677  -2.655  -5.118  0.00  0.00    +0.002 C 
ATOM     28  C   UNL     1     -10.036  -2.856  -4.445  0.00  0.00    +0.000 C 
ATOM     29  C   UNL     1     -10.143  -4.293  -3.930  0.00  0.00    +0.002 C 
ATOM     30  C   UNL     1      -9.028  -4.556  -2.916  0.00  0.00    +0.022 C 
ENDBRANCH  23  25
ENDBRANCH  10  15
BRANCH  12  31
ATOM     31  C   UNL     1      -0.280  -8.175   2.230  0.00  0.00    +0.079 C 
BRANCH  31  32
ATOM     32  C   UNL     1       0.667  -8.922   1.290  0.00  0.00    -0.010 C 
ATOM     33  C   UNL     1       2.090  -8.387   1.466  0.00  0.00    +0.007 C 
ATOM     34  C   UNL     1       0.640 -10.416   1.619  0.00  0.00    +0.007 C 
ENDBRANCH  31  32
ENDBRANCH  12  31
TORSDOF 4
