REMARK  Name = ZINC35867424
REMARK  12 active torsions:
REMARK  status: ('A' for Active; 'I' for Inactive)
REMARK    1  A    between atoms: C_1  and  C_2
REMARK    2  A    between atoms: C_11  and  N_18
REMARK    3  A    between atoms: C_13  and  C_15
REMARK    4  A    between atoms: C_15  and  C_16
REMARK    5  A    between atoms: C_15  and  C_17
REMARK    6  A    between atoms: N_26  and  C_27
REMARK    7  A    between atoms: C_28  and  C_36
REMARK    8  A    between atoms: C_32  and  C_33
REMARK    9  A    between atoms: C_33  and  C_34
REMARK   10  A    between atoms: C_33  and  C_35
REMARK   11  A    between atoms: C_36  and  C_37
REMARK   12  A    between atoms: C_36  and  C_38
REMARK                            x       y       z     vdW  Elec       q    Type
REMARK                         _______ _______ _______ _____ _____    ______ ____
ROOT
ATOM      1  N   UNL     1      -0.582  -7.022  -3.553  0.00  0.00    -0.312 N 
ATOM      2  C   UNL     1      -1.416  -6.454  -2.483  0.00  0.00    +0.125 C 
ATOM      3  C   UNL     1      -1.963  -5.101  -2.954  0.00  0.00    +0.128 C 
ATOM      4  N   UNL     1      -2.547  -5.271  -4.293  0.00  0.00    -0.282 N 
ATOM      5  C   UNL     1      -1.714  -5.839  -5.362  0.00  0.00    +0.128 C 
ATOM      6  C   UNL     1      -1.164  -7.186  -4.892  0.00  0.00    +0.125 C 
ATOM      7  C   UNL     1      -3.823  -4.913  -4.535  0.00  0.00    +0.307 C 
ATOM      8  O   UNL     1      -4.474  -4.360  -3.669  0.00  0.00    -0.252 OA
ATOM      9  N   UNL     1      -4.379  -5.169  -5.736  0.00  0.00    -0.269 N 
ATOM     10  H   UNL     1      -3.882  -5.666  -6.404  0.00  0.00    +0.156 HD
ENDROOT
BRANCH   1  20
ATOM     11  C   UNL     1      -2.289 -13.079  -1.157  0.00  0.00    +0.008 C 
ATOM     12  C   UNL     1      -1.494 -11.779  -1.301  0.00  0.00    -0.009 C 
ATOM     13  C   UNL     1      -1.966 -11.024  -2.547  0.00  0.00    +0.008 C 
ATOM     14  C   UNL     1      -1.359  -9.620  -2.563  0.00  0.00    +0.037 C 
ATOM     15  C   UNL     1       0.154  -9.734  -2.402  0.00  0.00    -0.025 A 
ATOM     16  C   UNL     1       0.710 -10.863  -1.905  0.00  0.00    -0.004 A 
ATOM     17  S   UNL     1       2.458 -10.557  -1.893  0.00  0.00    -0.073 S 
ATOM     18  C   UNL     1       2.446  -8.922  -2.554  0.00  0.00    +0.114 A 
ATOM     19  C   UNL     1       1.067  -8.663  -2.764  0.00  0.00    +0.051 A 
ATOM     20  C   UNL     1       0.728  -7.389  -3.304  0.00  0.00    +0.133 A 
ATOM     21  N   UNL     1       1.751  -6.574  -3.555  0.00  0.00    -0.216 NA
ATOM     22  C   UNL     1       3.012  -6.886  -3.333  0.00  0.00    +0.135 A 
ATOM     23  N   UNL     1       3.397  -8.053  -2.832  0.00  0.00    -0.224 NA
ATOM     24  C   UNL     1      -0.001 -12.103  -1.455  0.00  0.00    +0.046 C 
BRANCH  22  25
ATOM     25  C   UNL     1       4.070  -5.865  -3.665  0.00  0.00    +0.051 C 
ATOM     26  C   UNL     1       4.851  -5.511  -2.398  0.00  0.00    +0.015 C 
ATOM     27  C   UNL     1       5.027  -6.444  -4.709  0.00  0.00    +0.015 C 
ENDBRANCH  22  25
ENDBRANCH   1  20
BRANCH   9  28
ATOM     28  C   UNL     1      -5.672  -4.716  -6.019  0.00  0.00    +0.042 A 
ATOM     29  C   UNL     1      -6.667  -5.622  -6.361  0.00  0.00    -0.023 A 
ATOM     30  C   UNL     1      -7.943  -5.172  -6.640  0.00  0.00    +0.006 A 
ATOM     31  C   UNL     1      -8.229  -3.820  -6.579  0.00  0.00    +0.001 A 
ATOM     32  C   UNL     1      -7.241  -2.915  -6.239  0.00  0.00    +0.006 A 
ATOM     33  C   UNL     1      -5.964  -3.360  -5.954  0.00  0.00    -0.023 A 
BRANCH  33  34
ATOM     34  C   UNL     1      -4.889  -2.373  -5.577  0.00  0.00    +0.015 C 
ATOM     35  C   UNL     1      -4.091  -1.988  -6.825  0.00  0.00    +0.012 C 
ATOM     36  C   UNL     1      -5.532  -1.122  -4.976  0.00  0.00    +0.012 C 
ENDBRANCH  33  34
BRANCH  29  37
ATOM     37  C   UNL     1      -6.356  -7.095  -6.428  0.00  0.00    +0.015 C 
ATOM     38  C   UNL     1      -7.321  -7.862  -5.522  0.00  0.00    +0.012 C 
ATOM     39  C   UNL     1      -6.511  -7.584  -7.869  0.00  0.00    +0.012 C 
ENDBRANCH  29  37
ENDBRANCH   9  28
TORSDOF 5
