REMARK  Name = ZINC40582691
REMARK  6 active torsions:
REMARK  status: ('A' for Active; 'I' for Inactive)
REMARK    1  A    between atoms: C_1  and  C_2
REMARK    2  A    between atoms: C_2  and  C_4
REMARK    3  A    between atoms: C_2  and  N_8
REMARK    4  A    between atoms: C_4  and  C_5
REMARK    5  A    between atoms: C_15  and  C_18
REMARK    6  A    between atoms: C_18  and  O_19
REMARK                            x       y       z     vdW  Elec       q    Type
REMARK                         _______ _______ _______ _____ _____    ______ ____
ROOT
ATOM      1  N   UNL     1      -1.372  -0.512   0.012  0.00  0.00    -0.296 N 
ATOM      2  C   UNL     1      -2.051  -0.643  -1.145  0.00  0.00    +0.302 C 
ATOM      3  O   UNL     1      -1.557  -0.255  -2.186  0.00  0.00    -0.253 OA
ATOM      4  N   UNL     1      -3.277  -1.203  -1.147  0.00  0.00    -0.285 N 
ATOM      5  C   UNL     1      -3.935  -1.569   0.115  0.00  0.00    +0.109 C 
ATOM      6  C   UNL     1      -4.353  -3.041   0.043  0.00  0.00    +0.019 C 
ATOM      7  C   UNL     1      -5.214  -3.263  -1.202  0.00  0.00    +0.009 C 
ATOM      8  C   UNL     1      -4.398  -2.931  -2.454  0.00  0.00    +0.032 C 
ATOM      9  C   UNL     1      -3.983  -1.453  -2.411  0.00  0.00    +0.115 C 
ATOM     10  H   UNL     1      -1.794  -0.753   0.852  0.00  0.00    +0.151 HD
ENDROOT
BRANCH   1  12
ATOM     11  C   UNL     1      -0.016   1.524   0.010  0.00  0.00    +0.028 C 
ATOM     12  C   UNL     1       0.003  -0.006   0.002  0.00  0.00    +0.082 C 
BRANCH  12  13
ATOM     13  C   UNL     1       0.743  -0.514   1.241  0.00  0.00    +0.147 C 
BRANCH  13  14
ATOM     14  C   UNL     1       0.869  -2.014   1.171  0.00  0.00    +0.358 C 
ATOM     15  O   UNL     1       0.410  -2.621   0.218  0.00  0.00    -0.246 OA
ATOM     16  O   UNL     1       1.431  -2.621   2.067  0.00  0.00    -0.246 OA
ENDBRANCH  13  14
ENDBRANCH  12  13
ENDBRANCH   1  12
BRANCH   8  17
ATOM     17  C   UNL     1      -5.249  -3.185  -3.700  0.00  0.00    +0.160 C 
BRANCH  17  18
ATOM     18  O   UNL     1      -4.452  -2.988  -4.870  0.00  0.00    -0.395 OA
ATOM     19  H   UNL     1      -4.928  -3.132  -5.699  0.00  0.00    +0.209 HD
ENDBRANCH  17  18
ENDBRANCH   8  17
TORSDOF 5
