REMARK  Name = ZINC23153571
REMARK  4 active torsions:
REMARK  status: ('A' for Active; 'I' for Inactive)
REMARK    1  A    between atoms: C_3  and  C_19
REMARK    2  A    between atoms: C_6  and  C_7
REMARK    3  A    between atoms: C_7  and  N_8
REMARK    4  A    between atoms: C_12  and  C_14
REMARK                            x       y       z     vdW  Elec       q    Type
REMARK                         _______ _______ _______ _____ _____    ______ ____
ROOT
ATOM      1  C   UNL     1       0.291   2.162  -0.035  0.00  0.00    +0.002 A 
ATOM      2  C   UNL     1      -0.731   3.087  -0.072  0.00  0.00    +0.012 A 
ATOM      3  C   UNL     1      -0.434   4.447  -0.184  0.00  0.00    +0.017 A 
ATOM      4  C   UNL     1       0.897   4.859  -0.270  0.00  0.00    +0.012 A 
ATOM      5  C   UNL     1       1.910   3.923  -0.237  0.00  0.00    +0.002 A 
ATOM      6  C   UNL     1       1.609   2.578  -0.120  0.00  0.00    -0.064 A 
ENDROOT
BRANCH   3   7
ATOM      7  C   UNL     1      -1.523   5.444  -0.218  0.00  0.00    +0.141 A 
ATOM      8  N   UNL     1      -2.818   5.026  -0.134  0.00  0.00    -0.307 N 
ATOM      9  C   UNL     1      -3.813   5.936  -0.152  0.00  0.00    +0.253 A 
ATOM     10  O   UNL     1      -4.978   5.583  -0.070  0.00  0.00    -0.268 OA
ATOM     11  C   UNL     1      -3.486   7.304  -0.281  0.00  0.00    +0.021 A 
ATOM     12  C   UNL     1      -2.178   7.661  -0.368  0.00  0.00    +0.048 A 
ATOM     13  N   UNL     1      -1.228   6.721  -0.329  0.00  0.00    -0.234 NA
ATOM     14  C   UNL     1      -1.756   9.103  -0.491  0.00  0.00    +0.037 C 
ATOM     15  C   UNL     1      -2.945   9.959  -0.926  0.00  0.00    -0.076 C 
ATOM     16  N   UNL     1      -4.086   9.659  -0.045  0.00  0.00    +0.382 N 
ATOM     17  C   UNL     1      -4.600   8.314  -0.324  0.00  0.00    -0.039 C 
ATOM     18  H   UNL     1      -3.762   9.711   1.004  0.00  0.00    -0.085 HD
ATOM     19  H   UNL     1      -4.886  10.394  -0.219  0.00  0.00    -0.085 HD
ATOM     20  H   UNL     1      -3.045   3.953  -0.051  0.00  0.00    +0.170 HD
ENDBRANCH   3   7
BRANCH   6  21
ATOM     21  C   UNL     1       2.720   1.560  -0.086  0.00  0.00    -0.042 C 
BRANCH  21  22
ATOM     22  N   UNL     1       3.026   1.123  -1.454  0.00  0.00    +0.388 N 
ATOM     23  C   UNL     1       1.976   0.218  -1.969  0.00  0.00    -0.077 C 
ATOM     24  C   UNL     1       2.728  -0.781  -2.883  0.00  0.00    -0.020 C 
ATOM     25  C   UNL     1       4.055  -0.980  -2.105  0.00  0.00    -0.010 C 
ATOM     26  C   UNL     1       4.320   0.418  -1.507  0.00  0.00    -0.011 C 
ATOM     27  H   UNL     1       3.074   2.030  -2.075  0.00  0.00    -0.080 HD
BRANCH  26  28
ATOM     28  C   UNL     1       4.886   0.282  -0.117  0.00  0.00    +0.065 A 
ATOM     29  N   UNL     1       5.987   0.797   0.380  0.00  0.00    -0.254 NA
ATOM     30  C   UNL     1       6.345   0.580   1.628  0.00  0.00    +0.118 A 
ATOM     31  C   UNL     1       5.545  -0.196   2.403  0.00  0.00    +0.066 A 
ATOM     32  S   UNL     1       4.246  -0.591   1.241  0.00  0.00    -0.082 S 
ENDBRANCH  26  28
ENDBRANCH  21  22
ENDBRANCH   6  21
TORSDOF 4
