REMARK  Name = ZINC40826809
REMARK  9 active torsions:
REMARK  status: ('A' for Active; 'I' for Inactive)
REMARK    1  A    between atoms: C_1  and  C_2
REMARK    2  A    between atoms: C_6  and  C_12
REMARK    3  A    between atoms: C_10  and  C_11
REMARK    4  A    between atoms: C_12  and  C_13
REMARK    5  A    between atoms: N_15  and  N_16
REMARK    6  A    between atoms: C_23  and  C_36
REMARK    7  A    between atoms: C_24  and  C_26
REMARK    8  A    between atoms: C_26  and  O_28
REMARK    9  A    between atoms: O_28  and  C_29
REMARK                            x       y       z     vdW  Elec       q    Type
REMARK                         _______ _______ _______ _____ _____    ______ ____
ROOT
ATOM      1  N   UNL     1       3.031  -6.865  -2.441  0.00  0.00    -0.184 NA
ATOM      2  C   UNL     1       3.288  -7.858  -3.236  0.00  0.00    +0.070 C 
ATOM      3  C   UNL     1       2.196  -8.755  -3.802  0.00  0.00    +0.058 C 
ATOM      4  C   UNL     1       2.685 -10.206  -3.736  0.00  0.00    +0.014 C 
ATOM      5  C   UNL     1       3.901 -10.407  -4.644  0.00  0.00    +0.075 C 
ATOM      6  C   UNL     1       4.950  -9.377  -4.312  0.00  0.00    +0.115 A 
ATOM      7  C   UNL     1       4.664  -8.198  -3.664  0.00  0.00    +0.042 A 
ATOM      8  C   UNL     1       5.863  -7.490  -3.526  0.00  0.00    +0.011 A 
ATOM      9  C   UNL     1       6.832  -8.264  -4.103  0.00  0.00    +0.215 A 
ATOM     10  O   UNL     1       6.257  -9.401  -4.564  0.00  0.00    -0.452 OA
ATOM     11  C   UNL     1       6.050  -6.144  -2.872  0.00  0.00    +0.048 C 
ENDROOT
BRANCH   1  14
ATOM     12  C   UNL     1       1.442  -5.559  -1.244  0.00  0.00    +0.237 C 
ATOM     13  O   UNL     1       2.347  -4.869  -0.823  0.00  0.00    -0.274 OA
ATOM     14  N   UNL     1       1.709  -6.590  -2.069  0.00  0.00    -0.206 N 
ATOM     15  H   UNL     1       0.986  -7.141  -2.406  0.00  0.00    +0.177 HD
BRANCH  12  16
ATOM     16  C   UNL     1       0.020  -5.262  -0.843  0.00  0.00    +0.136 C 
BRANCH  16  22
ATOM     17  C   UNL     1      -0.105   1.611  -0.407  0.00  0.00    +0.044 C 
ATOM     18  C   UNL     1      -0.078   0.105  -0.366  0.00  0.00    -0.044 A 
ATOM     19  C   UNL     1      -0.060  -0.613  -1.552  0.00  0.00    +0.004 A 
ATOM     20  C   UNL     1      -0.036  -1.980  -1.534  0.00  0.00    +0.012 A 
ATOM     21  C   UNL     1      -0.029  -2.655  -0.314  0.00  0.00    +0.024 A 
ATOM     22  C   UNL     1      -0.004  -4.069   0.077  0.00  0.00    +0.007 A 
ATOM     23  C   UNL     1      -0.008  -4.087   1.417  0.00  0.00    +0.200 A 
ATOM     24  O   UNL     1      -0.033  -2.831   1.897  0.00  0.00    -0.462 OA
ATOM     25  C   UNL     1      -0.046  -1.933   0.891  0.00  0.00    +0.138 A 
ATOM     26  C   UNL     1      -0.065  -0.544   0.850  0.00  0.00    -0.005 A 
ATOM     27  C   UNL     1      -0.078   0.250   2.131  0.00  0.00    +0.048 C 
ENDBRANCH  16  22
ENDBRANCH  12  16
ENDBRANCH   1  14
BRANCH   9  28
ATOM     28  C   UNL     1       8.255  -7.926  -4.195  0.00  0.00    +0.380 C 
ATOM     29  O   UNL     1       8.662  -6.876  -3.734  0.00  0.00    -0.241 OA
BRANCH  28  30
ATOM     30  O   UNL     1       9.114  -8.778  -4.792  0.00  0.00    -0.420 OA
BRANCH  30  31
ATOM     31  C   UNL     1      10.404  -8.380  -4.947  0.00  0.00    +0.132 A 
ATOM     32  C   UNL     1      11.273  -8.405  -3.865  0.00  0.00    +0.049 A 
ATOM     33  C   UNL     1      12.584  -8.001  -4.024  0.00  0.00    +0.042 A 
ATOM     34  C   UNL     1      13.031  -7.570  -5.261  0.00  0.00    +0.124 A 
ATOM     35  C   UNL     1      12.165  -7.544  -6.341  0.00  0.00    +0.042 A 
ATOM     36  C   UNL     1      10.855  -7.954  -6.187  0.00  0.00    +0.049 A 
ATOM     37  F   UNL     1      14.314  -7.174  -5.415  0.00  0.00    -0.205 F 
ENDBRANCH  30  31
ENDBRANCH  28  30
ENDBRANCH   9  28
TORSDOF 6
