REMARK  Name = ZINC39467703
REMARK  6 active torsions:
REMARK  status: ('A' for Active; 'I' for Inactive)
REMARK    1  A    between atoms: C_1  and  O_2
REMARK    2  A    between atoms: O_2  and  P_3
REMARK    3  A    between atoms: C_11  and  C_28
REMARK    4  A    between atoms: C_12  and  C_21
REMARK    5  A    between atoms: C_26  and  O_27
REMARK    6  A    between atoms: C_28  and  C_29
REMARK                            x       y       z     vdW  Elec       q    Type
REMARK                         _______ _______ _______ _____ _____    ______ ____
ROOT
ATOM      1  P   UNL     1       0.678  -0.865  -1.179  0.00  0.00    +0.393 P 
ATOM      2  O   UNL     1       2.029  -0.344  -1.484  0.00  0.00    -0.241 OA
ATOM      3  N   UNL     1      -0.271  -0.830  -2.528  0.00  0.00    -0.268 NA
ATOM      4  N   UNL     1      -1.384  -1.645  -2.553  0.00  0.00    +0.399 N 
ATOM      5  C   UNL     1      -1.966  -1.498  -3.897  0.00  0.00    -0.046 C 
ATOM      6  C   UNL     1      -3.224  -2.344  -4.042  0.00  0.00    +0.005 C 
ATOM      7  C   UNL     1      -4.263  -1.917  -3.040  0.00  0.00    -0.020 C 
ATOM      8  C   UNL     1      -5.225  -2.764  -2.690  0.00  0.00    -0.039 C 
ATOM      9  C   UNL     1      -5.266  -4.111  -3.301  0.00  0.00    -0.015 C 
ATOM     10  C   UNL     1      -4.149  -4.628  -3.840  0.00  0.00    -0.014 C 
ATOM     11  C   UNL     1      -2.877  -3.817  -3.805  0.00  0.00    +0.016 C 
ATOM     12  C   UNL     1      -2.234  -3.949  -2.423  0.00  0.00    -0.003 C 
ATOM     13  C   UNL     1      -1.005  -3.039  -2.312  0.00  0.00    -0.020 C 
ATOM     14  C   UNL     1      -0.431  -3.229  -0.902  0.00  0.00    +0.159 C 
ATOM     15  O   UNL     1       0.760  -2.435  -0.756  0.00  0.00    -0.299 OA
ATOM     16  H   UNL     1      -0.054  -0.256  -3.279  0.00  0.00    +0.113 HD
ATOM     17  H   UNL     1      -2.042  -1.344  -1.850  0.00  0.00    -0.055 HD
ENDROOT
BRANCH   9  18
ATOM     18  C   UNL     1      -6.530  -4.885  -3.318  0.00  0.00    +0.024 A 
ATOM     19  C   UNL     1      -6.999  -5.486  -2.152  0.00  0.00    +0.012 A 
ATOM     20  C   UNL     1      -8.177  -6.205  -2.173  0.00  0.00    +0.001 A 
ATOM     21  C   UNL     1      -8.895  -6.332  -3.349  0.00  0.00    +0.004 A 
ATOM     22  C   UNL     1      -8.439  -5.741  -4.512  0.00  0.00    +0.046 A 
ATOM     23  C   UNL     1      -7.261  -5.011  -4.504  0.00  0.00    +0.125 A 
BRANCH  23  24
ATOM     24  O   UNL     1      -6.815  -4.424  -5.645  0.00  0.00    -0.506 OA
ATOM     25  H   UNL     1      -6.235  -4.987  -6.176  0.00  0.00    +0.292 HD
ENDBRANCH  23  24
ENDBRANCH   9  18
BRANCH   1  27
ATOM     26  C   UNL     1      -0.017   1.425   0.010  0.00  0.00    +0.206 C 
ATOM     27  O   UNL     1       0.002  -0.004   0.002  0.00  0.00    -0.301 OA
ENDBRANCH   1  27
BRANCH   8  28
ATOM     28  C   UNL     1      -6.266  -2.357  -1.679  0.00  0.00    +0.070 C 
BRANCH  28  29
ATOM     29  C   UNL     1      -7.484  -1.834  -2.394  0.00  0.00    -0.043 A 
ATOM     30  C   UNL     1      -7.582  -0.490  -2.701  0.00  0.00    +0.004 A 
ATOM     31  C   UNL     1      -8.700  -0.010  -3.358  0.00  0.00    +0.000 A 
ATOM     32  C   UNL     1      -9.720  -0.875  -3.708  0.00  0.00    +0.000 A 
ATOM     33  C   UNL     1      -9.622  -2.220  -3.402  0.00  0.00    +0.000 A 
ATOM     34  C   UNL     1      -8.502  -2.700  -2.749  0.00  0.00    +0.004 A 
ENDBRANCH  28  29
ENDBRANCH   8  28
TORSDOF 5
