REMARK  Name = ZINC61328016
REMARK  4 active torsions:
REMARK  status: ('A' for Active; 'I' for Inactive)
REMARK    1  A    between atoms: C_3  and  N_11
REMARK    2  A    between atoms: C_4  and  N_8
REMARK    3  A    between atoms: C_6  and  O_7
REMARK    4  A    between atoms: N_11  and  C_12
REMARK                            x       y       z     vdW  Elec       q    Type
REMARK                         _______ _______ _______ _____ _____    ______ ____
ROOT
ATOM      1  C   UNL     1      -0.026   1.365   0.020  0.00  0.00    +0.047 A 
ATOM      2  C   UNL     1       1.149   2.089  -0.045  0.00  0.00    +0.029 A 
ATOM      3  C   UNL     1       2.370   1.428  -0.070  0.00  0.00    +0.058 A 
ATOM      4  C   UNL     1       2.409   0.041  -0.031  0.00  0.00    +0.150 A 
ATOM      5  C   UNL     1       1.233  -0.681   0.033  0.00  0.00    +0.080 A 
ATOM      6  C   UNL     1       0.013  -0.020   0.059  0.00  0.00    +0.119 A 
ENDROOT
BRANCH   4   7
ATOM      7  N   UNL     1       3.709  -0.665  -0.059  0.00  0.00    +0.058 N 
ATOM      8  O   UNL     1       3.823  -1.699  -0.674  0.00  0.00    -0.126 OA
ATOM      9  O   UNL     1       4.658  -0.207   0.535  0.00  0.00    -0.126 OA
ENDBRANCH   4   7
BRANCH   6  10
ATOM     10  O   UNL     1      -1.144  -0.732   0.122  0.00  0.00    -0.507 OA
ATOM     11  H   UNL     1      -1.511  -0.963  -0.742  0.00  0.00    +0.292 HD
ENDBRANCH   6  10
BRANCH   3  12
ATOM     12  N   UNL     1       3.561   2.160  -0.136  0.00  0.00    -0.335 N 
ATOM     13  H   UNL     1       4.415   1.704  -0.073  0.00  0.00    +0.147 HD
BRANCH  12  14
ATOM     14  C   UNL     1       3.518   3.615  -0.299  0.00  0.00    +0.101 C 
ATOM     15  C   UNL     1       4.803   4.231   0.256  0.00  0.00    +0.027 C 
ATOM     16  C   UNL     1       4.852   5.726  -0.072  0.00  0.00    +0.007 C 
ATOM     17  C   UNL     1       5.079   5.892  -1.583  0.00  0.00    +0.043 C 
ATOM     18  C   UNL     1       4.131   4.989  -2.302  0.00  0.00    -0.005 A 
ATOM     19  C   UNL     1       3.404   3.961  -1.781  0.00  0.00    -0.017 A 
ATOM     20  C   UNL     1       2.579   3.266  -2.665  0.00  0.00    +0.013 A 
ATOM     21  C   UNL     1       2.528   3.625  -3.968  0.00  0.00    +0.046 A 
ATOM     22  S   UNL     1       3.679   4.997  -4.016  0.00  0.00    -0.101 S 
ENDBRANCH  12  14
ENDBRANCH   3  12
TORSDOF 4
