REMARK  Name = ZINC20686347
REMARK  11 active torsions:
REMARK  status: ('A' for Active; 'I' for Inactive)
REMARK    1  A    between atoms: C_1  and  C_2
REMARK    2  A    between atoms: C_5  and  C_42
REMARK    3  A    between atoms: C_6  and  C_8
REMARK    4  A    between atoms: C_8  and  N_9
REMARK    5  A    between atoms: C_19  and  C_31
REMARK    6  A    between atoms: C_21  and  C_26
REMARK    7  A    between atoms: N_24  and  C_25
REMARK    8  A    between atoms: C_31  and  C_33
REMARK    9  A    between atoms: C_36  and  C_39
REMARK   10  A    between atoms: C_39  and  C_40
REMARK   11  A    between atoms: C_39  and  C_41
REMARK                            x       y       z     vdW  Elec       q    Type
REMARK                         _______ _______ _______ _____ _____    ______ ____
ROOT
ATOM      1  N   UNL     1       2.184  -0.321  -2.331  0.00  0.00    -0.268 N 
ATOM      2  C   UNL     1       2.963   0.743  -2.790  0.00  0.00    +0.039 A 
ATOM      3  C   UNL     1       3.562   0.965  -4.028  0.00  0.00    +0.024 A 
ATOM      4  C   UNL     1       4.296   2.112  -4.248  0.00  0.00    +0.002 A 
ATOM      5  C   UNL     1       4.444   3.050  -3.242  0.00  0.00    +0.000 A 
ATOM      6  C   UNL     1       3.854   2.836  -2.009  0.00  0.00    +0.004 A 
ATOM      7  C   UNL     1       3.120   1.693  -1.786  0.00  0.00    -0.027 A 
ATOM      8  C   UNL     1       2.366   1.166  -0.595  0.00  0.00    +0.051 C 
ATOM      9  C   UNL     1       1.794  -0.151  -1.054  0.00  0.00    +0.215 C 
ATOM     10  O   UNL     1       1.113  -0.911  -0.398  0.00  0.00    -0.276 OA
ATOM     11  C   UNL     1       1.252   2.132  -0.177  0.00  0.00    +0.071 C 
ATOM     12  C   UNL     1       1.582   2.509   1.288  0.00  0.00    +0.049 C 
ATOM     13  C   UNL     1       3.098   2.204   1.391  0.00  0.00    -0.065 C 
ATOM     14  N   UNL     1       3.259   0.981   0.560  0.00  0.00    +0.391 N 
ATOM     15  C   UNL     1       4.654   0.820   0.127  0.00  0.00    -0.094 C 
ATOM     16  H   UNL     1       3.010   0.066   1.116  0.00  0.00    -0.080 HD
ENDROOT
BRANCH  12  17
ATOM     17  C   UNL     1       1.314   3.971   1.536  0.00  0.00    +0.107 A 
ATOM     18  C   UNL     1       0.448   4.470   2.436  0.00  0.00    +0.045 A 
ATOM     19  C   UNL     1       0.516   5.878   2.332  0.00  0.00    +0.041 A 
ATOM     20  C   UNL     1       1.419   6.155   1.374  0.00  0.00    +0.195 A 
ATOM     21  O   UNL     1       1.904   4.996   0.900  0.00  0.00    -0.468 OA
ENDBRANCH  12  17
BRANCH  11  22
ATOM     22  C   UNL     1      -0.090   1.450  -0.254  0.00  0.00    +0.166 C 
ATOM     23  O   UNL     1      -0.522   0.852   0.709  0.00  0.00    -0.292 OA
BRANCH  22  24
ATOM     24  C   UNL     1      -0.873   1.506  -1.498  0.00  0.00    +0.018 A 
ATOM     25  C   UNL     1      -0.381   2.199  -2.608  0.00  0.00    +0.011 A 
ATOM     26  C   UNL     1      -1.118   2.241  -3.773  0.00  0.00    +0.004 A 
ATOM     27  C   UNL     1      -2.348   1.610  -3.841  0.00  0.00    -0.045 A 
ATOM     28  C   UNL     1      -2.844   0.926  -2.745  0.00  0.00    +0.004 A 
ATOM     29  C   UNL     1      -2.116   0.869  -1.575  0.00  0.00    +0.011 A 
BRANCH  27  30
ATOM     30  C   UNL     1      -3.150   1.666  -5.116  0.00  0.00    +0.013 C 
ATOM     31  C   UNL     1      -3.462   3.124  -5.458  0.00  0.00    +0.012 C 
ATOM     32  C   UNL     1      -2.344   1.036  -6.254  0.00  0.00    +0.012 C 
ENDBRANCH  27  30
ENDBRANCH  22  24
ENDBRANCH  11  22
BRANCH   1  33
ATOM     33  C   UNL     1       1.832  -1.487  -3.144  0.00  0.00    +0.149 C 
BRANCH  33  39
ATOM     34  C   UNL     1       6.075  -3.104  -1.040  0.00  0.00    +0.044 C 
ATOM     35  C   UNL     1       4.942  -3.304  -2.013  0.00  0.00    -0.050 A 
ATOM     36  C   UNL     1       4.894  -4.445  -2.792  0.00  0.00    +0.003 A 
ATOM     37  C   UNL     1       3.855  -4.629  -3.685  0.00  0.00    +0.004 A 
ATOM     38  C   UNL     1       2.861  -3.674  -3.795  0.00  0.00    -0.046 A 
ATOM     39  C   UNL     1       2.912  -2.531  -3.020  0.00  0.00    -0.027 A 
ATOM     40  C   UNL     1       3.952  -2.347  -2.127  0.00  0.00    +0.008 A 
ATOM     41  C   UNL     1       1.724  -3.877  -4.764  0.00  0.00    +0.044 C 
ENDBRANCH  33  39
ENDBRANCH   1  33
TORSDOF 6
