REMARK  Name = ZINC02126846
REMARK  8 active torsions:
REMARK  status: ('A' for Active; 'I' for Inactive)
REMARK    1  A    between atoms: C_1  and  C_2
REMARK    2  A    between atoms: C_16  and  C_18
REMARK    3  A    between atoms: C_18  and  C_20
REMARK    4  A    between atoms: C_18  and  O_21
REMARK    5  A    between atoms: N_24  and  C_27
REMARK    6  A    between atoms: C_27  and  C_28
REMARK    7  A    between atoms: C_31  and  O_34
REMARK    8  A    between atoms: O_34  and  C_35
REMARK                            x       y       z     vdW  Elec       q    Type
REMARK                         _______ _______ _______ _____ _____    ______ ____
ROOT
ATOM      1  C   UNL     1      -0.375   8.342   3.176  0.00  0.00    +0.046 C 
ATOM      2  C   UNL     1       0.545   7.626   2.220  0.00  0.00    -0.028 A 
ATOM      3  C   UNL     1       1.437   8.348   1.454  0.00  0.00    +0.025 A 
ATOM      4  C   UNL     1       2.285   7.701   0.573  0.00  0.00    +0.042 A 
ATOM      5  C   UNL     1       2.238   6.321   0.461  0.00  0.00    +0.024 A 
ATOM      6  C   UNL     1       1.351   5.598   1.224  0.00  0.00    -0.026 A 
ATOM      7  C   UNL     1       0.492   6.239   2.113  0.00  0.00    +0.039 A 
ATOM      8  N   UNL     1      -0.310   5.303   2.770  0.00  0.00    -0.286 N 
ATOM      9  C   UNL     1      -0.044   4.042   2.378  0.00  0.00    +0.211 C 
ATOM     10  O   UNL     1      -0.582   3.031   2.777  0.00  0.00    -0.277 OA
ATOM     11  C   UNL     1       1.049   4.131   1.348  0.00  0.00    +0.050 C 
ATOM     12  C   UNL     1       0.607   3.532   0.008  0.00  0.00    +0.088 C 
ATOM     13  C   UNL     1       1.208   2.098   0.002  0.00  0.00    +0.075 C 
ATOM     14  C   UNL     1       1.935   1.969   1.357  0.00  0.00    -0.028 C 
ATOM     15  C   UNL     1      -0.014   1.208   0.009  0.00  0.00    +0.224 C 
ATOM     16  O   UNL     1       0.002  -0.004   0.002  0.00  0.00    -0.275 OA
ATOM     17  N   UNL     1      -1.117   1.966   0.018  0.00  0.00    -0.237 N 
ATOM     18  C   UNL     1      -0.885   3.284   0.026  0.00  0.00    +0.225 C 
ATOM     19  O   UNL     1      -1.738   4.145   0.040  0.00  0.00    -0.275 OA
ATOM     20 CL   UNL     1       3.404   8.615  -0.389  0.00  0.00    -0.084 Cl
ATOM     21  H   UNL     1      -0.980   5.534   3.433  0.00  0.00    +0.155 HD
ATOM     22  N   UNL     1       2.211   3.355   1.744  0.00  0.00    +0.396 N 
ATOM     23  H   UNL     1       2.351   3.418   2.759  0.00  0.00    -0.083 HD
ATOM     24  H   UNL     1       3.049   3.698   1.261  0.00  0.00    -0.083 HD
ENDROOT
BRANCH  14  25
ATOM     25  C   UNL     1       3.228   1.168   1.193  0.00  0.00    +0.098 C 
ATOM     26  C   UNL     1       3.932   1.052   2.547  0.00  0.00    +0.036 C 
BRANCH  25  27
ATOM     27  O   UNL     1       2.920  -0.139   0.703  0.00  0.00    -0.394 OA
ATOM     28  H   UNL     1       2.339  -0.650   1.284  0.00  0.00    +0.210 HD
ENDBRANCH  25  27
ENDBRANCH  14  25
BRANCH  17  29
ATOM     29  C   UNL     1      -2.468   1.400   0.021  0.00  0.00    +0.151 C 
BRANCH  29  30
ATOM     30  C   UNL     1      -2.924   1.200   1.444  0.00  0.00    -0.029 A 
ATOM     31  C   UNL     1      -2.675   0.001   2.086  0.00  0.00    +0.009 A 
ATOM     32  C   UNL     1      -3.088  -0.183   3.392  0.00  0.00    +0.046 A 
ATOM     33  C   UNL     1      -3.762   0.833   4.055  0.00  0.00    +0.120 A 
ATOM     34  C   UNL     1      -4.016   2.032   3.406  0.00  0.00    +0.046 A 
ATOM     35  C   UNL     1      -3.597   2.213   2.102  0.00  0.00    +0.009 A 
BRANCH  33  36
ATOM     36  O   UNL     1      -4.174   0.652   5.337  0.00  0.00    -0.495 OA
ATOM     37  C   UNL     1      -3.878  -0.608   5.942  0.00  0.00    +0.277 C 
ENDBRANCH  33  36
ENDBRANCH  29  30
ENDBRANCH  17  29
TORSDOF 5
