REMARK  Name = ZINC02239781
REMARK  7 active torsions:
REMARK  status: ('A' for Active; 'I' for Inactive)
REMARK    1  A    between atoms: C_1  and  C_2
REMARK    2  A    between atoms: C_12  and  C_14
REMARK    3  A    between atoms: N_16  and  C_17
REMARK    4  A    between atoms: C_20  and  S_23
REMARK    5  A    between atoms: S_23  and  N_26
REMARK    6  A    between atoms: N_26  and  C_27
REMARK    7  A    between atoms: N_26  and  C_28
REMARK                            x       y       z     vdW  Elec       q    Type
REMARK                         _______ _______ _______ _____ _____    ______ ____
ROOT
ATOM      1  C   UNL     1       7.458   3.792   4.185  0.00  0.00    +0.284 C 
ATOM      2  O   UNL     1       6.284   4.058   4.023  0.00  0.00    -0.266 OA
ATOM      3  N   UNL     1       8.030   2.801   3.473  0.00  0.00    -0.279 N 
ATOM      4  H   UNL     1       8.946   2.540   3.654  0.00  0.00    +0.155 HD
ENDROOT
BRANCH   1  16
ATOM      5  C   UNL     1      13.970   4.752   7.326  0.00  0.00    +0.045 C 
ATOM      6  C   UNL     1      12.525   5.163   7.202  0.00  0.00    -0.029 A 
ATOM      7  C   UNL     1      11.704   4.505   6.312  0.00  0.00    +0.051 A 
ATOM      8  C   UNL     1      10.369   4.878   6.191  0.00  0.00    +0.140 A 
ATOM      9  C   UNL     1       9.876   5.927   6.986  0.00  0.00    +0.065 A 
ATOM     10  C   UNL     1      10.717   6.585   7.883  0.00  0.00    +0.035 A 
ATOM     11  C   UNL     1      12.036   6.200   7.986  0.00  0.00    +0.045 A 
ATOM     12 CL   UNL     1      13.090   7.013   9.101  0.00  0.00    -0.083 Cl
ATOM     13  C   UNL     1       8.458   6.308   6.844  0.00  0.00    +0.193 A 
ATOM     14  O   UNL     1       7.969   7.209   7.504  0.00  0.00    -0.287 OA
ATOM     15  C   UNL     1       7.661   5.548   5.869  0.00  0.00    +0.103 A 
ATOM     16  C   UNL     1       8.262   4.557   5.167  0.00  0.00    +0.194 A 
ATOM     17  O   UNL     1       9.555   4.239   5.329  0.00  0.00    -0.450 OA
ENDBRANCH   1  16
BRANCH   3  18
ATOM     18  C   UNL     1       7.302   2.151   2.472  0.00  0.00    +0.034 A 
ATOM     19  C   UNL     1       7.612   0.842   2.124  0.00  0.00    +0.025 A 
ATOM     20  C   UNL     1       6.891   0.203   1.135  0.00  0.00    +0.030 A 
ATOM     21  C   UNL     1       5.862   0.864   0.491  0.00  0.00    +0.109 A 
ATOM     22  C   UNL     1       5.554   2.169   0.831  0.00  0.00    +0.030 A 
ATOM     23  C   UNL     1       6.267   2.812   1.822  0.00  0.00    +0.025 A 
BRANCH  21  24
ATOM     24  S   UNL     1       4.944   0.044  -0.770  0.00  0.00    +0.074 S 
ATOM     25  O   UNL     1       5.752  -1.032  -1.226  0.00  0.00    -0.150 OA
ATOM     26  O   UNL     1       4.460   1.055  -1.643  0.00  0.00    -0.150 OA
BRANCH  24  27
ATOM     27  N   UNL     1       3.617  -0.634  -0.048  0.00  0.00    -0.206 N 
ATOM     28  C   UNL     1       3.726  -1.940   0.607  0.00  0.00    +0.157 C 
BRANCH  27  29
ATOM     29  C   UNL     1       2.393   0.040  -0.063  0.00  0.00    +0.051 A 
ATOM     30  C   UNL     1       1.205  -0.673   0.027  0.00  0.00    +0.025 A 
ATOM     31  C   UNL     1      -0.003  -0.004   0.011  0.00  0.00    +0.002 A 
ATOM     32  C   UNL     1      -0.030   1.374  -0.095  0.00  0.00    +0.000 A 
ATOM     33  C   UNL     1       1.151   2.087  -0.184  0.00  0.00    +0.002 A 
ATOM     34  C   UNL     1       2.362   1.425  -0.169  0.00  0.00    +0.025 A 
ENDBRANCH  27  29
ENDBRANCH  24  27
ENDBRANCH  21  24
ENDBRANCH   3  18
TORSDOF 5
