REMARK  Name = ZINC03262228
REMARK  7 active torsions:
REMARK  status: ('A' for Active; 'I' for Inactive)
REMARK    1  A    between atoms: C_4  and  C_7
REMARK    2  A    between atoms: C_10  and  C_29
REMARK    3  A    between atoms: C_13  and  C_15
REMARK    4  A    between atoms: C_15  and  O_16
REMARK    5  A    between atoms: O_16  and  C_17
REMARK    6  A    between atoms: C_17  and  C_19
REMARK    7  A    between atoms: C_19  and  N_20
REMARK                            x       y       z     vdW  Elec       q    Type
REMARK                         _______ _______ _______ _____ _____    ______ ____
ROOT
ATOM      1  C   UNL     1      -4.035  -0.731   0.018  0.00  0.00    +0.152 C 
ATOM      2  C   UNL     1      -2.571  -0.350   0.012  0.00  0.00    +0.027 C 
ATOM      3  C   UNL     1      -2.507   0.980   0.019  0.00  0.00    +0.050 C 
ATOM      4  N   UNL     1      -3.772   1.550   0.035  0.00  0.00    -0.261 N 
ATOM      5  N   UNL     1      -4.756   0.552   0.029  0.00  0.00    -0.208 N 
ATOM      6  C   UNL     1      -6.092   0.731   0.038  0.00  0.00    +0.270 C 
ATOM      7  O   UNL     1      -6.832  -0.230   0.037  0.00  0.00    -0.270 OA
ATOM      8  H   UNL     1      -3.950   2.503   0.045  0.00  0.00    +0.170 HD
ENDROOT
BRANCH   3   9
ATOM      9  C   UNL     1      -1.244   1.753   0.018  0.00  0.00    -0.002 A 
ATOM     10  C   UNL     1      -0.013   1.076   0.008  0.00  0.00    +0.010 A 
ATOM     11  C   UNL     1       1.159   1.762   0.001  0.00  0.00    +0.009 A 
ATOM     12  C   UNL     1       1.151   3.168   0.008  0.00  0.00    -0.018 A 
ATOM     13  C   UNL     1       2.349   3.901  -0.000  0.00  0.00    +0.008 A 
ATOM     14  C   UNL     1       2.309   5.261   0.006  0.00  0.00    +0.001 A 
ATOM     15  C   UNL     1       1.094   5.944   0.021  0.00  0.00    +0.001 A 
ATOM     16  C   UNL     1      -0.088   5.269   0.029  0.00  0.00    +0.008 A 
ATOM     17  C   UNL     1      -0.086   3.862   0.023  0.00  0.00    -0.017 A 
ATOM     18  C   UNL     1      -1.286   3.135   0.030  0.00  0.00    +0.018 A 
ENDBRANCH   3   9
BRANCH   1  22
ATOM     19  C   UNL     1      -5.005  -2.962  -3.493  0.00  0.00    +0.000 A 
ATOM     20  C   UNL     1      -4.811  -3.615  -2.291  0.00  0.00    +0.000 A 
ATOM     21  C   UNL     1      -4.497  -2.893  -1.155  0.00  0.00    +0.006 A 
ATOM     22  C   UNL     1      -4.377  -1.518  -1.221  0.00  0.00    -0.021 A 
ATOM     23  C   UNL     1      -4.576  -0.864  -2.422  0.00  0.00    +0.006 A 
ATOM     24  C   UNL     1      -4.886  -1.586  -3.559  0.00  0.00    +0.000 A 
ENDBRANCH   1  22
BRANCH   6  25
ATOM     25  C   UNL     1      -6.666   2.124   0.049  0.00  0.00    +0.329 C 
BRANCH  25  26
ATOM     26  O   UNL     1      -8.116   2.050   0.057  0.00  0.00    -0.454 OA
BRANCH  26  27
ATOM     27  C   UNL     1      -8.785   3.214   0.067  0.00  0.00    +0.329 C 
ATOM     28  O   UNL     1      -8.180   4.259   0.069  0.00  0.00    -0.249 OA
BRANCH  27  29
ATOM     29  C   UNL     1     -10.292   3.216   0.076  0.00  0.00    +0.266 C 
BRANCH  29  30
ATOM     30  N   UNL     1     -10.778   4.598   0.086  0.00  0.00    -0.233 N 
ATOM     31  C   UNL     1     -11.058   5.380  -1.010  0.00  0.00    +0.090 A 
ATOM     32  C   UNL     1     -10.993   5.176  -2.384  0.00  0.00    +0.029 A 
ATOM     33  C   UNL     1     -11.350   6.183  -3.238  0.00  0.00    +0.002 A 
ATOM     34  C   UNL     1     -11.779   7.408  -2.745  0.00  0.00    +0.002 A 
ATOM     35  C   UNL     1     -11.852   7.633  -1.401  0.00  0.00    +0.032 A 
ATOM     36  C   UNL     1     -11.492   6.618  -0.505  0.00  0.00    +0.113 A 
ATOM     37  N   UNL     1     -11.460   6.545   0.841  0.00  0.00    -0.129 NA
ATOM     38  N   UNL     1     -11.056   5.382   1.216  0.00  0.00    -0.064 NA
ENDBRANCH  29  30
ENDBRANCH  27  29
ENDBRANCH  26  27
ENDBRANCH  25  26
ENDBRANCH   6  25
TORSDOF 7
