REMARK  Name = ZINC41107501
REMARK  4 active torsions:
REMARK  status: ('A' for Active; 'I' for Inactive)
REMARK    1  A    between atoms: C_1  and  C_2
REMARK    2  A    between atoms: C_3  and  C_15
REMARK    3  A    between atoms: C_4  and  C_10
REMARK    4  A    between atoms: N_17  and  C_18
REMARK                            x       y       z     vdW  Elec       q    Type
REMARK                         _______ _______ _______ _____ _____    ______ ____
ROOT
ATOM      1  C   UNL     1       0.274   0.993  -1.449  0.00  0.00    +0.061 C 
ATOM      2  C   UNL     1       0.167  -0.399  -0.882  0.00  0.00    +0.019 C 
ATOM      3  C   UNL     1      -1.048  -0.900  -0.575  0.00  0.00    +0.056 C 
ATOM      4  C   UNL     1      -1.110  -2.303  -0.008  0.00  0.00    +0.142 C 
ATOM      5  N   UNL     1       0.170  -3.012   0.162  0.00  0.00    -0.288 N 
ATOM      6  C   UNL     1       1.306  -2.378  -0.192  0.00  0.00    +0.304 C 
ATOM      7  O   UNL     1       2.368  -2.954  -0.055  0.00  0.00    -0.252 OA
ATOM      8  N   UNL     1       1.302  -1.137  -0.694  0.00  0.00    -0.273 N 
ATOM      9  H   UNL     1       0.195  -3.913   0.521  0.00  0.00    +0.151 HD
ATOM     10  H   UNL     1       2.153  -0.737  -0.933  0.00  0.00    +0.156 HD
ENDROOT
BRANCH   4  11
ATOM     11  C   UNL     1      -1.982  -3.133  -0.915  0.00  0.00    -0.016 A 
ATOM     12  C   UNL     1      -3.242  -3.529  -0.507  0.00  0.00    +0.013 A 
ATOM     13  C   UNL     1      -4.001  -4.274  -1.347  0.00  0.00    +0.045 A 
ATOM     14  S   UNL     1      -2.929  -4.438  -2.766  0.00  0.00    -0.105 S 
ATOM     15  C   UNL     1      -1.544  -3.497  -2.145  0.00  0.00    +0.051 A 
ENDBRANCH   4  11
BRANCH   3  16
ATOM     16  C   UNL     1      -2.225  -0.138  -0.775  0.00  0.00    +0.248 C 
ATOM     17  O   UNL     1      -2.164   0.942  -1.333  0.00  0.00    -0.270 OA
ATOM     18  N   UNL     1      -3.413  -0.609  -0.347  0.00  0.00    -0.282 N 
ATOM     19  H   UNL     1      -3.456  -1.448   0.139  0.00  0.00    +0.155 HD
BRANCH  18  20
ATOM     20  C   UNL     1      -4.585   0.113  -0.602  0.00  0.00    +0.034 A 
ATOM     21  C   UNL     1      -4.541   1.497  -0.704  0.00  0.00    +0.026 A 
ATOM     22  C   UNL     1      -5.699   2.207  -0.957  0.00  0.00    +0.040 A 
ATOM     23  C   UNL     1      -6.903   1.539  -1.107  0.00  0.00    +0.124 A 
ATOM     24  C   UNL     1      -6.949   0.159  -1.005  0.00  0.00    +0.040 A 
ATOM     25  C   UNL     1      -5.793  -0.555  -0.759  0.00  0.00    +0.026 A 
ATOM     26  F   UNL     1      -8.034   2.235  -1.354  0.00  0.00    -0.205 F 
ENDBRANCH  18  20
ENDBRANCH   3  16
TORSDOF 3
