REMARK  Name = ZINC40111162
REMARK  8 active torsions:
REMARK  status: ('A' for Active; 'I' for Inactive)
REMARK    1  A    between atoms: C_10  and  C_11
REMARK    2  A    between atoms: C_13  and  C_22
REMARK    3  A    between atoms: N_17  and  C_18
REMARK    4  A    between atoms: C_18  and  C_19
REMARK    5  A    between atoms: C_19  and  O_20
REMARK    6  A    between atoms: C_22  and  C_24
REMARK    7  A    between atoms: C_27  and  S_30
REMARK    8  A    between atoms: S_30  and  N_33
REMARK                            x       y       z     vdW  Elec       q    Type
REMARK                         _______ _______ _______ _____ _____    ______ ____
ROOT
ATOM      1  C   UNL     1       4.918   0.095   0.008  0.00  0.00    +0.145 C 
ATOM      2  C   UNL     1       5.304   0.581   1.385  0.00  0.00    +0.076 C 
ATOM      3  C   UNL     1       6.522   0.056   1.658  0.00  0.00    +0.249 C 
ATOM      4  C   UNL     1       6.965  -0.764   0.510  0.00  0.00    +0.288 C 
ATOM      5  O   UNL     1       8.018  -1.367   0.449  0.00  0.00    -0.266 OA
ATOM      6  N   UNL     1       6.029  -0.743  -0.458  0.00  0.00    -0.281 N 
ATOM      7  O   UNL     1       7.222   0.252   2.798  0.00  0.00    -0.282 OA
ENDROOT
BRANCH   1  17
ATOM      8  C   UNL     1      -0.090   1.100  -0.314  0.00  0.00    +0.001 A 
ATOM      9  C   UNL     1       1.070   1.868  -0.383  0.00  0.00    +0.001 A 
ATOM     10  C   UNL     1       2.298   1.296  -0.258  0.00  0.00    +0.009 A 
ATOM     11  C   UNL     1       2.401  -0.091  -0.054  0.00  0.00    -0.013 A 
ATOM     12  C   UNL     1       1.221  -0.873   0.017  0.00  0.00    -0.018 A 
ATOM     13  C   UNL     1      -0.030  -0.245  -0.118  0.00  0.00    +0.008 A 
ATOM     14  C   UNL     1       1.324  -2.259   0.221  0.00  0.00    +0.008 A 
ATOM     15  C   UNL     1       2.552  -2.832   0.347  0.00  0.00    +0.001 A 
ATOM     16  C   UNL     1       3.712  -2.064   0.278  0.00  0.00    +0.006 A 
ATOM     17  C   UNL     1       3.651  -0.718   0.081  0.00  0.00    -0.015 A 
ENDBRANCH   1  17
BRANCH   2  18
ATOM     18  C   UNL     1       4.512   1.452   2.259  0.00  0.00    +0.195 C 
ATOM     19  O   UNL     1       3.561   1.000   2.869  0.00  0.00    -0.287 OA
BRANCH  18  20
ATOM     20  C   UNL     1       4.869   2.880   2.398  0.00  0.00    +0.022 A 
ATOM     21  C   UNL     1       5.883   3.429   1.612  0.00  0.00    +0.013 A 
ATOM     22  C   UNL     1       6.211   4.763   1.747  0.00  0.00    +0.029 A 
ATOM     23  C   UNL     1       5.537   5.555   2.660  0.00  0.00    +0.106 A 
ATOM     24  C   UNL     1       4.531   5.016   3.443  0.00  0.00    +0.029 A 
ATOM     25  C   UNL     1       4.189   3.686   3.314  0.00  0.00    +0.013 A 
BRANCH  23  26
ATOM     26  S   UNL     1       5.963   7.256   2.827  0.00  0.00    +0.061 S 
ATOM     27  O   UNL     1       5.458   7.680   4.086  0.00  0.00    -0.153 OA
ATOM     28  O   UNL     1       7.337   7.367   2.481  0.00  0.00    -0.153 OA
BRANCH  26  29
ATOM     29  N   UNL     1       5.116   8.088   1.673  0.00  0.00    -0.177 NA
ATOM     30  C   UNL     1       5.638   8.212   0.305  0.00  0.00    +0.109 C 
ATOM     31  C   UNL     1       4.565   7.731  -0.678  0.00  0.00    +0.017 C 
ATOM     32  C   UNL     1       3.267   8.503  -0.428  0.00  0.00    +0.003 C 
ATOM     33  C   UNL     1       2.776   8.231   0.996  0.00  0.00    +0.017 C 
ATOM     34  C   UNL     1       3.825   8.712   1.995  0.00  0.00    +0.109 C 
ENDBRANCH  26  29
ENDBRANCH  23  26
ENDBRANCH  18  20
ENDBRANCH   2  18
BRANCH   6  35
ATOM     35  C   UNL     1       6.106  -1.434  -1.748  0.00  0.00    +0.137 C 
BRANCH  35  36
ATOM     36  C   UNL     1       6.761  -0.516  -2.781  0.00  0.00    +0.175 C 
BRANCH  36  37
ATOM     37  O   UNL     1       8.117  -0.267  -2.404  0.00  0.00    -0.393 OA
ATOM     38  H   UNL     1       8.596   0.310  -3.016  0.00  0.00    +0.209 HD
ENDBRANCH  36  37
ENDBRANCH  35  36
ENDBRANCH   6  35
TORSDOF 8
