REMARK  Name = ZINC38769173
REMARK  7 active torsions:
REMARK  status: ('A' for Active; 'I' for Inactive)
REMARK    1  A    between atoms: C_1  and  C_2
REMARK    2  A    between atoms: C_2  and  C_3
REMARK    3  A    between atoms: C_2  and  C_4
REMARK    4  A    between atoms: C_6  and  C_10
REMARK    5  A    between atoms: C_10  and  S_11
REMARK    6  A    between atoms: S_11  and  C_12
REMARK    7  A    between atoms: C_16  and  C_18
REMARK                            x       y       z     vdW  Elec       q    Type
REMARK                         _______ _______ _______ _____ _____    ______ ____
ROOT
ATOM      1  C   UNL     1      -4.414  -0.959  -4.167  0.00  0.00    +0.185 A 
ATOM      2  N   UNL     1      -4.463  -0.172  -5.264  0.00  0.00    -0.253 N 
ATOM      3  H   UNL     1      -4.047   0.698  -5.373  0.00  0.00    +0.191 HD
ATOM      4  N   UNL     1      -5.234  -0.860  -6.215  0.00  0.00    -0.152 NA
ATOM      5  C   UNL     1      -5.600  -1.994  -5.662  0.00  0.00    +0.183 A 
ATOM      6  N   UNL     1      -5.096  -2.054  -4.420  0.00  0.00    -0.201 NA
ENDROOT
BRANCH   5   7
ATOM      7  C   UNL     1      -6.431  -3.040  -6.308  0.00  0.00    +0.035 A 
ATOM      8  C   UNL     1      -6.758  -4.202  -5.611  0.00  0.00    +0.013 A 
ATOM      9  C   UNL     1      -7.532  -5.172  -6.217  0.00  0.00    +0.001 A 
ATOM     10  C   UNL     1      -7.981  -4.993  -7.513  0.00  0.00    +0.001 A 
ATOM     11  C   UNL     1      -7.659  -3.842  -8.209  0.00  0.00    +0.016 A 
ATOM     12  C   UNL     1      -6.891  -2.862  -7.612  0.00  0.00    +0.029 A 
ATOM     13 BR   UNL     1      -6.457  -1.286  -8.563  0.00  0.00    -0.050 Br
ENDBRANCH   5   7
BRANCH   1  14
ATOM     14  S   UNL     1      -3.575  -0.587  -2.662  0.00  0.00    -0.082 S 
BRANCH  14  15
ATOM     15  C   UNL     1      -3.888  -2.036  -1.616  0.00  0.00    +0.134 C 
BRANCH  15  18
ATOM     16  C   UNL     1      -1.412  -0.526   0.013  0.00  0.00    +0.105 C 
ATOM     17  N   UNL     1      -1.758  -1.682  -0.436  0.00  0.00    -0.346 N 
ATOM     18  C   UNL     1      -3.207  -1.842  -0.260  0.00  0.00    +0.253 C 
ATOM     19  O   UNL     1      -3.650  -0.620   0.352  0.00  0.00    -0.247 OA
ATOM     20  N   UNL     1      -2.479   0.167   0.504  0.00  0.00    -0.252 N 
ATOM     21  H   UNL     1      -2.444   1.055   0.893  0.00  0.00    +0.195 HD
ATOM     22  H   UNL     1      -1.161  -2.338  -0.827  0.00  0.00    +0.163 HD
BRANCH  16  24
ATOM     23  C   UNL     1      -0.019   1.526   0.010  0.00  0.00    +0.015 C 
ATOM     24  C   UNL     1       0.002  -0.004   0.002  0.00  0.00    +0.048 C 
ATOM     25  C   UNL     1       0.742  -0.511   1.242  0.00  0.00    +0.015 C 
ENDBRANCH  16  24
ENDBRANCH  15  18
ENDBRANCH  14  15
ENDBRANCH   1  14
TORSDOF 5
