REMARK  Name = ZINC51117001
REMARK  5 active torsions:
REMARK  status: ('A' for Active; 'I' for Inactive)
REMARK    1  A    between atoms: C_1  and  C_2
REMARK    2  A    between atoms: C_7  and  C_9
REMARK    3  A    between atoms: C_7  and  C_10
REMARK    4  A    between atoms: C_11  and  C_13
REMARK    5  A    between atoms: N_19  and  N_20
REMARK                            x       y       z     vdW  Elec       q    Type
REMARK                         _______ _______ _______ _____ _____    ______ ____
ROOT
ATOM      1  C   UNL     1      -0.672   1.196   0.352  0.00  0.00    +0.039 C 
ATOM      2  C   UNL     1      -0.391  -0.303   0.223  0.00  0.00    +0.133 C 
ATOM      3  C   UNL     1       0.360  -0.572  -1.086  0.00  0.00    +0.139 C 
ATOM      4  N   UNL     1       0.782  -1.982  -1.098  0.00  0.00    -0.291 N 
ATOM      5  C   UNL     1       1.495  -2.500   0.081  0.00  0.00    +0.142 C 
ATOM      6  C   UNL     1       0.689  -2.137   1.333  0.00  0.00    +0.080 C 
ATOM      7  O   UNL     1       0.411  -0.735   1.325  0.00  0.00    -0.368 OA
ATOM      8  C   UNL     1      -0.628  -2.917   1.337  0.00  0.00    +0.043 C 
ATOM      9  C   UNL     1       1.497  -2.491   2.582  0.00  0.00    +0.043 C 
ATOM     10  C   UNL     1       0.523  -2.775  -2.156  0.00  0.00    +0.267 C 
ATOM     11  O   UNL     1       0.856  -3.943  -2.136  0.00  0.00    -0.268 OA
ENDROOT
BRANCH  10  12
ATOM     12  C   UNL     1      -0.167  -2.223  -3.342  0.00  0.00    +0.148 A 
ATOM     13  C   UNL     1      -0.652  -3.083  -4.336  0.00  0.00    +0.038 A 
ATOM     14  C   UNL     1      -1.290  -2.520  -5.426  0.00  0.00    +0.049 A 
ATOM     15  C   UNL     1      -1.413  -1.130  -5.469  0.00  0.00    +0.155 A 
ATOM     16  N   UNL     1      -0.923  -0.391  -4.479  0.00  0.00    -0.132 NA
ATOM     17  N   UNL     1      -0.334  -0.912  -3.465  0.00  0.00    -0.143 NA
ATOM     18  N   UNL     1      -2.045  -0.522  -6.541  0.00  0.00    -0.266 N 
ATOM     19  H   UNL     1      -2.402  -1.063  -7.263  0.00  0.00    +0.167 HD
BRANCH  18  20
ATOM     20  N   UNL     1      -2.165   0.838  -6.582  0.00  0.00    -0.255 NA
ATOM     21  H   UNL     1      -1.262   1.282  -6.507  0.00  0.00    +0.140 HD
ATOM     22  H   UNL     1      -2.645   1.133  -7.418  0.00  0.00    +0.140 HD
ENDBRANCH  18  20
ENDBRANCH  10  12
TORSDOF 2
