REMARK  Name = ZINC04125629
REMARK  8 active torsions:
REMARK  status: ('A' for Active; 'I' for Inactive)
REMARK    1  A    between atoms: C_1  and  C_2
REMARK    2  A    between atoms: C_5  and  C_32
REMARK    3  A    between atoms: C_6  and  N_8
REMARK    4  A    between atoms: C_9  and  C_11
REMARK    5  A    between atoms: C_11  and  S_12
REMARK    6  A    between atoms: S_12  and  C_13
REMARK    7  A    between atoms: C_14  and  C_30
REMARK    8  A    between atoms: C_15  and  C_25
REMARK                            x       y       z     vdW  Elec       q    Type
REMARK                         _______ _______ _______ _____ _____    ______ ____
ROOT
ATOM      1  C   UNL     1       1.368   5.711   0.004  0.00  0.00    +0.111 C 
ATOM      2  C   UNL     1       0.108   5.162   0.003  0.00  0.00    +0.072 C 
ATOM      3  C   UNL     1      -0.104   3.678  -0.025  0.00  0.00    +0.114 C 
ATOM      4  C   UNL     1       1.212   2.942  -0.053  0.00  0.00    +0.115 C 
ATOM      5  C   UNL     1       1.183   1.591  -0.065  0.00  0.00    +0.143 C 
ATOM      6  C   UNL     1       2.440   0.769  -0.088  0.00  0.00    +0.075 C 
ATOM      7  C   UNL     1       3.562   1.537   0.618  0.00  0.00    +0.013 C 
ATOM      8  C   UNL     1       3.740   2.888  -0.080  0.00  0.00    +0.052 C 
ATOM      9  C   UNL     1       2.429   3.640  -0.049  0.00  0.00    +0.031 C 
ATOM     10  N   UNL     1       2.468   4.952  -0.023  0.00  0.00    -0.248 NA
ATOM     11  O   UNL     1      -0.010   0.963  -0.062  0.00  0.00    -0.297 OA
ENDROOT
BRANCH   3  12
ATOM     12  C   UNL     1      -0.880   3.266   1.200  0.00  0.00    +0.114 A 
ATOM     13  C   UNL     1      -2.081   2.660   1.203  0.00  0.00    +0.045 A 
ATOM     14  C   UNL     1      -2.433   2.457   2.557  0.00  0.00    +0.041 A 
ATOM     15  C   UNL     1      -1.431   2.958   3.300  0.00  0.00    +0.195 A 
ATOM     16  O   UNL     1      -0.492   3.447   2.473  0.00  0.00    -0.467 OA
ENDBRANCH   3  12
BRANCH   2  17
ATOM     17  C   UNL     1      -1.032   6.029   0.030  0.00  0.00    +0.098 C 
ATOM     18  N   UNL     1      -1.936   6.717   0.051  0.00  0.00    -0.191 NA
ENDBRANCH   2  17
BRANCH   1  19
ATOM     19  S   UNL     1       1.539   7.465   0.040  0.00  0.00    -0.096 S 
BRANCH  19  20
ATOM     20  C   UNL     1       3.343   7.605   0.026  0.00  0.00    +0.172 C 
BRANCH  20  22
ATOM     21  N   UNL     1       5.036   9.409   0.049  0.00  0.00    -0.285 N 
ATOM     22  C   UNL     1       3.734   9.060   0.053  0.00  0.00    +0.227 C 
ATOM     23  O   UNL     1       2.877   9.918   0.080  0.00  0.00    -0.275 OA
ATOM     24  H   UNL     1       5.721   8.725   0.108  0.00  0.00    +0.155 HD
BRANCH  21  30
ATOM     25  C   UNL     1       3.951  13.999  -1.339  0.00  0.00    +0.044 C 
ATOM     26  C   UNL     1       4.892  13.004  -0.710  0.00  0.00    -0.049 A 
ATOM     27  C   UNL     1       6.116  13.424  -0.222  0.00  0.00    +0.004 A 
ATOM     28  C   UNL     1       6.982  12.514   0.356  0.00  0.00    +0.005 A 
ATOM     29  C   UNL     1       6.627  11.182   0.447  0.00  0.00    -0.029 A 
ATOM     30  C   UNL     1       5.399  10.757  -0.042  0.00  0.00    +0.037 A 
ATOM     31  C   UNL     1       4.534  11.673  -0.628  0.00  0.00    +0.027 A 
ATOM     32  C   UNL     1       7.571  10.191   1.078  0.00  0.00    +0.045 C 
ENDBRANCH  21  30
ENDBRANCH  20  22
ENDBRANCH  19  20
ENDBRANCH   1  19
TORSDOF 6
