REMARK  Name = ZINC37125253
REMARK  5 active torsions:
REMARK  status: ('A' for Active; 'I' for Inactive)
REMARK    1  A    between atoms: C_1  and  C_2
REMARK    2  A    between atoms: C_7  and  N_10
REMARK    3  A    between atoms: N_10  and  C_11
REMARK    4  A    between atoms: C_15  and  C_17
REMARK    5  A    between atoms: N_21  and  C_22
REMARK                            x       y       z     vdW  Elec       q    Type
REMARK                         _______ _______ _______ _____ _____    ______ ____
ROOT
ATOM      1  C   UNL     1       1.662  -4.424   2.405  0.00  0.00    +0.028 A 
ATOM      2  C   UNL     1       0.792  -5.328   1.807  0.00  0.00    +0.023 A 
ATOM      3  C   UNL     1       0.451  -6.499   2.457  0.00  0.00    +0.002 A 
ATOM      4  C   UNL     1       0.973  -6.779   3.704  0.00  0.00    +0.012 A 
ATOM      5  C   UNL     1       1.847  -5.878   4.313  0.00  0.00    +0.021 A 
ATOM      6  C   UNL     1       2.195  -4.699   3.655  0.00  0.00    +0.034 A 
ENDROOT
BRANCH   5   7
ATOM      7  C   UNL     1       2.407  -6.175   5.649  0.00  0.00    +0.164 A 
ATOM      8  N   UNL     1       3.493  -5.655   6.176  0.00  0.00    -0.129 NA
ATOM      9  N   UNL     1       3.681  -6.140   7.351  0.00  0.00    -0.138 NA
ATOM     10  C   UNL     1       2.734  -6.992   7.641  0.00  0.00    +0.225 A 
ATOM     11  N   UNL     1       1.889  -7.040   6.575  0.00  0.00    -0.317 N 
ATOM     12  C   UNL     1       0.677  -7.853   6.444  0.00  0.00    +0.152 C 
ENDBRANCH   5   7
BRANCH   1  13
ATOM     13  N   UNL     1       2.003  -3.241   1.745  0.00  0.00    -0.341 N 
ATOM     14  H   UNL     1       2.614  -2.612   2.160  0.00  0.00    +0.146 HD
BRANCH  13  20
ATOM     15  C   UNL     1       0.836   0.377  -1.416  0.00  0.00    +0.007 C 
ATOM     16  C   UNL     1       0.844  -1.135  -1.186  0.00  0.00    -0.012 C 
ATOM     17  C   UNL     1       1.695  -1.811  -2.263  0.00  0.00    +0.003 C 
ATOM     18  C   UNL     1       1.703  -3.323  -2.033  0.00  0.00    +0.002 C 
ATOM     19  C   UNL     1       2.292  -3.626  -0.653  0.00  0.00    +0.022 C 
ATOM     20  C   UNL     1       1.440  -2.951   0.424  0.00  0.00    +0.071 C 
ATOM     21  C   UNL     1       1.432  -1.438   0.194  0.00  0.00    +0.025 C 
ENDBRANCH  13  20
ENDBRANCH   1  13
TORSDOF 3
