REMARK  Name = ZINC02173867
REMARK  13 active torsions:
REMARK  status: ('A' for Active; 'I' for Inactive)
REMARK    1  A    between atoms: C_1  and  C_2
REMARK    2  A    between atoms: C_2  and  O_3
REMARK    3  A    between atoms: O_3  and  C_4
REMARK    4  A    between atoms: C_7  and  C_12
REMARK    5  A    between atoms: C_9  and  O_10
REMARK    6  A    between atoms: O_10  and  C_11
REMARK    7  A    between atoms: C_19  and  C_36
REMARK    8  A    between atoms: C_20  and  C_30
REMARK    9  A    between atoms: C_21  and  C_23
REMARK   10  A    between atoms: C_30  and  O_32
REMARK   11  A    between atoms: O_32  and  C_33
REMARK   12  A    between atoms: C_33  and  C_34
REMARK   13  A    between atoms: C_33  and  C_35
REMARK                            x       y       z     vdW  Elec       q    Type
REMARK                         _______ _______ _______ _____ _____    ______ ____
ROOT
ATOM      1  C   UNL     1      -1.258  -0.758   0.011  0.00  0.00    +0.028 C 
ATOM      2  C   UNL     1      -2.441  -0.101   0.128  0.00  0.00    +0.081 A 
ATOM      3  C   UNL     1      -3.801  -0.643   0.253  0.00  0.00    +0.268 A 
ATOM      4  O   UNL     1      -3.999  -1.844   0.262  0.00  0.00    -0.266 OA
ATOM      5  N   UNL     1      -4.816   0.224   0.360  0.00  0.00    -0.275 N 
ATOM      6  C   UNL     1      -4.538   1.572   0.338  0.00  0.00    +0.178 A 
ATOM      7  N   UNL     1      -5.447   2.509   0.430  0.00  0.00    -0.228 NA
ATOM      8  C   UNL     1      -6.750   2.291   0.555  0.00  0.00    +0.053 C 
ATOM      9  C   UNL     1      -7.240   1.016   0.598  0.00  0.00    +0.085 C 
ATOM     10  C   UNL     1      -6.257  -0.128   0.499  0.00  0.00    +0.162 C 
ATOM     11  C   UNL     1      -7.697   3.459   0.651  0.00  0.00    +0.066 C 
ATOM     12  S   UNL     1      -2.766   1.655   0.166  0.00  0.00    -0.046 S 
ENDROOT
BRANCH  10  13
ATOM     13  C   UNL     1      -6.410  -0.979   1.733  0.00  0.00    -0.020 A 
ATOM     14  C   UNL     1      -5.810  -0.592   2.917  0.00  0.00    +0.007 A 
ATOM     15  C   UNL     1      -5.955  -1.369   4.051  0.00  0.00    +0.020 A 
ATOM     16  C   UNL     1      -6.690  -2.540   3.998  0.00  0.00    +0.041 A 
ATOM     17  C   UNL     1      -7.285  -2.929   2.811  0.00  0.00    +0.020 A 
ATOM     18  C   UNL     1      -7.145  -2.148   1.680  0.00  0.00    +0.007 A 
ATOM     19 CL   UNL     1      -6.866  -3.520   5.420  0.00  0.00    -0.084 Cl
ENDBRANCH  10  13
BRANCH   1  23
ATOM     20  C   UNL     1       2.294   1.413  -0.814  0.00  0.00    +0.162 A 
ATOM     21  C   UNL     1       1.055   2.001  -1.033  0.00  0.00    +0.050 A 
ATOM     22  C   UNL     1      -0.101   1.300  -0.767  0.00  0.00    +0.012 A 
ATOM     23  C   UNL     1      -0.028  -0.008  -0.274  0.00  0.00    -0.020 A 
ATOM     24  C   UNL     1       1.222  -0.600  -0.053  0.00  0.00    +0.057 A 
ATOM     25  C   UNL     1       2.375   0.110  -0.323  0.00  0.00    +0.162 A 
BRANCH  25  26
ATOM     26  O   UNL     1       3.591  -0.461  -0.110  0.00  0.00    -0.491 OA
ATOM     27  C   UNL     1       3.600  -1.798   0.393  0.00  0.00    +0.277 C 
ENDBRANCH  25  26
BRANCH  20  28
ATOM     28  O   UNL     1       3.430   2.109  -1.078  0.00  0.00    -0.489 OA
BRANCH  28  30
ATOM     29  C   UNL     1       4.653   4.059  -1.814  0.00  0.00    +0.048 C 
ATOM     30  C   UNL     1       3.275   3.439  -1.578  0.00  0.00    +0.226 C 
ENDBRANCH  28  30
ENDBRANCH  20  28
ENDBRANCH   1  23
BRANCH   9  31
ATOM     31  C   UNL     1      -8.617   0.775   0.731  0.00  0.00    +0.339 C 
ATOM     32  O   UNL     1      -9.394   1.710   0.810  0.00  0.00    -0.245 OA
BRANCH  31  33
ATOM     33  O   UNL     1      -9.081  -0.493   0.772  0.00  0.00    -0.459 OA
BRANCH  33  34
ATOM     34  C   UNL     1     -10.493  -0.664   0.908  0.00  0.00    +0.171 C 
ATOM     35  C   UNL     1     -10.919  -1.962   0.220  0.00  0.00    +0.052 C 
ATOM     36  C   UNL     1     -10.857  -0.730   2.393  0.00  0.00    +0.052 C 
ENDBRANCH  33  34
ENDBRANCH  31  33
ENDBRANCH   9  31
TORSDOF 8
