REMARK  Name = ZINC15006983
REMARK  6 active torsions:
REMARK  status: ('A' for Active; 'I' for Inactive)
REMARK    1  A    between atoms: C_4  and  C_7
REMARK    2  A    between atoms: C_7  and  C_8
REMARK    3  A    between atoms: C_8  and  C_15
REMARK    4  A    between atoms: C_20  and  C_21
REMARK    5  A    between atoms: C_20  and  N_59
REMARK    6  A    between atoms: C_26  and  C_27
REMARK                            x       y       z     vdW  Elec       q    Type
REMARK                         _______ _______ _______ _____ _____    ______ ____
ROOT
ATOM      1  C   UNL     1       0.760   1.461  -1.561  0.00  0.00    +0.018 C 
ATOM      2  C   UNL     1       2.157   1.998  -1.884  0.00  0.00    -0.013 C 
ATOM      3  C   UNL     1       2.578   1.511  -3.272  0.00  0.00    -0.078 C 
ATOM      4  C   UNL     1       0.270   1.437  -4.009  0.00  0.00    -0.078 C 
ATOM      5  C   UNL     1      -0.219   1.923  -2.643  0.00  0.00    -0.013 C 
ATOM      6  N   UNL     1       1.608   2.009  -4.271  0.00  0.00    +0.382 N 
ATOM      7  H   UNL     1       1.552   3.032  -4.199  0.00  0.00    -0.081 HD
ENDROOT
BRANCH   1   8
ATOM      8  C   UNL     1       0.309   1.996  -0.201  0.00  0.00    +0.119 C 
ATOM      9  C   UNL     1      -1.102   1.538   0.111  0.00  0.00    +0.244 C 
ATOM     10  O   UNL     1      -1.491   0.396   0.233  0.00  0.00    -0.273 OA
ATOM     11  N   UNL     1      -1.834   2.663   0.225  0.00  0.00    -0.238 N 
ATOM     12  C   UNL     1      -1.090   3.758   0.031  0.00  0.00    +0.307 C 
ATOM     13  O   UNL     1      -1.527   4.891   0.083  0.00  0.00    -0.252 OA
ATOM     14  N   UNL     1       0.197   3.465  -0.228  0.00  0.00    -0.284 N 
ATOM     15  H   UNL     1      -2.784   2.679   0.424  0.00  0.00    +0.159 HD
ATOM     16  H   UNL     1       0.913   4.097  -0.400  0.00  0.00    +0.151 HD
BRANCH   8  17
ATOM     17  C   UNL     1       1.274   1.550   0.899  0.00  0.00    +0.070 C 
BRANCH  17  21
ATOM     18  C   UNL     1       0.035   3.199   4.639  0.00  0.00    +0.000 A 
ATOM     19  C   UNL     1      -0.441   1.966   4.236  0.00  0.00    +0.000 A 
ATOM     20  C   UNL     1      -0.040   1.432   3.026  0.00  0.00    +0.004 A 
ATOM     21  C   UNL     1       0.837   2.132   2.219  0.00  0.00    -0.045 A 
ATOM     22  C   UNL     1       1.317   3.363   2.624  0.00  0.00    +0.004 A 
ATOM     23  C   UNL     1       0.913   3.898   3.833  0.00  0.00    +0.000 A 
ENDBRANCH  17  21
ENDBRANCH   8  17
ENDBRANCH   1   8
BRANCH   6  24
ATOM     24  C   UNL     1       2.054   1.647  -5.632  0.00  0.00    -0.039 C 
BRANCH  24  25
ATOM     25  C   UNL     1       3.466   2.134  -5.831  0.00  0.00    -0.019 A 
ATOM     26  C   UNL     1       4.575   1.364  -5.875  0.00  0.00    +0.107 A 
ATOM     27  N   UNL     1       5.638   2.173  -6.072  0.00  0.00    -0.284 N 
ATOM     28  H   UNL     1       6.591   1.881  -6.152  0.00  0.00    +0.188 HD
ATOM     29  N   UNL     1       5.174   3.493  -6.144  0.00  0.00    -0.174 NA
ATOM     30  C   UNL     1       3.866   3.475  -5.999  0.00  0.00    +0.094 A 
BRANCH  30  31
ATOM     31  C   UNL     1       2.970   4.658  -6.011  0.00  0.00    +0.002 A 
ATOM     32  C   UNL     1       1.765   4.616  -6.710  0.00  0.00    +0.010 A 
ATOM     33  C   UNL     1       0.933   5.717  -6.713  0.00  0.00    +0.001 A 
ATOM     34  C   UNL     1       1.298   6.865  -6.032  0.00  0.00    +0.000 A 
ATOM     35  C   UNL     1       2.495   6.913  -5.341  0.00  0.00    +0.001 A 
ATOM     36  C   UNL     1       3.332   5.816  -5.327  0.00  0.00    +0.010 A 
ENDBRANCH  30  31
ENDBRANCH  24  25
ENDBRANCH   6  24
TORSDOF 6
