REMARK  Name = ZINC20683188
REMARK  6 active torsions:
REMARK  status: ('A' for Active; 'I' for Inactive)
REMARK    1  A    between atoms: C_1  and  C_2
REMARK    2  A    between atoms: C_5  and  S_25
REMARK    3  A    between atoms: C_10  and  C_11
REMARK    4  A    between atoms: S_25  and  N_28
REMARK    5  A    between atoms: C_30  and  C_37
REMARK    6  A    between atoms: C_33  and  C_36
REMARK                            x       y       z     vdW  Elec       q    Type
REMARK                         _______ _______ _______ _____ _____    ______ ____
ROOT
ATOM      1  C   UNL     1      -0.093   1.494   0.004  0.00  0.00    +0.048 C 
ATOM      2  C   UNL     1      -0.065  -0.013  -0.008  0.00  0.00    +0.008 A 
ATOM      3  C   UNL     1      -0.084  -0.884  -1.183  0.00  0.00    +0.026 A 
ATOM      4  C   UNL     1      -0.132  -0.659  -2.561  0.00  0.00    +0.040 A 
ATOM      5  C   UNL     1      -0.138  -1.720  -3.421  0.00  0.00    +0.106 A 
ATOM      6  C   UNL     1      -0.098  -3.020  -2.934  0.00  0.00    +0.032 A 
ATOM      7  C   UNL     1      -0.051  -3.263  -1.579  0.00  0.00    +0.049 A 
ATOM      8  C   UNL     1      -0.043  -2.199  -0.684  0.00  0.00    +0.136 A 
ATOM      9  O   UNL     1      -0.002  -2.123   0.660  0.00  0.00    -0.450 OA
ATOM     10  C   UNL     1      -0.010  -0.838   1.070  0.00  0.00    +0.194 A 
ENDROOT
BRANCH  10  11
ATOM     11  C   UNL     1       0.032  -0.396   2.471  0.00  0.00    +0.282 C 
ATOM     12  O   UNL     1       0.138   0.787   2.733  0.00  0.00    -0.267 OA
ATOM     13  N   UNL     1      -0.048  -1.302   3.466  0.00  0.00    -0.292 N 
ATOM     14  C   UNL     1      -0.138  -0.868   4.867  0.00  0.00    +0.127 C 
ATOM     15  C   UNL     1      -1.386  -1.500   5.496  0.00  0.00    +0.125 C 
ATOM     16  N   UNL     1      -1.384  -2.939   5.199  0.00  0.00    -0.314 N 
ATOM     17  C   UNL     1      -1.294  -3.373   3.798  0.00  0.00    +0.125 C 
ATOM     18  C   UNL     1      -0.051  -2.741   3.168  0.00  0.00    +0.127 C 
ATOM     19  C   UNL     1      -1.466  -3.873   6.225  0.00  0.00    +0.099 A 
ATOM     20  C   UNL     1      -1.680  -3.446   7.531  0.00  0.00    +0.042 A 
ATOM     21  C   UNL     1      -1.760  -4.386   8.542  0.00  0.00    +0.005 A 
ATOM     22  C   UNL     1      -1.622  -5.728   8.212  0.00  0.00    +0.018 A 
ATOM     23  C   UNL     1      -1.412  -6.082   6.894  0.00  0.00    +0.084 A 
ATOM     24  N   UNL     1      -1.346  -5.163   5.949  0.00  0.00    -0.350 N 
ATOM     25  H   UNL     1      -1.201  -5.439   5.030  0.00  0.00    +0.166 HD
ENDBRANCH  10  11
BRANCH   5  26
ATOM     26  S   UNL     1      -0.199  -1.439  -5.159  0.00  0.00    +0.061 S 
ATOM     27  O   UNL     1      -0.745  -2.613  -5.742  0.00  0.00    -0.153 OA
ATOM     28  O   UNL     1      -0.781  -0.155  -5.343  0.00  0.00    -0.153 OA
BRANCH  26  29
ATOM     29  N   UNL     1       1.366  -1.329  -5.692  0.00  0.00    -0.176 NA
ATOM     30  C   UNL     1       2.057  -0.033  -5.724  0.00  0.00    +0.112 C 
ATOM     31  C   UNL     1       3.377  -0.159  -4.957  0.00  0.00    +0.002 C 
ATOM     32  C   UNL     1       4.190  -1.319  -5.536  0.00  0.00    +0.009 C 
ATOM     33  C   UNL     1       3.408  -2.625  -5.370  0.00  0.00    +0.002 C 
ATOM     34  C   UNL     1       2.091  -2.528  -6.136  0.00  0.00    +0.112 C 
ATOM     35  C   UNL     1       4.236  -3.789  -5.918  0.00  0.00    +0.009 C 
ATOM     36  C   UNL     1       4.172   1.141  -5.093  0.00  0.00    +0.009 C 
ENDBRANCH  26  29
ENDBRANCH   5  26
TORSDOF 3
