REMARK  Name = ZINC67081266
REMARK  10 active torsions:
REMARK  status: ('A' for Active; 'I' for Inactive)
REMARK    1  A    between atoms: C_1  and  C_2
REMARK    2  A    between atoms: C_2  and  C_3
REMARK    3  A    between atoms: C_3  and  C_5
REMARK    4  A    between atoms: C_3  and  N_6
REMARK    5  A    between atoms: C_7  and  C_9
REMARK    6  A    between atoms: C_9  and  C_11
REMARK    7  A    between atoms: C_9  and  N_12
REMARK    8  A    between atoms: C_18  and  N_21
REMARK    9  A    between atoms: C_22  and  C_24
REMARK   10  A    between atoms: C_28  and  C_29
REMARK                            x       y       z     vdW  Elec       q    Type
REMARK                         _______ _______ _______ _____ _____    ______ ____
ROOT
ATOM      1  N   UNL     1       6.958   0.190  -2.849  0.00  0.00    -0.288 N 
ATOM      2  C   UNL     1       6.124   0.407  -3.886  0.00  0.00    +0.303 C 
ATOM      3  O   UNL     1       4.922   0.444  -3.702  0.00  0.00    -0.253 OA
ATOM      4  N   UNL     1       6.621   0.584  -5.126  0.00  0.00    -0.286 N 
ATOM      5  C   UNL     1       5.737   0.941  -6.243  0.00  0.00    +0.111 C 
ATOM      6  C   UNL     1       5.949  -0.065  -7.380  0.00  0.00    +0.041 C 
ATOM      7  C   UNL     1       7.434  -0.111  -7.744  0.00  0.00    +0.076 C 
ATOM      8  C   UNL     1       8.244  -0.575  -6.531  0.00  0.00    +0.041 C 
ATOM      9  C   UNL     1       8.059   0.430  -5.384  0.00  0.00    +0.111 C 
ATOM     10  H   UNL     1       7.910   0.089  -3.006  0.00  0.00    +0.151 HD
ENDROOT
BRANCH   7  11
ATOM     11  N   UNL     1       7.636  -1.046  -8.853  0.00  0.00    -0.308 N 
ATOM     12  C   UNL     1       8.699  -0.905  -9.669  0.00  0.00    +0.248 C 
ATOM     13  O   UNL     1       9.491   0.000  -9.486  0.00  0.00    -0.270 OA
ATOM     14  H   UNL     1       7.005  -1.768  -9.000  0.00  0.00    +0.149 HD
BRANCH  12  15
ATOM     15  C   UNL     1       8.902  -1.846 -10.785  0.00  0.00    +0.077 A 
ATOM     16  C   UNL     1       8.047  -2.984 -11.154  0.00  0.00    +0.054 A 
ATOM     17  C   UNL     1       8.625  -3.546 -12.227  0.00  0.00    +0.196 A 
ATOM     18  O   UNL     1       9.736  -2.861 -12.538  0.00  0.00    -0.467 OA
ATOM     19  C   UNL     1       9.919  -1.840 -11.694  0.00  0.00    +0.114 A 
ATOM     20  C   UNL     1      11.056  -0.852 -11.739  0.00  0.00    +0.087 C 
ENDBRANCH  12  15
ENDBRANCH   7  11
BRANCH   1  21
ATOM     21  C   UNL     1       6.427   0.107  -1.487  0.00  0.00    +0.157 C 
ATOM     22  C   UNL     1       5.950  -1.321  -1.212  0.00  0.00    +0.038 C 
BRANCH  21  24
ATOM     23  N   UNL     1       7.247   0.467   0.819  0.00  0.00    -0.311 N 
ATOM     24  C   UNL     1       7.508   0.474  -0.503  0.00  0.00    +0.233 C 
ATOM     25  O   UNL     1       8.613   0.775  -0.901  0.00  0.00    -0.274 OA
ATOM     26  H   UNL     1       6.362   0.226   1.138  0.00  0.00    +0.149 HD
BRANCH  23  27
ATOM     27  C   UNL     1       8.297   0.823   1.776  0.00  0.00    +0.070 C 
ATOM     28  C   UNL     1       8.342   2.343   1.941  0.00  0.00    +0.028 C 
BRANCH  27  30
ATOM     29  C   UNL     1       8.078  -1.350   2.988  0.00  0.00    +0.005 C 
ATOM     30  C   UNL     1       8.000   0.171   3.127  0.00  0.00    +0.018 C 
ENDBRANCH  27  30
ENDBRANCH  23  27
ENDBRANCH  21  24
ENDBRANCH   1  21
TORSDOF 6
