REMARK  Name = ZINC58017863
REMARK  10 active torsions:
REMARK  status: ('A' for Active; 'I' for Inactive)
REMARK    1  A    between atoms: C_1  and  C_2
REMARK    2  A    between atoms: C_5  and  C_8
REMARK    3  A    between atoms: C_11  and  S_14
REMARK    4  A    between atoms: N_12  and  N_13
REMARK    5  A    between atoms: S_14  and  C_15
REMARK    6  A    between atoms: C_15  and  C_17
REMARK    7  A    between atoms: C_15  and  C_18
REMARK    8  A    between atoms: N_20  and  C_21
REMARK    9  A    between atoms: N_25  and  C_27
REMARK   10  A    between atoms: C_27  and  C_28
REMARK                            x       y       z     vdW  Elec       q    Type
REMARK                         _______ _______ _______ _____ _____    ______ ____
ROOT
ATOM      1  C   UNL     1       0.210  -9.149   0.274  0.00  0.00    +0.137 C 
ATOM      2  C   UNL     1      -1.258  -9.121  -0.154  0.00  0.00    +0.029 C 
ENDROOT
BRANCH   1   3
ATOM      3  C   UNL     1       0.525 -10.484   0.899  0.00  0.00    +0.226 C 
ATOM      4  O   UNL     1       0.472 -10.617   2.104  0.00  0.00    -0.275 OA
ATOM      5  N   UNL     1       0.867 -11.529   0.120  0.00  0.00    -0.313 N 
ATOM      6  H   UNL     1       0.909 -11.422  -0.843  0.00  0.00    +0.149 HD
BRANCH   5   7
ATOM      7  C   UNL     1       1.173 -12.826   0.728  0.00  0.00    +0.055 C 
ATOM      8  C   UNL     1       2.670 -12.902   1.105  0.00  0.00    +0.002 C 
ATOM      9  C   UNL     1       3.046 -14.360   0.741  0.00  0.00    -0.077 C 
ATOM     10  N   UNL     1       2.268 -14.612  -0.499  0.00  0.00    +0.384 N 
ATOM     11  C   UNL     1       0.955 -13.959  -0.292  0.00  0.00    -0.056 C 
ATOM     12  H   UNL     1       2.739 -14.205  -1.294  0.00  0.00    -0.081 HD
BRANCH  10  13
ATOM     13  C   UNL     1       2.089 -16.056  -0.700  0.00  0.00    -0.043 C 
BRANCH  13  14
ATOM     14  C   UNL     1       3.425 -16.695  -0.977  0.00  0.00    -0.064 A 
ATOM     15  C   UNL     1       3.885 -16.800  -2.277  0.00  0.00    +0.002 A 
ATOM     16  C   UNL     1       5.111 -17.386  -2.531  0.00  0.00    +0.000 A 
ATOM     17  C   UNL     1       5.877 -17.866  -1.486  0.00  0.00    +0.000 A 
ATOM     18  C   UNL     1       5.418 -17.760  -0.186  0.00  0.00    +0.000 A 
ATOM     19  C   UNL     1       4.194 -17.170   0.069  0.00  0.00    +0.002 A 
ENDBRANCH  13  14
ENDBRANCH  10  13
ENDBRANCH   5   7
ENDBRANCH   1   3
BRANCH   1  20
ATOM     20  S   UNL     1       0.514  -7.829   1.481  0.00  0.00    -0.072 S 
BRANCH  20  24
ATOM     21  C   UNL     1       0.058  -4.251  -0.021  0.00  0.00    +0.182 A 
ATOM     22  N   UNL     1      -0.205  -5.029  -1.045  0.00  0.00    -0.127 NA
ATOM     23  N   UNL     1      -0.094  -6.262  -0.700  0.00  0.00    -0.121 NA
ATOM     24  C   UNL     1       0.247  -6.346   0.567  0.00  0.00    +0.209 A 
ATOM     25  N   UNL     1       0.361  -5.071   1.041  0.00  0.00    -0.224 N 
BRANCH  21  30
ATOM     26  C   UNL     1      -0.018   1.503   0.010  0.00  0.00    +0.044 C 
ATOM     27  C   UNL     1       0.002  -0.004   0.002  0.00  0.00    -0.050 A 
ATOM     28  C   UNL     1       0.006  -0.686  -1.202  0.00  0.00    +0.004 A 
ATOM     29  C   UNL     1       0.024  -2.066  -1.216  0.00  0.00    +0.012 A 
ATOM     30  C   UNL     1       0.039  -2.773  -0.013  0.00  0.00    +0.021 A 
ATOM     31  C   UNL     1       0.036  -2.079   1.198  0.00  0.00    +0.012 A 
ATOM     32  C   UNL     1       0.023  -0.699   1.198  0.00  0.00    +0.004 A 
ENDBRANCH  21  30
BRANCH  25  33
ATOM     33  N   UNL     1       0.701  -4.689   2.308  0.00  0.00    -0.295 N 
ATOM     34  H   UNL     1      -0.117  -4.601   2.891  0.00  0.00    +0.163 HD
ATOM     35  H   UNL     1       1.367  -5.330   2.713  0.00  0.00    +0.163 HD
ENDBRANCH  25  33
ENDBRANCH  20  24
ENDBRANCH   1  20
TORSDOF 8
