REMARK  Name = ZINC15988759
REMARK  11 active torsions:
REMARK  status: ('A' for Active; 'I' for Inactive)
REMARK    1  A    between atoms: C_1  and  C_2
REMARK    2  A    between atoms: C_2  and  N_3
REMARK    3  A    between atoms: N_3  and  C_4
REMARK    4  A    between atoms: N_3  and  S_6
REMARK    5  A    between atoms: C_4  and  C_5
REMARK    6  A    between atoms: S_6  and  C_9
REMARK    7  A    between atoms: C_13  and  C_15
REMARK    8  A    between atoms: N_17  and  C_18
REMARK    9  A    between atoms: C_18  and  C_19
REMARK   10  A    between atoms: C_19  and  C_21
REMARK   11  A    between atoms: C_19  and  N_61
REMARK                            x       y       z     vdW  Elec       q    Type
REMARK                         _______ _______ _______ _____ _____    ______ ____
ROOT
ATOM      1  C   UNL     1      -2.853   0.124   3.773  0.00  0.00    +0.246 C 
ATOM      2  O   UNL     1      -3.310   0.500   4.835  0.00  0.00    -0.270 OA
ATOM      3  N   UNL     1      -3.389  -0.943   3.149  0.00  0.00    -0.312 N 
ATOM      4  H   UNL     1      -3.025  -1.243   2.301  0.00  0.00    +0.149 HD
ENDROOT
BRANCH   1   9
ATOM      5  C   UNL     1      -0.117   1.080   1.385  0.00  0.00    +0.106 A 
ATOM      6  C   UNL     1       0.435   2.173   2.031  0.00  0.00    +0.030 A 
ATOM      7  C   UNL     1      -0.085   2.608   3.236  0.00  0.00    +0.022 A 
ATOM      8  C   UNL     1      -1.153   1.945   3.810  0.00  0.00    +0.053 A 
ATOM      9  C   UNL     1      -1.710   0.838   3.166  0.00  0.00    +0.057 A 
ATOM     10  C   UNL     1      -1.183   0.409   1.946  0.00  0.00    +0.043 A 
ATOM     11 CL   UNL     1      -1.800   2.487   5.327  0.00  0.00    -0.083 Cl
BRANCH   5  12
ATOM     12  S   UNL     1       0.549   0.540  -0.154  0.00  0.00    +0.061 S 
ATOM     13  O   UNL     1       0.212  -0.834  -0.283  0.00  0.00    -0.153 OA
ATOM     14  O   UNL     1       1.892   1.003  -0.200  0.00  0.00    -0.153 OA
BRANCH  12  15
ATOM     15  N   UNL     1      -0.269   1.342  -1.350  0.00  0.00    -0.177 NA
BRANCH  15  17
ATOM     16  C   UNL     1       1.089   2.412  -3.080  0.00  0.00    +0.022 C 
ATOM     17  C   UNL     1       0.225   2.633  -1.837  0.00  0.00    +0.106 C 
ENDBRANCH  15  17
BRANCH  15  18
ATOM     18  C   UNL     1      -1.487   0.761  -1.921  0.00  0.00    +0.106 C 
ATOM     19  C   UNL     1      -2.711   1.335  -1.203  0.00  0.00    +0.022 C 
ENDBRANCH  15  18
ENDBRANCH  12  15
ENDBRANCH   5  12
ENDBRANCH   1   9
BRANCH   3  20
ATOM     20  C   UNL     1      -4.522  -1.651   3.750  0.00  0.00    +0.097 C 
BRANCH  20  21
ATOM     21  C   UNL     1      -4.854  -2.887   2.912  0.00  0.00    +0.016 C 
BRANCH  21  27
ATOM     22  C   UNL     1      -6.164  -1.515   1.408  0.00  0.00    -0.078 C 
ATOM     23  C   UNL     1      -6.264  -1.013  -0.035  0.00  0.00    -0.019 C 
ATOM     24  C   UNL     1      -6.519  -2.201  -0.967  0.00  0.00    -0.004 C 
ATOM     25  C   UNL     1      -5.389  -3.222  -0.800  0.00  0.00    -0.019 C 
ATOM     26  C   UNL     1      -5.315  -3.659   0.664  0.00  0.00    -0.078 C 
ATOM     27  N   UNL     1      -5.044  -2.474   1.506  0.00  0.00    +0.387 N 
ATOM     28  H   UNL     1      -4.186  -2.019   1.173  0.00  0.00    -0.081 HD
ENDBRANCH  21  27
BRANCH  21  29
ATOM     29  C   UNL     1      -3.711  -3.866   2.984  0.00  0.00    +0.093 A 
ATOM     30  C   UNL     1      -3.656  -4.954   3.772  0.00  0.00    +0.043 A 
ATOM     31  C   UNL     1      -2.414  -5.581   3.519  0.00  0.00    +0.041 A 
ATOM     32  C   UNL     1      -1.781  -4.833   2.598  0.00  0.00    +0.195 A 
ATOM     33  O   UNL     1      -2.571  -3.796   2.277  0.00  0.00    -0.469 OA
ENDBRANCH  21  29
ENDBRANCH  20  21
ENDBRANCH   3  20
TORSDOF 9
