REMARK  Name = ZINC36821424
REMARK  8 active torsions:
REMARK  status: ('A' for Active; 'I' for Inactive)
REMARK    1  A    between atoms: C_1  and  C_2
REMARK    2  A    between atoms: C_5  and  C_8
REMARK    3  A    between atoms: C_9  and  C_34
REMARK    4  A    between atoms: C_17  and  C_19
REMARK    5  A    between atoms: C_19  and  S_20
REMARK    6  A    between atoms: S_20  and  C_21
REMARK    7  A    between atoms: C_24  and  C_27
REMARK    8  A    between atoms: N_25  and  C_26
REMARK                            x       y       z     vdW  Elec       q    Type
REMARK                         _______ _______ _______ _____ _____    ______ ____
ROOT
ATOM      1  C   UNL     1      -0.259  -4.380   0.435  0.00  0.00    +0.007 A 
ATOM      2  C   UNL     1      -1.361  -5.102   0.120  0.00  0.00    -0.003 A 
ATOM      3  S   UNL     1      -0.830  -6.787   0.354  0.00  0.00    -0.073 S 
ATOM      4  C   UNL     1       0.843  -6.486   0.865  0.00  0.00    +0.116 A 
ATOM      5  C   UNL     1       0.952  -5.086   0.836  0.00  0.00    +0.080 A 
ATOM      6  C   UNL     1       2.229  -4.556   1.208  0.00  0.00    +0.260 A 
ATOM      7  O   UNL     1       2.420  -3.353   1.218  0.00  0.00    -0.267 OA
ATOM      8  N   UNL     1       3.215  -5.408   1.546  0.00  0.00    -0.310 N 
ATOM      9  H   UNL     1       4.082  -5.055   1.798  0.00  0.00    +0.170 HD
ATOM     10  C   UNL     1       3.019  -6.752   1.540  0.00  0.00    +0.121 A 
ATOM     11  N   UNL     1       1.863  -7.264   1.216  0.00  0.00    -0.226 NA
ATOM     12  C   UNL     1      -2.711  -4.601  -0.322  0.00  0.00    +0.052 C 
ENDROOT
BRANCH   1  17
ATOM     13  C   UNL     1      -0.351   1.372   0.176  0.00  0.00    +0.044 C 
ATOM     14  C   UNL     1      -0.327  -0.133   0.244  0.00  0.00    -0.050 A 
ATOM     15  C   UNL     1      -0.480  -0.878  -0.912  0.00  0.00    +0.004 A 
ATOM     16  C   UNL     1      -0.459  -2.256  -0.856  0.00  0.00    +0.009 A 
ATOM     17  C   UNL     1      -0.282  -2.899   0.368  0.00  0.00    -0.016 A 
ATOM     18  C   UNL     1      -0.127  -2.143   1.530  0.00  0.00    +0.009 A 
ATOM     19  C   UNL     1      -0.145  -0.765   1.461  0.00  0.00    +0.004 A 
ENDBRANCH   1  17
BRANCH  10  20
ATOM     20  C   UNL     1       4.153  -7.666   1.927  0.00  0.00    +0.151 C 
BRANCH  20  21
ATOM     21  S   UNL     1       3.599  -9.391   1.826  0.00  0.00    -0.078 S 
BRANCH  21  22
ATOM     22  C   UNL     1       5.017 -10.322   2.301  0.00  0.00    +0.192 A 
ATOM     23  N   UNL     1       6.189  -9.837   2.648  0.00  0.00    -0.122 NA
ATOM     24  N   UNL     1       6.996 -10.795   2.934  0.00  0.00    -0.128 NA
ATOM     25  C   UNL     1       6.390 -11.950   2.788  0.00  0.00    +0.165 A 
ATOM     26  N   UNL     1       5.103 -11.683   2.383  0.00  0.00    -0.305 N 
ATOM     27  C   UNL     1       4.045 -12.655   2.096  0.00  0.00    +0.153 C 
BRANCH  25  28
ATOM     28  C   UNL     1       6.979 -13.287   3.020  0.00  0.00    +0.019 A 
ATOM     29  C   UNL     1       6.374 -14.422   2.478  0.00  0.00    +0.013 A 
ATOM     30  C   UNL     1       6.928 -15.666   2.698  0.00  0.00    +0.021 A 
ATOM     31  C   UNL     1       8.081 -15.790   3.455  0.00  0.00    +0.041 A 
ATOM     32  C   UNL     1       8.685 -14.667   3.995  0.00  0.00    +0.021 A 
ATOM     33  C   UNL     1       8.144 -13.417   3.777  0.00  0.00    +0.013 A 
ATOM     34 CL   UNL     1       8.772 -17.359   3.727  0.00  0.00    -0.084 Cl
ENDBRANCH  25  28
ENDBRANCH  21  22
ENDBRANCH  20  21
ENDBRANCH  10  20
TORSDOF 5
