REMARK  Name = ZINC40986196
REMARK  13 active torsions:
REMARK  status: ('A' for Active; 'I' for Inactive)
REMARK    1  A    between atoms: C_1  and  C_2
REMARK    2  A    between atoms: C_2  and  C_3
REMARK    3  A    between atoms: C_3  and  S_4
REMARK    4  A    between atoms: S_4  and  C_7
REMARK    5  A    between atoms: C_10  and  C_14
REMARK    6  A    between atoms: N_16  and  C_17
REMARK    7  A    between atoms: C_17  and  C_18
REMARK    8  A    between atoms: C_18  and  C_20
REMARK    9  A    between atoms: C_18  and  N_30
REMARK   10  A    between atoms: C_23  and  C_26
REMARK   11  A    between atoms: C_26  and  C_27
REMARK   12  A    between atoms: C_26  and  C_28
REMARK   13  A    between atoms: C_26  and  C_29
REMARK                            x       y       z     vdW  Elec       q    Type
REMARK                         _______ _______ _______ _____ _____    ______ ____
ROOT
ATOM      1  C   UNL     1       3.712  -4.242  -8.757  0.00  0.00    +0.094 C 
ENDROOT
BRANCH   1   4
ATOM      2  C   UNL     1       5.382  -5.631  -7.652  0.00  0.00    +0.248 C 
ATOM      3  O   UNL     1       5.794  -4.636  -7.088  0.00  0.00    -0.270 OA
ATOM      4  N   UNL     1       4.344  -5.540  -8.507  0.00  0.00    -0.312 N 
ATOM      5  H   UNL     1       4.015  -6.334  -8.956  0.00  0.00    +0.149 HD
BRANCH   2   9
ATOM      6  C   UNL     1       7.175  -9.314  -6.943  0.00  0.00    +0.272 A 
ATOM      7  N   UNL     1       6.160  -9.248  -7.783  0.00  0.00    -0.219 NA
ATOM      8  C   UNL     1       5.561  -8.098  -8.037  0.00  0.00    +0.130 A 
ATOM      9  C   UNL     1       6.019  -6.940  -7.399  0.00  0.00    +0.092 A 
ATOM     10  C   UNL     1       7.099  -7.057  -6.515  0.00  0.00    +0.146 A 
ATOM     11  N   UNL     1       7.636  -8.250  -6.316  0.00  0.00    -0.199 NA
ATOM     12 CL   UNL     1       7.719  -5.661  -5.689  0.00  0.00    -0.061 Cl
BRANCH   6  13
ATOM     13  S   UNL     1       7.933 -10.876  -6.643  0.00  0.00    +0.032 S 
ATOM     14  O   UNL     1       9.262 -10.563  -6.248  0.00  0.00    -0.166 OA
ATOM     15  O   UNL     1       7.687 -11.630  -7.822  0.00  0.00    -0.166 OA
BRANCH  13  16
ATOM     16  C   UNL     1       7.015 -11.580  -5.246  0.00  0.00    +0.175 C 
BRANCH  16  18
ATOM     17  C   UNL     1       6.819 -13.546  -3.717  0.00  0.00    +0.005 C 
ATOM     18  C   UNL     1       7.593 -12.952  -4.895  0.00  0.00    +0.020 C 
ENDBRANCH  16  18
ENDBRANCH  13  16
ENDBRANCH   6  13
ENDBRANCH   2   9
ENDBRANCH   1   4
BRANCH   1  19
ATOM     19  C   UNL     1       2.657  -4.391  -9.854  0.00  0.00    -0.020 C 
BRANCH  19  20
ATOM     20  N   UNL     1       1.960  -3.111 -10.041  0.00  0.00    +0.385 N 
ATOM     21  C   UNL     1       1.267  -2.748  -8.800  0.00  0.00    -0.078 C 
ATOM     22  C   UNL     1       0.607  -1.377  -8.963  0.00  0.00    -0.019 C 
ATOM     23  C   UNL     1      -0.401  -1.435 -10.114  0.00  0.00    -0.004 C 
ATOM     24  C   UNL     1       0.319  -1.888 -11.387  0.00  0.00    -0.019 C 
ATOM     25  C   UNL     1       0.989  -3.240 -11.135  0.00  0.00    -0.078 C 
ATOM     26  H   UNL     1       2.632  -2.395 -10.271  0.00  0.00    -0.081 HD
ENDBRANCH  19  20
BRANCH  19  27
ATOM     27  C   UNL     1       3.326  -4.792 -11.143  0.00  0.00    -0.059 A 
ATOM     28  C   UNL     1       3.957  -3.838 -11.920  0.00  0.00    +0.002 A 
ATOM     29  C   UNL     1       4.571  -4.206 -13.103  0.00  0.00    +0.004 A 
ATOM     30  C   UNL     1       4.554  -5.527 -13.509  0.00  0.00    -0.042 A 
ATOM     31  C   UNL     1       3.925  -6.481 -12.731  0.00  0.00    +0.004 A 
ATOM     32  C   UNL     1       3.314  -6.114 -11.546  0.00  0.00    +0.002 A 
BRANCH  30  33
ATOM     33  C   UNL     1       5.223  -5.928 -14.798  0.00  0.00    -0.013 C 
ATOM     34  C   UNL     1       6.712  -5.580 -14.731  0.00  0.00    +0.015 C 
ATOM     35  C   UNL     1       5.060  -7.434 -15.011  0.00  0.00    +0.015 C 
ATOM     36  C   UNL     1       4.576  -5.176 -15.963  0.00  0.00    +0.015 C 
ENDBRANCH  30  33
ENDBRANCH  19  27
ENDBRANCH   1  19
TORSDOF 9
