REMARK  Name = ZINC35026062
REMARK  8 active torsions:
REMARK  status: ('A' for Active; 'I' for Inactive)
REMARK    1  A    between atoms: C_1  and  C_2
REMARK    2  A    between atoms: C_2  and  O_3
REMARK    3  A    between atoms: O_3  and  C_4
REMARK    4  A    between atoms: C_4  and  C_6
REMARK    5  A    between atoms: C_8  and  C_20
REMARK    6  A    between atoms: C_14  and  C_15
REMARK    7  A    between atoms: C_14  and  O_19
REMARK    8  A    between atoms: C_23  and  C_25
REMARK                            x       y       z     vdW  Elec       q    Type
REMARK                         _______ _______ _______ _____ _____    ______ ____
ROOT
ATOM      1  C   UNL     1       1.366  -2.082  -2.720  0.00  0.00    +0.184 C 
ATOM      2  C   UNL     1       0.631  -1.667  -3.999  0.00  0.00    +0.159 C 
ATOM      3  N   UNL     1      -0.721  -2.226  -3.980  0.00  0.00    -0.289 N 
ATOM      4  C   UNL     1      -0.993  -3.372  -3.336  0.00  0.00    +0.302 C 
ATOM      5  O   UNL     1      -2.131  -3.798  -3.360  0.00  0.00    -0.253 OA
ATOM      6  N   UNL     1      -0.059  -4.064  -2.668  0.00  0.00    -0.264 N 
ATOM      7  C   UNL     1       1.335  -3.610  -2.610  0.00  0.00    +0.246 C 
ATOM      8  H   UNL     1      -1.435  -1.759  -4.441  0.00  0.00    +0.151 HD
ATOM      9  H   UNL     1      -0.310  -4.883  -2.212  0.00  0.00    +0.153 HD
ENDROOT
BRANCH   2  10
ATOM     10  C   UNL     1       0.555  -0.164  -4.071  0.00  0.00    +0.127 A 
ATOM     11  C   UNL     1       1.294   0.623  -4.876  0.00  0.00    +0.047 A 
ATOM     12  C   UNL     1       0.906   1.954  -4.623  0.00  0.00    +0.050 A 
ATOM     13  C   UNL     1      -0.059   1.906  -3.667  0.00  0.00    +0.135 A 
ATOM     14  O   UNL     1      -0.266   0.614  -3.345  0.00  0.00    -0.458 OA
BRANCH  13  15
ATOM     15  C   UNL     1      -0.763   3.067  -3.086  0.00  0.00    +0.017 A 
ATOM     16  C   UNL     1      -0.537   4.349  -3.591  0.00  0.00    +0.012 A 
ATOM     17  C   UNL     1      -1.198   5.429  -3.044  0.00  0.00    +0.016 A 
ATOM     18  C   UNL     1      -2.083   5.245  -1.996  0.00  0.00    +0.018 A 
ATOM     19  C   UNL     1      -2.312   3.977  -1.490  0.00  0.00    +0.016 A 
ATOM     20  C   UNL     1      -1.662   2.887  -2.033  0.00  0.00    +0.012 A 
ATOM     21 BR   UNL     1      -2.983   6.732  -1.251  0.00  0.00    -0.050 Br
ENDBRANCH  13  15
ENDBRANCH   2  10
BRANCH   7  22
ATOM     22  C   UNL     1       1.965  -4.040  -1.283  0.00  0.00    +0.436 C 
ATOM     23  F   UNL     1       1.170  -3.591  -0.223  0.00  0.00    -0.166 F 
ATOM     24  F   UNL     1       2.055  -5.435  -1.240  0.00  0.00    -0.166 F 
ATOM     25  F   UNL     1       3.245  -3.486  -1.173  0.00  0.00    -0.166 F 
ENDBRANCH   7  22
BRANCH   1  26
ATOM     26  C   UNL     1       0.681  -1.475  -1.523  0.00  0.00    +0.317 C 
ATOM     27  O   UNL     1      -0.501  -1.653  -1.348  0.00  0.00    -0.250 OA
BRANCH  26  28
ATOM     28  O   UNL     1       1.384  -0.735  -0.651  0.00  0.00    -0.465 OA
BRANCH  28  30
ATOM     29  C   UNL     1       1.615   0.640   1.323  0.00  0.00    +0.048 C 
ATOM     30  C   UNL     1       0.697  -0.282   0.517  0.00  0.00    +0.229 C 
ENDBRANCH  28  30
ENDBRANCH  26  28
ENDBRANCH   1  26
BRANCH   7  31
ATOM     31  O   UNL     1       2.068  -4.182  -3.695  0.00  0.00    -0.364 OA
ATOM     32  H   UNL     1       2.091  -5.149  -3.688  0.00  0.00    +0.212 HD
ENDBRANCH   7  31
TORSDOF 7
