REMARK  Name = ZINC39897285
REMARK  11 active torsions:
REMARK  status: ('A' for Active; 'I' for Inactive)
REMARK    1  A    between atoms: C_1  and  C_2
REMARK    2  A    between atoms: C_2  and  C_3
REMARK    3  A    between atoms: C_6  and  C_9
REMARK    4  A    between atoms: C_9  and  C_10
REMARK    5  A    between atoms: N_14  and  C_30
REMARK    6  A    between atoms: C_16  and  C_17
REMARK    7  A    between atoms: C_16  and  C_19
REMARK    8  A    between atoms: N_21  and  C_22
REMARK    9  A    between atoms: C_25  and  C_28
REMARK   10  A    between atoms: C_33  and  C_36
REMARK   11  A    between atoms: C_36  and  C_37
REMARK                            x       y       z     vdW  Elec       q    Type
REMARK                         _______ _______ _______ _____ _____    ______ ____
ROOT
ATOM      1  C   UNL     1       3.101  -0.760  -5.350  0.00  0.00    +0.143 C 
ATOM      2  C   UNL     1       4.065  -1.232  -6.428  0.00  0.00    +0.238 C 
ATOM      3  O   UNL     1       5.223  -1.495  -6.186  0.00  0.00    -0.274 OA
ATOM      4  N   UNL     1       3.558  -1.338  -7.644  0.00  0.00    -0.232 N 
ATOM      5  C   UNL     1       2.247  -1.044  -7.929  0.00  0.00    +0.098 C 
ATOM      6  C   UNL     1       1.596  -1.115  -9.161  0.00  0.00    +0.142 C 
ATOM      7  S   UNL     1       1.570  -0.548  -6.350  0.00  0.00    -0.095 S 
ENDROOT
BRANCH   4   8
ATOM      8  C   UNL     1       4.392  -1.768  -8.685  0.00  0.00    +0.042 A 
ATOM      9  C   UNL     1       4.621  -3.124  -8.878  0.00  0.00    +0.024 A 
ATOM     10  C   UNL     1       5.443  -3.545  -9.905  0.00  0.00    +0.005 A 
ATOM     11  C   UNL     1       6.039  -2.617 -10.740  0.00  0.00    -0.048 A 
ATOM     12  C   UNL     1       5.814  -1.266 -10.550  0.00  0.00    +0.005 A 
ATOM     13  C   UNL     1       4.988  -0.840  -9.529  0.00  0.00    +0.024 A 
BRANCH  11  14
ATOM     14  C   UNL     1       6.937  -3.080 -11.859  0.00  0.00    +0.032 C 
ATOM     15  C   UNL     1       6.103  -3.303 -13.122  0.00  0.00    +0.009 C 
ENDBRANCH  11  14
ENDBRANCH   4   8
BRANCH   6  16
ATOM     16  C   UNL     1       0.168  -0.816  -9.252  0.00  0.00    +0.261 C 
ATOM     17  O   UNL     1      -0.454  -0.505  -8.252  0.00  0.00    -0.269 OA
ATOM     18  N   UNL     1      -0.461  -0.884 -10.442  0.00  0.00    -0.281 N 
ATOM     19  H   UNL     1       0.011  -1.216 -11.222  0.00  0.00    +0.155 HD
BRANCH  18  20
ATOM     20  C   UNL     1      -1.794  -0.476 -10.553  0.00  0.00    +0.034 A 
ATOM     21  C   UNL     1      -2.644  -1.112 -11.449  0.00  0.00    +0.023 A 
ATOM     22  C   UNL     1      -3.960  -0.707 -11.556  0.00  0.00    +0.005 A 
ATOM     23  C   UNL     1      -4.432   0.330 -10.773  0.00  0.00    -0.050 A 
ATOM     24  C   UNL     1      -3.589   0.965  -9.879  0.00  0.00    +0.005 A 
ATOM     25  C   UNL     1      -2.273   0.561  -9.763  0.00  0.00    +0.023 A 
ATOM     26  C   UNL     1      -5.869   0.769 -10.892  0.00  0.00    +0.044 C 
ENDBRANCH  18  20
ENDBRANCH   6  16
BRANCH   6  27
ATOM     27  C   UNL     1       2.327  -1.480 -10.337  0.00  0.00    +0.107 C 
ATOM     28  N   UNL     1       2.907  -1.770 -11.270  0.00  0.00    -0.191 NA
ENDBRANCH   6  27
BRANCH   1  29
ATOM     29  C   UNL     1       2.914  -1.825  -4.268  0.00  0.00    +0.059 C 
BRANCH  29  33
ATOM     30  C   UNL     1       0.255  -0.355  -1.265  0.00  0.00    -0.048 A 
ATOM     31  C   UNL     1      -0.245  -1.042  -2.356  0.00  0.00    +0.004 A 
ATOM     32  C   UNL     1       0.615  -1.517  -3.327  0.00  0.00    +0.004 A 
ATOM     33  C   UNL     1       1.976  -1.306  -3.209  0.00  0.00    -0.046 A 
ATOM     34  C   UNL     1       2.476  -0.618  -2.119  0.00  0.00    +0.004 A 
ATOM     35  C   UNL     1       1.615  -0.138  -1.150  0.00  0.00    +0.004 A 
BRANCH  30  37
ATOM     36  C   UNL     1      -1.136   1.578  -0.574  0.00  0.00    +0.009 C 
ATOM     37  C   UNL     1      -0.683   0.164  -0.206  0.00  0.00    +0.032 C 
ENDBRANCH  30  37
ENDBRANCH  29  33
ENDBRANCH   1  29
TORSDOF 8
