REMARK  Name = ZINC63557509
REMARK  8 active torsions:
REMARK  status: ('A' for Active; 'I' for Inactive)
REMARK    1  A    between atoms: C_1  and  C_2
REMARK    2  A    between atoms: C_2  and  C_3
REMARK    3  A    between atoms: C_5  and  C_32
REMARK    4  A    between atoms: C_7  and  N_10
REMARK    5  A    between atoms: C_11  and  C_13
REMARK    6  A    between atoms: N_18  and  C_20
REMARK    7  A    between atoms: C_20  and  C_21
REMARK    8  A    between atoms: C_21  and  C_22
REMARK                            x       y       z     vdW  Elec       q    Type
REMARK                         _______ _______ _______ _____ _____    ______ ____
ROOT
ATOM      1  C   UNL     1      -1.412  -4.084   6.025  0.00  0.00    +0.101 C 
ATOM      2  C   UNL     1       0.040  -4.405   6.447  0.00  0.00    +0.110 C 
ATOM      3  C   UNL     1      -0.089  -5.637   7.315  0.00  0.00    +0.216 C 
ATOM      4  O   UNL     1       0.767  -6.049   8.069  0.00  0.00    -0.276 OA
ATOM      5  N   UNL     1      -1.292  -6.209   7.130  0.00  0.00    -0.300 N 
ATOM      6  C   UNL     1      -2.089  -5.468   6.145  0.00  0.00    +0.121 C 
ENDROOT
BRANCH   1   8
ATOM      7  N   UNL     1      -0.869  -2.415   4.282  0.00  0.00    -0.285 N 
ATOM      8  C   UNL     1      -1.463  -3.580   4.605  0.00  0.00    +0.220 C 
ATOM      9  O   UNL     1      -2.038  -4.224   3.754  0.00  0.00    -0.275 OA
ATOM     10  H   UNL     1      -0.408  -1.900   4.963  0.00  0.00    +0.152 HD
BRANCH   7  14
ATOM     11  C   UNL     1       0.742  -0.511   1.242  0.00  0.00    +0.099 C 
ATOM     12  C   UNL     1       0.810  -2.031   1.262  0.00  0.00    +0.059 C 
ATOM     13  N   UNL     1       0.030  -2.662   2.042  0.00  0.00    -0.254 NA
ATOM     14  C   UNL     1      -0.918  -1.925   2.902  0.00  0.00    +0.252 C 
ATOM     15  S   UNL     1      -0.238  -0.211   2.778  0.00  0.00    -0.106 S 
BRANCH  12  16
ATOM     16  C   UNL     1       1.759  -2.756   0.395  0.00  0.00    -0.003 A 
ATOM     17  C   UNL     1       2.615  -2.050  -0.453  0.00  0.00    +0.010 A 
ATOM     18  C   UNL     1       3.499  -2.735  -1.260  0.00  0.00    +0.001 A 
ATOM     19  C   UNL     1       3.541  -4.117  -1.231  0.00  0.00    +0.000 A 
ATOM     20  C   UNL     1       2.696  -4.823  -0.393  0.00  0.00    +0.001 A 
ATOM     21  C   UNL     1       1.810  -4.152   0.424  0.00  0.00    +0.010 A 
ENDBRANCH  12  16
BRANCH  11  23
ATOM     22  C   UNL     1      -0.019   1.526   0.010  0.00  0.00    +0.005 C 
ATOM     23  C   UNL     1       0.002  -0.004   0.002  0.00  0.00    +0.017 C 
ENDBRANCH  11  23
ENDBRANCH   7  14
ENDBRANCH   1   8
BRANCH   5  24
ATOM     24  C   UNL     1      -1.749  -7.416   7.823  0.00  0.00    +0.112 C 
BRANCH  24  25
ATOM     25  C   UNL     1      -2.458  -7.022   9.120  0.00  0.00    +0.052 C 
BRANCH  25  26
ATOM     26  C   UNL     1      -2.928  -8.264   9.833  0.00  0.00    -0.040 C 
ATOM     27  C   UNL     1      -2.283  -8.929  10.818  0.00  0.00    +0.000 A 
ATOM     28  C   UNL     1      -1.000  -8.705  11.494  0.00  0.00    +0.030 A 
ATOM     29  C   UNL     1      -0.611  -9.563  12.466  0.00  0.00    +0.042 A 
ATOM     30  C   UNL     1      -1.402 -10.659  12.841  0.00  0.00    +0.022 A 
ATOM     31  C   UNL     1      -2.592 -10.930  12.265  0.00  0.00    +0.027 A 
ATOM     32  C   UNL     1      -3.099 -10.093  11.233  0.00  0.00    +0.043 A 
ATOM     33  N   UNL     1      -4.205 -10.144  10.532  0.00  0.00    -0.380 N 
ATOM     34  C   UNL     1      -4.219  -9.015   9.596  0.00  0.00    +0.144 C 
ATOM     35 CL   UNL     1       0.906  -9.301  13.268  0.00  0.00    -0.084 Cl
ATOM     36  H   UNL     1      -4.900 -10.815  10.620  0.00  0.00    +0.160 HD
ENDBRANCH  25  26
ENDBRANCH  24  25
ENDBRANCH   5  24
TORSDOF 7
