REMARK  Name = ZINC39521043
REMARK  7 active torsions:
REMARK  status: ('A' for Active; 'I' for Inactive)
REMARK    1  A    between atoms: C_4  and  C_7
REMARK    2  A    between atoms: C_7  and  C_8
REMARK    3  A    between atoms: C_18  and  S_28
REMARK    4  A    between atoms: N_20  and  C_21
REMARK    5  A    between atoms: C_21  and  C_22
REMARK    6  A    between atoms: S_28  and  O_31
REMARK    7  A    between atoms: O_31  and  C_32
REMARK                            x       y       z     vdW  Elec       q    Type
REMARK                         _______ _______ _______ _____ _____    ______ ____
ROOT
ATOM      1  C   UNL     1       4.162  -0.779   1.696  0.00  0.00    -0.008 C 
ATOM      2  C   UNL     1       3.941   0.465   2.559  0.00  0.00    +0.004 C 
ATOM      3  C   UNL     1       3.789   0.048   4.024  0.00  0.00    -0.001 C 
ATOM      4  C   UNL     1       5.058  -0.673   4.483  0.00  0.00    -0.012 C 
ATOM      5  C   UNL     1       5.279  -1.917   3.620  0.00  0.00    -0.062 C 
ATOM      6  C   UNL     1       5.430  -1.501   2.156  0.00  0.00    -0.008 C 
ATOM      7  C   UNL     1       6.551  -2.635   4.078  0.00  0.00    -0.012 C 
ATOM      8  C   UNL     1       6.396  -3.052   5.543  0.00  0.00    -0.001 C 
ATOM      9  C   UNL     1       5.151  -3.932   5.685  0.00  0.00    +0.010 C 
ATOM     10  C   UNL     1       3.931  -3.167   5.169  0.00  0.00    +0.120 C 
ATOM     11  N   UNL     1       4.129  -2.820   3.756  0.00  0.00    +0.403 N 
ATOM     12  H   UNL     1       3.301  -2.363   3.405  0.00  0.00    -0.078 HD
ENDROOT
BRANCH  10  13
ATOM     13  S   UNL     1       2.453  -4.204   5.334  0.00  0.00    +0.108 S 
ATOM     14  O   UNL     1       1.304  -3.492   4.896  0.00  0.00    -0.138 OA
ATOM     15  O   UNL     1       2.719  -5.515   4.854  0.00  0.00    -0.138 OA
BRANCH  13  16
ATOM     16  O   UNL     1       2.258  -4.372   6.834  0.00  0.00    -0.347 OA
BRANCH  16  17
ATOM     17  C   UNL     1       1.760  -3.269   7.453  0.00  0.00    +0.156 A 
ATOM     18  C   UNL     1       2.622  -2.305   7.954  0.00  0.00    +0.048 A 
ATOM     19  C   UNL     1       2.113  -1.185   8.583  0.00  0.00    +0.004 A 
ATOM     20  C   UNL     1       0.746  -1.025   8.713  0.00  0.00    +0.000 A 
ATOM     21  C   UNL     1      -0.115  -1.985   8.215  0.00  0.00    +0.004 A 
ATOM     22  C   UNL     1       0.389  -3.104   7.580  0.00  0.00    +0.048 A 
ENDBRANCH  16  17
ENDBRANCH  13  16
ENDBRANCH  10  13
BRANCH   1  23
ATOM     23  C   UNL     1       4.313  -0.363   0.232  0.00  0.00    +0.038 C 
BRANCH  23  27
ATOM     24  C   UNL     1       1.571   2.792  -0.646  0.00  0.00    +0.000 A 
ATOM     25  C   UNL     1       2.841   3.087  -0.189  0.00  0.00    +0.000 A 
ATOM     26  C   UNL     1       3.729   2.067   0.096  0.00  0.00    +0.003 A 
ATOM     27  C   UNL     1       3.345   0.750  -0.077  0.00  0.00    -0.047 A 
ATOM     28  C   UNL     1       2.075   0.454  -0.534  0.00  0.00    +0.003 A 
ATOM     29  C   UNL     1       1.188   1.475  -0.820  0.00  0.00    +0.000 A 
ENDBRANCH  23  27
ENDBRANCH   1  23
BRANCH  11  30
ATOM     30  C   UNL     1       4.375  -4.044   2.982  0.00  0.00    -0.039 C 
BRANCH  30  31
ATOM     31  C   UNL     1       3.935  -3.834   1.556  0.00  0.00    -0.064 A 
ATOM     32  C   UNL     1       2.591  -3.708   1.259  0.00  0.00    +0.002 A 
ATOM     33  C   UNL     1       2.188  -3.515  -0.049  0.00  0.00    +0.000 A 
ATOM     34  C   UNL     1       3.129  -3.448  -1.060  0.00  0.00    +0.000 A 
ATOM     35  C   UNL     1       4.473  -3.572  -0.762  0.00  0.00    +0.000 A 
ATOM     36  C   UNL     1       4.876  -3.761   0.547  0.00  0.00    +0.002 A 
ENDBRANCH  30  31
ENDBRANCH  11  30
TORSDOF 7
