REMARK  Name = ZINC14967226
REMARK  7 active torsions:
REMARK  status: ('A' for Active; 'I' for Inactive)
REMARK    1  A    between atoms: C_1  and  C_2
REMARK    2  A    between atoms: C_2  and  O_3
REMARK    3  A    between atoms: O_3  and  C_4
REMARK    4  A    between atoms: C_4  and  C_6
REMARK    5  A    between atoms: C_14  and  C_24
REMARK    6  A    between atoms: C_24  and  N_25
REMARK    7  A    between atoms: N_25  and  C_26
REMARK                            x       y       z     vdW  Elec       q    Type
REMARK                         _______ _______ _______ _____ _____    ______ ____
ROOT
ATOM      1  C   UNL     1      -5.229  -0.834  -1.269  0.00  0.00    +0.115 C 
ATOM      2  C   UNL     1      -5.449  -1.633   0.018  0.00  0.00    +0.018 C 
ATOM      3  C   UNL     1      -5.651  -0.661   1.184  0.00  0.00    +0.020 C 
ATOM      4  C   UNL     1      -4.433   0.258   1.293  0.00  0.00    +0.106 C 
ATOM      5  N   UNL     1      -4.265   1.001   0.037  0.00  0.00    -0.314 N 
ATOM      6  C   UNL     1      -4.023   0.091  -1.090  0.00  0.00    +0.121 C 
ATOM      7  C   UNL     1      -3.250   1.939   0.146  0.00  0.00    +0.123 A 
ATOM      8  C   UNL     1      -3.543   3.293  -0.067  0.00  0.00    -0.024 A 
ATOM      9  C   UNL     1      -2.555   4.226   0.036  0.00  0.00    +0.015 A 
ATOM     10  C   UNL     1      -1.254   3.788   0.358  0.00  0.00    +0.001 A 
ATOM     11  C   UNL     1      -0.190   4.696   0.480  0.00  0.00    +0.011 A 
ATOM     12  C   UNL     1       1.054   4.238   0.792  0.00  0.00    +0.021 A 
ATOM     13  C   UNL     1       1.285   2.878   0.993  0.00  0.00    +0.043 A 
ATOM     14  C   UNL     1       0.275   1.971   0.883  0.00  0.00    +0.048 A 
ATOM     15  C   UNL     1      -1.021   2.406   0.556  0.00  0.00    +0.074 A 
ATOM     16  N   UNL     1      -2.032   1.536   0.447  0.00  0.00    -0.232 NA
ATOM     17 CL   UNL     1       2.885   2.332   1.389  0.00  0.00    -0.083 Cl
ENDROOT
BRANCH   1  18
ATOM     18  C   UNL     1      -4.971  -1.781  -2.413  0.00  0.00    +0.312 C 
ATOM     19  O   UNL     1      -3.929  -1.723  -3.022  0.00  0.00    -0.250 OA
BRANCH  18  20
ATOM     20  O   UNL     1      -5.899  -2.689  -2.754  0.00  0.00    -0.465 OA
BRANCH  20  22
ATOM     21  C   UNL     1      -6.750  -4.528  -4.105  0.00  0.00    +0.048 C 
ATOM     22  C   UNL     1      -5.582  -3.569  -3.865  0.00  0.00    +0.229 C 
ENDBRANCH  20  22
ENDBRANCH  18  20
ENDBRANCH   1  18
BRANCH   8  23
ATOM     23  C   UNL     1      -4.948   3.717  -0.410  0.00  0.00    -0.043 C 
BRANCH  23  24
ATOM     24  N   UNL     1      -5.768   3.727   0.809  0.00  0.00    +0.384 N 
ATOM     25  H   UNL     1      -5.855   2.702   1.200  0.00  0.00    -0.085 HD
ATOM     26  H   UNL     1      -5.292   4.368   1.566  0.00  0.00    -0.085 HD
BRANCH  24  27
ATOM     27  C   UNL     1      -7.115   4.243   0.533  0.00  0.00    -0.071 C 
ATOM     28  C   UNL     1      -7.132   5.779   0.676  0.00  0.00    -0.016 C 
ATOM     29  C   UNL     1      -8.512   6.086   1.308  0.00  0.00    -0.002 C 
ATOM     30  C   UNL     1      -8.700   4.916   2.305  0.00  0.00    -0.002 C 
ATOM     31  C   UNL     1      -8.112   3.694   1.569  0.00  0.00    -0.016 C 
ENDBRANCH  24  27
ENDBRANCH  23  24
ENDBRANCH   8  23
TORSDOF 6
