REMARK  Name = ZINC02946209
REMARK  13 active torsions:
REMARK  status: ('A' for Active; 'I' for Inactive)
REMARK    1  A    between atoms: C_1  and  C_2
REMARK    2  A    between atoms: C_6  and  O_38
REMARK    3  A    between atoms: C_7  and  O_36
REMARK    4  A    between atoms: N_12  and  C_13
REMARK    5  A    between atoms: C_13  and  C_14
REMARK    6  A    between atoms: C_16  and  C_22
REMARK    7  A    between atoms: C_19  and  O_20
REMARK    8  A    between atoms: O_20  and  C_21
REMARK    9  A    between atoms: N_23  and  N_24
REMARK   10  A    between atoms: C_25  and  C_27
REMARK   11  A    between atoms: C_32  and  N_33
REMARK   12  A    between atoms: O_36  and  C_37
REMARK   13  A    between atoms: O_38  and  C_39
REMARK                            x       y       z     vdW  Elec       q    Type
REMARK                         _______ _______ _______ _____ _____    ______ ____
ROOT
ATOM      1  C   UNL     1       2.627  -0.395   2.696  0.00  0.00    -0.022 A 
ATOM      2  C   UNL     1       3.566  -1.402   2.749  0.00  0.00    +0.014 A 
ATOM      3  C   UNL     1       4.245  -1.660   3.943  0.00  0.00    -0.005 A 
ATOM      4  C   UNL     1       3.967  -0.895   5.079  0.00  0.00    +0.013 A 
ATOM      5  C   UNL     1       3.026   0.110   5.017  0.00  0.00    +0.046 A 
ATOM      6  C   UNL     1       2.358   0.367   3.826  0.00  0.00    +0.121 A 
ENDROOT
BRANCH   6   7
ATOM      7  O   UNL     1       1.436   1.363   3.768  0.00  0.00    -0.495 OA
ATOM      8  C   UNL     1       1.208   2.107   4.966  0.00  0.00    +0.277 C 
ENDBRANCH   6   7
BRANCH   3   9
ATOM      9  C   UNL     1       5.250  -2.736   4.004  0.00  0.00    +0.138 C 
ATOM     10  N   UNL     1       5.878  -2.975   5.114  0.00  0.00    -0.187 NA
BRANCH  10  11
ATOM     11  N   UNL     1       6.834  -3.998   5.173  0.00  0.00    -0.203 N 
ATOM     12  C   UNL     1       7.487  -4.245   6.325  0.00  0.00    +0.265 C 
ATOM     13  O   UNL     1       7.247  -3.580   7.315  0.00  0.00    -0.268 OA
ATOM     14  H   UNL     1       7.025  -4.528   4.383  0.00  0.00    +0.178 HD
BRANCH  12  15
ATOM     15  C   UNL     1       8.495  -5.324   6.387  0.00  0.00    +0.068 A 
ATOM     16  C   UNL     1       8.153  -6.625   6.011  0.00  0.00    +0.015 A 
ATOM     17  C   UNL     1       9.098  -7.628   6.071  0.00  0.00    +0.001 A 
ATOM     18  C   UNL     1      10.383  -7.347   6.502  0.00  0.00    +0.002 A 
ATOM     19  C   UNL     1      10.728  -6.060   6.875  0.00  0.00    +0.033 A 
ATOM     20  C   UNL     1       9.794  -5.047   6.816  0.00  0.00    +0.138 A 
BRANCH  20  21
ATOM     21  N   UNL     1      10.166  -3.670   7.210  0.00  0.00    +0.057 N 
ATOM     22  O   UNL     1      11.249  -3.454   7.703  0.00  0.00    -0.126 OA
ATOM     23  O   UNL     1       9.388  -2.761   7.040  0.00  0.00    -0.126 OA
ENDBRANCH  20  21
ENDBRANCH  12  15
ENDBRANCH  10  11
ENDBRANCH   3   9
BRANCH   1  24
ATOM     24  C   UNL     1       1.895  -0.115   1.409  0.00  0.00    -0.038 C 
BRANCH  24  35
ATOM     25  C   UNL     1      -0.366   1.277   0.234  0.00  0.00    -0.008 C 
ATOM     26  C   UNL     1      -0.229  -0.245   0.303  0.00  0.00    -0.040 C 
ATOM     27  C   UNL     1      -1.600  -0.868   0.318  0.00  0.00    -0.054 A 
ATOM     28  C   UNL     1      -2.575  -0.339  -0.516  0.00  0.00    +0.051 A 
ATOM     29  C   UNL     1      -3.847  -0.882  -0.536  0.00  0.00    +0.162 A 
ATOM     30  C   UNL     1      -4.149  -1.965   0.285  0.00  0.00    +0.162 A 
ATOM     31  C   UNL     1      -3.174  -2.488   1.115  0.00  0.00    +0.053 A 
ATOM     32  C   UNL     1      -1.901  -1.939   1.133  0.00  0.00    -0.044 A 
ATOM     33  C   UNL     1      -0.872  -2.535   2.059  0.00  0.00    +0.017 C 
ATOM     34  C   UNL     1       0.526  -2.073   1.646  0.00  0.00    -0.073 C 
ATOM     35  N   UNL     1       0.515  -0.609   1.513  0.00  0.00    +0.387 N 
ATOM     36  H   UNL     1       0.069  -0.199   2.320  0.00  0.00    -0.080 HD
BRANCH  30  37
ATOM     37  O   UNL     1      -5.397  -2.506   0.270  0.00  0.00    -0.491 OA
ATOM     38  C   UNL     1      -5.633  -3.615   1.140  0.00  0.00    +0.277 C 
ENDBRANCH  30  37
BRANCH  29  39
ATOM     39  O   UNL     1      -4.799  -0.360  -1.356  0.00  0.00    -0.491 OA
ATOM     40  C   UNL     1      -4.416   0.750  -2.170  0.00  0.00    +0.277 C 
ENDBRANCH  29  39
ENDBRANCH  24  35
ENDBRANCH   1  24
TORSDOF 9
