REMARK  Name = ZINC64796313
REMARK  6 active torsions:
REMARK  status: ('A' for Active; 'I' for Inactive)
REMARK    1  A    between atoms: C_1  and  C_2
REMARK    2  A    between atoms: C_2  and  O_3
REMARK    3  A    between atoms: O_3  and  C_4
REMARK    4  A    between atoms: C_9  and  C_10
REMARK    5  A    between atoms: C_19  and  C_28
REMARK    6  A    between atoms: C_20  and  C_21
REMARK                            x       y       z     vdW  Elec       q    Type
REMARK                         _______ _______ _______ _____ _____    ______ ____
ROOT
ATOM      1  C   UNL     1      -3.981  -1.497   0.032  0.00  0.00    +0.070 C 
ATOM      2  C   UNL     1      -4.823  -1.784   1.281  0.00  0.00    +0.109 C 
ATOM      3  C   UNL     1      -5.606  -3.055   1.111  0.00  0.00    +0.218 C 
ATOM      4  O   UNL     1      -5.736  -3.788   2.069  0.00  0.00    -0.275 OA
ATOM      5  N   UNL     1      -6.168  -3.415  -0.055  0.00  0.00    -0.284 N 
ATOM      6  C   UNL     1      -5.854  -2.671  -1.228  0.00  0.00    +0.053 A 
ATOM      7  C   UNL     1      -4.827  -1.765  -1.177  0.00  0.00    +0.020 A 
ATOM      8  S   UNL     1      -4.744  -1.073  -2.690  0.00  0.00    -0.084 S 
ATOM      9  C   UNL     1      -6.053  -1.984  -3.489  0.00  0.00    +0.110 A 
ATOM     10  C   UNL     1      -6.509  -2.811  -2.450  0.00  0.00    +0.025 A 
ATOM     11  H   UNL     1      -6.777  -4.169  -0.097  0.00  0.00    +0.155 HD
ENDROOT
BRANCH  10  12
ATOM     12  C   UNL     1      -7.616  -3.775  -2.642  0.00  0.00    -0.015 A 
ATOM     13  C   UNL     1      -7.377  -5.145  -2.538  0.00  0.00    +0.011 A 
ATOM     14  C   UNL     1      -8.412  -6.039  -2.717  0.00  0.00    +0.039 A 
ATOM     15  C   UNL     1      -9.688  -5.578  -3.001  0.00  0.00    +0.123 A 
ATOM     16  C   UNL     1      -9.930  -4.217  -3.105  0.00  0.00    +0.039 A 
ATOM     17  C   UNL     1      -8.903  -3.315  -2.921  0.00  0.00    +0.011 A 
ATOM     18  F   UNL     1     -10.698  -6.457  -3.176  0.00  0.00    -0.205 F 
ENDBRANCH  10  12
BRANCH   1  24
ATOM     19  C   UNL     1      -1.498  -1.848   0.006  0.00  0.00    +0.124 A 
ATOM     20  C   UNL     1      -0.387  -2.679  -0.003  0.00  0.00    +0.046 A 
ATOM     21  C   UNL     1      -0.552  -4.051  -0.008  0.00  0.00    +0.004 A 
ATOM     22  C   UNL     1      -1.823  -4.596  -0.004  0.00  0.00    +0.001 A 
ATOM     23  C   UNL     1      -2.932  -3.769   0.004  0.00  0.00    +0.008 A 
ATOM     24  C   UNL     1      -2.772  -2.397   0.016  0.00  0.00    +0.003 A 
BRANCH  19  25
ATOM     25  O   UNL     1      -1.339  -0.499   0.012  0.00  0.00    -0.492 OA
BRANCH  25  27
ATOM     26  C   UNL     1      -0.019   1.526   0.010  0.00  0.00    +0.048 C 
ATOM     27  C   UNL     1       0.002  -0.004   0.002  0.00  0.00    +0.225 C 
ENDBRANCH  25  27
ENDBRANCH  19  25
ENDBRANCH   1  24
BRANCH   9  28
ATOM     28  C   UNL     1      -6.514  -1.894  -4.821  0.00  0.00    +0.394 C 
ATOM     29  O   UNL     1      -5.991  -1.103  -5.599  0.00  0.00    -0.240 OA
ATOM     30  O   UNL     1      -7.437  -2.606  -5.200  0.00  0.00    -0.240 OA
ENDBRANCH   9  28
TORSDOF 5
