REMARK  Name = ZINC08997525
REMARK  3 active torsions:
REMARK  status: ('A' for Active; 'I' for Inactive)
REMARK    1  A    between atoms: C_4  and  C_7
REMARK    2  A    between atoms: C_7  and  N_8
REMARK    3  A    between atoms: N_23  and  C_26
REMARK                            x       y       z     vdW  Elec       q    Type
REMARK                         _______ _______ _______ _____ _____    ______ ____
ROOT
ATOM      1  N   UNL     1       4.118  -0.995   1.353  0.00  0.00    -0.220 N 
ATOM      2  C   UNL     1       4.887  -0.074   1.949  0.00  0.00    +0.241 C 
ATOM      3  O   UNL     1       5.190   0.926   1.334  0.00  0.00    -0.274 OA
ATOM      4  C   UNL     1       5.386  -0.243   3.357  0.00  0.00    +0.147 C 
ATOM      5  C   UNL     1       6.917  -0.229   3.357  0.00  0.00    +0.064 C 
ATOM      6  C   UNL     1       7.403  -0.300   4.781  0.00  0.00    -0.025 A 
ATOM      7  C   UNL     1       8.626  -0.886   5.056  0.00  0.00    +0.005 A 
ATOM      8  C   UNL     1       9.076  -0.965   6.360  0.00  0.00    +0.000 A 
ATOM      9  C   UNL     1       8.306  -0.462   7.392  0.00  0.00    +0.002 A 
ATOM     10  C   UNL     1       7.087   0.126   7.122  0.00  0.00    +0.023 A 
ATOM     11  C   UNL     1       6.633   0.213   5.809  0.00  0.00    +0.033 A 
ATOM     12  N   UNL     1       5.400   0.843   5.564  0.00  0.00    -0.322 N 
ATOM     13  C   UNL     1       4.863   0.915   4.217  0.00  0.00    +0.115 C 
ATOM     14  C   UNL     1       3.345   0.898   4.165  0.00  0.00    +0.129 C 
ATOM     15  N   UNL     1       2.730   1.528   5.316  0.00  0.00    -0.327 N 
ATOM     16  C   UNL     1       3.231   1.343   6.668  0.00  0.00    +0.124 C 
ATOM     17  C   UNL     1       4.741   1.453   6.717  0.00  0.00    +0.124 C 
ATOM     18  C   UNL     1       4.901  -1.544   3.935  0.00  0.00    +0.238 C 
ATOM     19  O   UNL     1       5.215  -1.837   5.068  0.00  0.00    -0.274 OA
ATOM     20  N   UNL     1       4.131  -2.388   3.235  0.00  0.00    -0.239 N 
ATOM     21  C   UNL     1       3.744  -2.121   1.979  0.00  0.00    +0.315 C 
ATOM     22  O   UNL     1       3.041  -2.920   1.392  0.00  0.00    -0.252 OA
ATOM     23  H   UNL     1       3.841  -3.215   3.651  0.00  0.00    +0.159 HD
ENDROOT
BRANCH  15  24
ATOM     24  C   UNL     1       1.614   2.344   5.119  0.00  0.00    +0.030 A 
ATOM     25  C   UNL     1       0.935   2.871   6.210  0.00  0.00    +0.023 A 
ATOM     26  C   UNL     1      -0.168   3.678   6.012  0.00  0.00    +0.002 A 
ATOM     27  C   UNL     1      -0.597   3.962   4.728  0.00  0.00    +0.000 A 
ATOM     28  C   UNL     1       0.077   3.440   3.639  0.00  0.00    +0.002 A 
ATOM     29  C   UNL     1       1.184   2.636   3.831  0.00  0.00    +0.023 A 
ENDBRANCH  15  24
BRANCH   1  30
ATOM     30  C   UNL     1       3.668  -0.763  -0.022  0.00  0.00    +0.153 C 
BRANCH  30  34
ATOM     31  C   UNL     1      -0.056   1.330   0.032  0.00  0.00    +0.000 A 
ATOM     32  C   UNL     1       1.133   2.035   0.008  0.00  0.00    +0.000 A 
ATOM     33  C   UNL     1       2.338   1.358  -0.009  0.00  0.00    +0.005 A 
ATOM     34  C   UNL     1       2.354  -0.025  -0.002  0.00  0.00    -0.030 A 
ATOM     35  C   UNL     1       1.165  -0.730   0.022  0.00  0.00    +0.005 A 
ATOM     36  C   UNL     1      -0.040  -0.052   0.038  0.00  0.00    +0.000 A 
ENDBRANCH  30  34
ENDBRANCH   1  30
TORSDOF 3
