REMARK  Name = ZINC19592407
REMARK  7 active torsions:
REMARK  status: ('A' for Active; 'I' for Inactive)
REMARK    1  A    between atoms: C_1  and  O_2
REMARK    2  A    between atoms: O_2  and  C_3
REMARK    3  A    between atoms: C_3  and  C_5
REMARK    4  A    between atoms: C_5  and  C_34
REMARK    5  A    between atoms: C_10  and  C_13
REMARK    6  A    between atoms: C_16  and  O_19
REMARK    7  A    between atoms: N_22  and  C_25
REMARK                            x       y       z     vdW  Elec       q    Type
REMARK                         _______ _______ _______ _____ _____    ______ ____
ROOT
ATOM      1  C   UNL     1      -1.244  -2.135   0.003  0.00  0.00    +0.155 C 
ATOM      2  C   UNL     1      -2.506  -2.643   0.680  0.00  0.00    +0.125 C 
ATOM      3  C   UNL     1      -1.954  -4.027   1.195  0.00  0.00    +0.112 C 
ATOM      4  C   UNL     1      -0.686  -3.632   1.832  0.00  0.00    +0.098 C 
ATOM      5  N   UNL     1      -0.110  -2.673   0.813  0.00  0.00    -0.290 NA
ATOM      6  C   UNL     1      -3.173  -4.733   1.501  0.00  0.00    +0.232 C 
ATOM      7  O   UNL     1      -3.356  -5.537   2.390  0.00  0.00    -0.274 OA
ATOM      8  N   UNL     1      -4.082  -4.297   0.569  0.00  0.00    -0.210 N 
ATOM      9  C   UNL     1      -3.657  -3.179  -0.113  0.00  0.00    +0.233 C 
ATOM     10  O   UNL     1      -4.111  -2.722  -1.140  0.00  0.00    -0.274 OA
ATOM     11  H   UNL     1       0.572  -3.128   0.224  0.00  0.00    +0.124 HD
ENDROOT
BRANCH   8  12
ATOM     12  C   UNL     1      -5.319  -4.919   0.339  0.00  0.00    +0.048 A 
ATOM     13  C   UNL     1      -6.178  -4.417  -0.628  0.00  0.00    +0.028 A 
ATOM     14  C   UNL     1      -7.396  -5.029  -0.856  0.00  0.00    +0.051 A 
ATOM     15  C   UNL     1      -7.763  -6.143  -0.120  0.00  0.00    +0.166 A 
ATOM     16  C   UNL     1      -6.903  -6.648   0.852  0.00  0.00    +0.168 A 
ATOM     17  C   UNL     1      -5.680  -6.038   1.076  0.00  0.00    +0.073 A 
ATOM     18  O   UNL     1      -7.489  -7.737   1.431  0.00  0.00    -0.453 OA
ATOM     19  C   UNL     1      -8.885  -7.649   1.090  0.00  0.00    +0.466 C 
ATOM     20  O   UNL     1      -8.889  -6.916  -0.150  0.00  0.00    -0.453 OA
ENDBRANCH   8  12
BRANCH   4  21
ATOM     21  C   UNL     1      -0.940  -2.955   3.154  0.00  0.00    -0.029 A 
ATOM     22  C   UNL     1      -1.318  -1.626   3.188  0.00  0.00    +0.009 A 
ATOM     23  C   UNL     1      -1.551  -1.003   4.399  0.00  0.00    +0.046 A 
ATOM     24  C   UNL     1      -1.405  -1.713   5.582  0.00  0.00    +0.117 A 
ATOM     25  C   UNL     1      -1.026  -3.047   5.546  0.00  0.00    +0.046 A 
ATOM     26  C   UNL     1      -0.799  -3.666   4.332  0.00  0.00    +0.009 A 
BRANCH  24  27
ATOM     27  O   UNL     1      -1.633  -1.102   6.774  0.00  0.00    -0.507 OA
ATOM     28  H   UNL     1      -2.548  -1.166   7.080  0.00  0.00    +0.292 HD
ENDBRANCH  24  27
ENDBRANCH   4  21
BRANCH   1  29
ATOM     29  C   UNL     1      -1.165  -2.652  -1.411  0.00  0.00    -0.016 A 
ATOM     30  C   UNL     1      -1.749  -1.939  -2.441  0.00  0.00    +0.006 A 
ATOM     31  C   UNL     1      -1.677  -2.413  -3.738  0.00  0.00    +0.000 A 
ATOM     32  C   UNL     1      -1.020  -3.600  -4.004  0.00  0.00    +0.000 A 
ATOM     33  C   UNL     1      -0.435  -4.313  -2.974  0.00  0.00    +0.000 A 
ATOM     34  C   UNL     1      -0.504  -3.837  -1.678  0.00  0.00    +0.006 A 
ENDBRANCH   1  29
BRANCH   1  35
ATOM     35  C   UNL     1      -1.220  -0.629   0.008  0.00  0.00    +0.333 C 
ATOM     36  O   UNL     1      -2.256  -0.008   0.029  0.00  0.00    -0.248 OA
BRANCH  35  38
ATOM     37  C   UNL     1      -0.099   1.452  -0.005  0.00  0.00    +0.280 C 
ATOM     38  O   UNL     1      -0.047   0.024  -0.011  0.00  0.00    -0.466 OA
ENDBRANCH  35  38
ENDBRANCH   1  35
TORSDOF 6
