REMARK  Name = ZINC59443680
REMARK  11 active torsions:
REMARK  status: ('A' for Active; 'I' for Inactive)
REMARK    1  A    between atoms: C_1  and  C_2
REMARK    2  A    between atoms: N_4  and  C_5
REMARK    3  A    between atoms: C_8  and  S_11
REMARK    4  A    between atoms: S_11  and  N_14
REMARK    5  A    between atoms: N_14  and  C_15
REMARK    6  A    between atoms: N_14  and  C_22
REMARK    7  A    between atoms: C_15  and  C_16
REMARK    8  A    between atoms: C_22  and  C_23
REMARK    9  A    between atoms: N_25  and  N_26
REMARK   10  A    between atoms: C_27  and  C_28
REMARK   11  A    between atoms: C_31  and  N_34
REMARK                            x       y       z     vdW  Elec       q    Type
REMARK                         _______ _______ _______ _____ _____    ______ ____
ROOT
ATOM      1  N   UNL     1      -1.903  -7.000  -1.012  0.00  0.00    -0.163 NA
ENDROOT
BRANCH   1   2
ATOM      2  S   UNL     1      -0.300  -6.589  -0.966  0.00  0.00    +0.062 S 
ATOM      3  O   UNL     1       0.277  -7.066  -2.173  0.00  0.00    -0.153 OA
ATOM      4  O   UNL     1       0.182  -6.976   0.314  0.00  0.00    -0.153 OA
BRANCH   2   8
ATOM      5  C   UNL     1      -0.071  -2.068  -1.121  0.00  0.00    +0.033 A 
ATOM      6  C   UNL     1      -0.152  -2.719   0.103  0.00  0.00    +0.025 A 
ATOM      7  C   UNL     1      -0.222  -4.098   0.147  0.00  0.00    +0.030 A 
ATOM      8  C   UNL     1      -0.211  -4.830  -1.026  0.00  0.00    +0.106 A 
ATOM      9  C   UNL     1      -0.130  -4.185  -2.246  0.00  0.00    +0.030 A 
ATOM     10  C   UNL     1      -0.066  -2.806  -2.297  0.00  0.00    +0.025 A 
BRANCH   5  14
ATOM     11  C   UNL     1      -0.617   1.507  -2.165  0.00  0.00    +0.109 C 
ATOM     12  C   UNL     1      -0.604  -0.000  -2.169  0.00  0.00    +0.214 C 
ATOM     13  O   UNL     1      -1.137  -0.609  -3.073  0.00  0.00    -0.276 OA
ATOM     14  N   UNL     1       0.000  -0.672  -1.169  0.00  0.00    -0.286 N 
ATOM     15  H   UNL     1       0.484  -0.187  -0.482  0.00  0.00    +0.155 HD
ENDBRANCH   5  14
ENDBRANCH   2   8
ENDBRANCH   1   2
BRANCH   1  16
ATOM     16  C   UNL     1      -2.565  -7.227  -2.299  0.00  0.00    +0.145 C 
BRANCH  16  17
ATOM     17  C   UNL     1      -2.548  -8.700  -2.619  0.00  0.00    -0.032 A 
ATOM     18  C   UNL     1      -1.489  -9.243  -3.322  0.00  0.00    +0.005 A 
ATOM     19  C   UNL     1      -1.474 -10.594  -3.615  0.00  0.00    +0.000 A 
ATOM     20  C   UNL     1      -2.518 -11.402  -3.204  0.00  0.00    +0.000 A 
ATOM     21  C   UNL     1      -3.576 -10.859  -2.500  0.00  0.00    +0.000 A 
ATOM     22  C   UNL     1      -3.589  -9.509  -2.203  0.00  0.00    +0.005 A 
ENDBRANCH  16  17
ENDBRANCH   1  16
BRANCH   1  23
ATOM     23  C   UNL     1      -2.661  -7.135   0.235  0.00  0.00    +0.207 C 
BRANCH  23  24
ATOM     24  C   UNL     1      -3.372  -5.840   0.534  0.00  0.00    +0.248 C 
ATOM     25  O   UNL     1      -3.256  -4.897  -0.219  0.00  0.00    -0.273 OA
ATOM     26  N   UNL     1      -4.135  -5.731   1.640  0.00  0.00    -0.206 N 
ATOM     27  H   UNL     1      -4.227  -6.485   2.242  0.00  0.00    +0.177 HD
BRANCH  26  28
ATOM     28  N   UNL     1      -4.795  -4.527   1.918  0.00  0.00    -0.188 NA
ATOM     29  C   UNL     1      -5.530  -4.421   2.982  0.00  0.00    +0.138 C 
BRANCH  29  30
ATOM     30  C   UNL     1      -6.226  -3.154   3.276  0.00  0.00    -0.005 A 
ATOM     31  C   UNL     1      -6.100  -2.067   2.407  0.00  0.00    +0.012 A 
ATOM     32  C   UNL     1      -6.753  -0.885   2.687  0.00  0.00    +0.033 A 
ATOM     33  C   UNL     1      -7.531  -0.774   3.826  0.00  0.00    +0.126 A 
ATOM     34  C   UNL     1      -7.660  -1.847   4.691  0.00  0.00    +0.033 A 
ATOM     35  C   UNL     1      -7.018  -3.037   4.420  0.00  0.00    +0.012 A 
BRANCH  33  36
ATOM     36  N   UNL     1      -8.229   0.498   4.121  0.00  0.00    +0.056 N 
ATOM     37  O   UNL     1      -8.118   1.436   3.367  0.00  0.00    -0.126 OA
ATOM     38  O   UNL     1      -8.909   0.598   5.115  0.00  0.00    -0.126 OA
ENDBRANCH  33  36
ENDBRANCH  29  30
ENDBRANCH  26  28
ENDBRANCH  23  24
ENDBRANCH   1  23
TORSDOF 10
