REMARK  Name = ZINC19910785
REMARK  5 active torsions:
REMARK  status: ('A' for Active; 'I' for Inactive)
REMARK    1  A    between atoms: C_1  and  C_2
REMARK    2  A    between atoms: C_2  and  C_8
REMARK    3  A    between atoms: N_3  and  N_4
REMARK    4  A    between atoms: C_14  and  C_32
REMARK    5  A    between atoms: C_25  and  C_31
REMARK                            x       y       z     vdW  Elec       q    Type
REMARK                         _______ _______ _______ _____ _____    ______ ____
ROOT
ATOM      1  C   UNL     1      -3.572   1.735   0.039  0.00  0.00    +0.041 C 
ATOM      2  C   UNL     1      -4.307   1.605  -1.315  0.00  0.00    +0.010 C 
ATOM      3  C   UNL     1      -5.256   2.824  -1.363  0.00  0.00    +0.005 C 
ATOM      4  C   UNL     1      -4.741   3.807  -0.314  0.00  0.00    -0.001 C 
ATOM      5  C   UNL     1      -3.394   3.274   0.198  0.00  0.00    -0.021 C 
ATOM      6  C   UNL     1      -2.255   3.711  -0.715  0.00  0.00    +0.008 C 
ATOM      7  C   UNL     1      -2.223   5.214  -0.929  0.00  0.00    +0.005 C 
ATOM      8  C   UNL     1      -3.535   5.789  -1.436  0.00  0.00    -0.001 C 
ATOM      9  C   UNL     1      -4.739   5.251  -0.721  0.00  0.00    -0.004 C 
ATOM     10  C   UNL     1      -6.075   5.671  -1.321  0.00  0.00    +0.004 C 
ATOM     11  C   UNL     1      -6.081   5.594  -2.842  0.00  0.00    +0.005 C 
ATOM     12  C   UNL     1      -4.931   6.427  -3.404  0.00  0.00    +0.002 C 
ATOM     13  C   UNL     1      -3.591   5.840  -2.957  0.00  0.00    -0.025 C 
ATOM     14  C   UNL     1      -2.469   6.775  -3.444  0.00  0.00    +0.015 C 
ATOM     15  C   UNL     1      -2.452   6.860  -4.968  0.00  0.00    +0.075 C 
ATOM     16  C   UNL     1      -3.829   7.223  -5.473  0.00  0.00    +0.134 C 
ATOM     17  O   UNL     1      -3.973   8.093  -6.301  0.00  0.00    -0.297 OA
ATOM     18  C   UNL     1      -5.023   6.473  -4.928  0.00  0.00    +0.078 C 
ATOM     19  C   UNL     1      -3.375   4.465  -3.580  0.00  0.00    +0.012 C 
ATOM     20  C   UNL     1      -3.143   3.662   1.662  0.00  0.00    +0.012 C 
ENDROOT
BRANCH   1  22
ATOM     21  C   UNL     1      -1.429   0.903   1.265  0.00  0.00    +0.062 C 
ATOM     22  C   UNL     1      -2.257   1.010   0.011  0.00  0.00    +0.037 C 
ATOM     23  N   UNL     1      -1.839   0.484  -1.079  0.00  0.00    -0.188 NA
BRANCH  23  24
ATOM     24  N   UNL     1      -0.612  -0.192  -1.105  0.00  0.00    -0.191 N 
ATOM     25  C   UNL     1      -0.175  -0.750  -2.251  0.00  0.00    +0.317 C 
ATOM     26  O   UNL     1       0.888  -1.341  -2.272  0.00  0.00    -0.251 OA
ATOM     27  N   UNL     1      -0.915  -0.654  -3.373  0.00  0.00    -0.312 N 
ATOM     28  H   UNL     1      -0.006  -0.266  -0.190  0.00  0.00    +0.179 HD
ATOM     29  H   UNL     1      -0.558  -1.111  -4.308  0.00  0.00    +0.147 HD
ATOM     30  H   UNL     1      -1.876  -0.120  -3.354  0.00  0.00    +0.147 HD
ENDBRANCH  23  24
ENDBRANCH   1  22
TORSDOF 2
