REMARK  Name = ZINC20560224
REMARK  9 active torsions:
REMARK  status: ('A' for Active; 'I' for Inactive)
REMARK    1  A    between atoms: C_1  and  C_2
REMARK    2  A    between atoms: C_2  and  O_3
REMARK    3  A    between atoms: O_3  and  C_4
REMARK    4  A    between atoms: C_4  and  C_6
REMARK    5  A    between atoms: C_7  and  C_21
REMARK    6  A    between atoms: C_12  and  C_14
REMARK    7  A    between atoms: C_17  and  C_20
REMARK    8  A    between atoms: C_21  and  N_22
REMARK    9  A    between atoms: C_25  and  C_28
REMARK                            x       y       z     vdW  Elec       q    Type
REMARK                         _______ _______ _______ _____ _____    ______ ____
ROOT
ATOM      1  C   UNL     1      -3.169   3.770   1.580  0.00  0.00    +0.076 C 
ATOM      2  C   UNL     1      -4.486   3.469   1.592  0.00  0.00    +0.008 C 
ATOM      3  N   UNL     1      -5.120   3.035   0.463  0.00  0.00    -0.274 N 
ATOM      4  C   UNL     1      -4.508   2.875  -0.717  0.00  0.00    +0.304 C 
ATOM      5  O   UNL     1      -5.157   2.482  -1.667  0.00  0.00    -0.252 OA
ATOM      6  N   UNL     1      -3.197   3.134  -0.886  0.00  0.00    -0.288 N 
ATOM      7  C   UNL     1      -2.421   3.608   0.272  0.00  0.00    +0.143 C 
ATOM      8  H   UNL     1      -6.193   2.795   0.493  0.00  0.00    +0.156 HD
ATOM      9  H   UNL     1      -2.704   2.999  -1.861  0.00  0.00    +0.151 HD
ENDROOT
BRANCH   7  10
ATOM     10  C   UNL     1      -1.289   2.641   0.501  0.00  0.00    -0.022 A 
ATOM     11  C   UNL     1      -1.533   1.280   0.505  0.00  0.00    +0.006 A 
ATOM     12  C   UNL     1      -0.495   0.393   0.720  0.00  0.00    +0.004 A 
ATOM     13  C   UNL     1       0.789   0.865   0.920  0.00  0.00    -0.050 A 
ATOM     14  C   UNL     1       1.034   2.226   0.910  0.00  0.00    +0.004 A 
ATOM     15  C   UNL     1      -0.005   3.114   0.701  0.00  0.00    +0.006 A 
ATOM     16  C   UNL     1       1.921  -0.102   1.148  0.00  0.00    +0.044 C 
ENDBRANCH   7  10
BRANCH   1  17
ATOM     17  C   UNL     1      -2.511   4.219   2.748  0.00  0.00    +0.339 C 
ATOM     18  O   UNL     1      -3.096   4.216   3.815  0.00  0.00    -0.245 OA
BRANCH  17  19
ATOM     19  O   UNL     1      -1.235   4.651   2.680  0.00  0.00    -0.462 OA
BRANCH  19  21
ATOM     20  C   UNL     1       0.804   5.540   3.625  0.00  0.00    +0.048 C 
ATOM     21  C   UNL     1      -0.632   5.091   3.899  0.00  0.00    +0.229 C 
ENDBRANCH  19  21
ENDBRANCH  17  19
ENDBRANCH   1  17
BRANCH   2  22
ATOM     22  C   UNL     1      -5.268   3.616   2.871  0.00  0.00    -0.026 C 
BRANCH  22  23
ATOM     23  N   UNL     1      -5.076   2.420   3.703  0.00  0.00    +0.383 N 
ATOM     24  C   UNL     1      -5.661   1.235   3.063  0.00  0.00    -0.078 C 
ATOM     25  C   UNL     1      -5.317  -0.011   3.882  0.00  0.00    -0.016 C 
ATOM     26  C   UNL     1      -5.867   0.150   5.302  0.00  0.00    -0.018 C 
ATOM     27  C   UNL     1      -5.279   1.417   5.928  0.00  0.00    -0.016 C 
ATOM     28  C   UNL     1      -5.624   2.622   5.050  0.00  0.00    -0.078 C 
ATOM     29  C   UNL     1      -5.473  -1.066   6.144  0.00  0.00    +0.007 C 
ATOM     30  H   UNL     1      -3.994   2.247   3.804  0.00  0.00    -0.081 HD
ENDBRANCH  22  23
ENDBRANCH   2  22
TORSDOF 6
