REMARK  Name = ZINC13222285
REMARK  13 active torsions:
REMARK  status: ('A' for Active; 'I' for Inactive)
REMARK    1  A    between atoms: C_1  and  C_2
REMARK    2  A    between atoms: C_4  and  C_32
REMARK    3  A    between atoms: C_5  and  N_9
REMARK    4  A    between atoms: C_6  and  C_8
REMARK    5  A    between atoms: C_10  and  C_12
REMARK    6  A    between atoms: C_12  and  N_13
REMARK    7  A    between atoms: C_14  and  C_16
REMARK    8  A    between atoms: C_16  and  S_17
REMARK    9  A    between atoms: S_17  and  C_18
REMARK   10  A    between atoms: C_22  and  C_31
REMARK   11  A    between atoms: C_23  and  C_28
REMARK   12  A    between atoms: C_24  and  C_27
REMARK   13  A    between atoms: C_28  and  C_29
REMARK                            x       y       z     vdW  Elec       q    Type
REMARK                         _______ _______ _______ _____ _____    ______ ____
ROOT
ATOM      1  N   UNL     1      -8.847  -6.804   1.082  0.00  0.00    -0.306 N 
ATOM      2  C   UNL     1      -7.963  -6.244   1.931  0.00  0.00    +0.224 C 
ATOM      3  O   UNL     1      -8.349  -5.749   2.970  0.00  0.00    -0.275 OA
ATOM      4  H   UNL     1      -8.539  -7.199   0.252  0.00  0.00    +0.149 HD
ENDROOT
BRANCH   1   5
ATOM      5  C   UNL     1     -10.274  -6.816   1.414  0.00  0.00    +0.200 C 
BRANCH   5   7
ATOM      6  N   UNL     1     -12.380  -7.624   0.397  0.00  0.00    -0.284 N 
ATOM      7  C   UNL     1     -11.041  -7.496   0.309  0.00  0.00    +0.234 C 
ATOM      8  O   UNL     1     -10.453  -7.927  -0.661  0.00  0.00    -0.274 OA
ATOM      9  H   UNL     1     -12.844  -7.326   1.195  0.00  0.00    +0.155 HD
BRANCH   6  14
ATOM     10  C   UNL     1     -15.303  -9.902  -3.898  0.00  0.00    +0.044 C 
ATOM     11  C   UNL     1     -14.526  -9.297  -2.757  0.00  0.00    -0.050 A 
ATOM     12  C   UNL     1     -14.688  -9.789  -1.475  0.00  0.00    +0.008 A 
ATOM     13  C   UNL     1     -13.978  -9.236  -0.427  0.00  0.00    -0.029 A 
ATOM     14  C   UNL     1     -13.100  -8.186  -0.662  0.00  0.00    +0.039 A 
ATOM     15  C   UNL     1     -12.944  -7.691  -1.951  0.00  0.00    -0.029 A 
ATOM     16  C   UNL     1     -13.653  -8.251  -2.995  0.00  0.00    +0.008 A 
ATOM     17  C   UNL     1     -11.997  -6.548  -2.209  0.00  0.00    +0.045 C 
ATOM     18  C   UNL     1     -14.155  -9.773   0.970  0.00  0.00    +0.045 C 
ENDBRANCH   6  14
ENDBRANCH   5   7
ENDBRANCH   1   5
BRANCH   2  19
ATOM     19  C   UNL     1      -6.495  -6.231   1.590  0.00  0.00    +0.173 C 
BRANCH  19  20
ATOM     20  S   UNL     1      -5.572  -5.413   2.921  0.00  0.00    -0.075 S 
BRANCH  20  21
ATOM     21  C   UNL     1      -3.897  -5.478   2.380  0.00  0.00    +0.211 A 
ATOM     22  N   UNL     1      -3.478  -6.022   1.239  0.00  0.00    -0.183 NA
ATOM     23  C   UNL     1      -2.158  -5.900   1.143  0.00  0.00    +0.254 A 
ATOM     24  N   UNL     1      -1.284  -6.279   0.204  0.00  0.00    -0.216 NA
ATOM     25  C   UNL     1       0.001  -6.035   0.340  0.00  0.00    +0.047 A 
ATOM     26  C   UNL     1       0.477  -5.381   1.482  0.00  0.00    +0.006 A 
ATOM     27  C   UNL     1      -0.404  -4.992   2.441  0.00  0.00    +0.049 A 
ATOM     28  N   UNL     1      -1.725  -5.255   2.267  0.00  0.00    -0.200 N 
ATOM     29  N   UNL     1      -2.864  -4.997   3.042  0.00  0.00    -0.137 NA
ATOM     30  C   UNL     1       0.079  -4.280   3.678  0.00  0.00    +0.066 C 
ATOM     31  C   UNL     1       0.965  -6.467  -0.735  0.00  0.00    +0.066 C 
BRANCH  26  32
ATOM     32  C   UNL     1       1.950  -5.105   1.643  0.00  0.00    +0.163 C 
BRANCH  32  33
ATOM     33  C   UNL     1       2.603  -6.263   2.353  0.00  0.00    +0.360 C 
ATOM     34  O   UNL     1       1.941  -7.215   2.692  0.00  0.00    -0.246 OA
ATOM     35  O   UNL     1       3.922  -6.240   2.602  0.00  0.00    -0.246 OA
ENDBRANCH  32  33
ENDBRANCH  26  32
ENDBRANCH  20  21
ENDBRANCH  19  20
ENDBRANCH   2  19
TORSDOF 8
