REMARK  Name = ZINC17016156
REMARK  3 active torsions:
REMARK  status: ('A' for Active; 'I' for Inactive)
REMARK    1  A    between atoms: C_1  and  C_2
REMARK    2  A    between atoms: N_28  and  C_31
REMARK    3  A    between atoms: C_31  and  C_32
REMARK                            x       y       z     vdW  Elec       q    Type
REMARK                         _______ _______ _______ _____ _____    ______ ____
ROOT
ATOM      1  C   UNL     1       8.014   2.400  -0.841  0.00  0.00    +0.047 C 
ATOM      2  C   UNL     1       7.473   2.707   0.531  0.00  0.00    -0.009 A 
ATOM      3  C   UNL     1       8.289   2.646   1.621  0.00  0.00    +0.008 A 
ATOM      4  C   UNL     1       7.770   2.937   2.891  0.00  0.00    +0.019 A 
ATOM      5  C   UNL     1       6.470   3.276   3.032  0.00  0.00    +0.096 A 
ATOM      6  N   UNL     1       5.644   3.335   1.950  0.00  0.00    -0.269 N 
ATOM      7  C   UNL     1       6.120   3.059   0.698  0.00  0.00    +0.122 A 
ATOM      8  N   UNL     1       5.322   3.114  -0.362  0.00  0.00    -0.329 N 
ATOM      9  C   UNL     1       4.028   3.431  -0.250  0.00  0.00    +0.109 A 
ATOM     10  C   UNL     1       3.506   3.714   1.005  0.00  0.00    +0.057 A 
ATOM     11  C   UNL     1       4.346   3.664   2.117  0.00  0.00    +0.263 A 
ATOM     12  O   UNL     1       3.912   3.917   3.231  0.00  0.00    -0.267 OA
ATOM     13  C   UNL     1       2.055   4.070   1.202  0.00  0.00    +0.071 C 
ATOM     14  C   UNL     1       1.251   3.611  -0.020  0.00  0.00    +0.146 C 
ATOM     15  C   UNL     1       1.992   4.094  -1.273  0.00  0.00    +0.099 C 
ATOM     16  N   UNL     1       3.258   3.456  -1.391  0.00  0.00    -0.312 N 
ATOM     17  C   UNL     1       4.043   3.720  -2.593  0.00  0.00    +0.107 C 
ATOM     18  C   UNL     1       3.419   2.991  -3.792  0.00  0.00    +0.019 C 
ATOM     19  C   UNL     1       2.510   3.951  -4.547  0.00  0.00    +0.002 C 
ATOM     20  C   UNL     1       1.649   4.823  -3.642  0.00  0.00    +0.002 C 
ATOM     21  C   UNL     1       1.089   3.973  -2.494  0.00  0.00    +0.024 C 
ATOM     22  C   UNL     1      -0.122   4.214   0.022  0.00  0.00    +0.238 C 
ATOM     23  O   UNL     1      -0.236   5.421   0.026  0.00  0.00    -0.274 OA
ATOM     24  N   UNL     1      -1.227   3.454   0.057  0.00  0.00    -0.239 N 
ATOM     25  C   UNL     1      -1.167   2.114   0.046  0.00  0.00    +0.315 C 
ATOM     26  O   UNL     1      -2.200   1.475   0.078  0.00  0.00    -0.252 OA
ATOM     27  N   UNL     1       0.004   1.461   0.008  0.00  0.00    -0.220 N 
ATOM     28  C   UNL     1       1.176   2.111  -0.031  0.00  0.00    +0.240 C 
ATOM     29  O   UNL     1       2.204   1.469  -0.075  0.00  0.00    -0.274 OA
ATOM     30  H   UNL     1      -2.219   3.928   0.095  0.00  0.00    +0.159 HD
ATOM     31  H   UNL     1       5.722   2.897  -1.363  0.00  0.00    +0.168 HD
ENDROOT
BRANCH  27  32
ATOM     32  C   UNL     1       0.002  -0.004   0.002  0.00  0.00    +0.154 C 
BRANCH  32  33
ATOM     33  C   UNL     1       0.146  -0.512   1.413  0.00  0.00    -0.011 A 
ATOM     34  C   UNL     1       0.132   0.376   2.473  0.00  0.00    +0.006 A 
ATOM     35  C   UNL     1       0.259  -0.091   3.768  0.00  0.00    +0.000 A 
ATOM     36  C   UNL     1       0.412  -1.444   4.003  0.00  0.00    +0.001 A 
ATOM     37  C   UNL     1       0.432  -2.333   2.945  0.00  0.00    +0.020 A 
ATOM     38  C   UNL     1       0.299  -1.867   1.649  0.00  0.00    +0.046 A 
ATOM     39 CL   UNL     1       0.324  -2.982   0.318  0.00  0.00    -0.083 Cl
ENDBRANCH  32  33
ENDBRANCH  27  32
TORSDOF 2
