REMARK  Name = ZINC64701008
REMARK  5 active torsions:
REMARK  status: ('A' for Active; 'I' for Inactive)
REMARK    1  A    between atoms: C_6  and  C_7
REMARK    2  A    between atoms: C_15  and  S_19
REMARK    3  A    between atoms: S_19  and  C_20
REMARK    4  A    between atoms: C_20  and  C_21
REMARK    5  A    between atoms: N_23  and  C_24
REMARK                            x       y       z     vdW  Elec       q    Type
REMARK                         _______ _______ _______ _____ _____    ______ ____
ROOT
ATOM      1  C   UNL     1      -1.261  -0.732   0.020  0.00  0.00    +0.047 C 
ATOM      2  C   UNL     1      -1.356  -2.082   0.020  0.00  0.00    +0.027 C 
ATOM      3  C   UNL     1      -2.836  -2.350   0.047  0.00  0.00    +0.193 C 
ATOM      4  C   UNL     1      -3.329  -3.469  -0.819  0.00  0.00    +0.276 C 
ATOM      5  O   UNL     1      -2.650  -4.441  -1.054  0.00  0.00    -0.270 OA
ATOM      6  N   UNL     1      -4.581  -3.331  -1.326  0.00  0.00    -0.081 NA
ATOM      7  N   UNL     1      -5.260  -2.309  -1.201  0.00  0.00    -0.163 NA
ATOM      8  C   UNL     1      -4.780  -1.093  -0.519  0.00  0.00    +0.272 C 
ATOM      9  N   UNL     1      -3.338  -1.089  -0.589  0.00  0.00    -0.178 NA
ATOM     10  N   UNL     1      -2.560  -0.170   0.033  0.00  0.00    -0.274 N 
ATOM     11  H   UNL     1      -2.832   0.684   0.405  0.00  0.00    +0.167 HD
ENDROOT
BRANCH   1  17
ATOM     12  C   UNL     1      -0.025   1.432   0.019  0.00  0.00    +0.012 A 
ATOM     13  C   UNL     1       1.156   2.144   0.013  0.00  0.00    +0.039 A 
ATOM     14  C   UNL     1       2.370   1.476  -0.000  0.00  0.00    +0.123 A 
ATOM     15  C   UNL     1       2.405   0.091  -0.006  0.00  0.00    +0.039 A 
ATOM     16  C   UNL     1       1.228  -0.630   0.000  0.00  0.00    +0.012 A 
ATOM     17  C   UNL     1       0.004   0.038   0.013  0.00  0.00    -0.003 A 
ATOM     18  F   UNL     1       3.525   2.178  -0.007  0.00  0.00    -0.205 F 
ENDBRANCH   1  17
BRANCH   8  19
ATOM     19  S   UNL     1      -5.448   0.381  -1.338  0.00  0.00    -0.107 S 
BRANCH  19  20
ATOM     20  C   UNL     1      -4.818   0.263  -3.035  0.00  0.00    +0.168 C 
BRANCH  20  21
ATOM     21  C   UNL     1      -5.305   1.443  -3.836  0.00  0.00    +0.227 C 
ATOM     22  O   UNL     1      -6.009   2.281  -3.313  0.00  0.00    -0.275 OA
ATOM     23  N   UNL     1      -4.960   1.567  -5.132  0.00  0.00    -0.285 N 
ATOM     24  H   UNL     1      -4.343   0.934  -5.533  0.00  0.00    +0.155 HD
BRANCH  23  25
ATOM     25  C   UNL     1      -5.490   2.610  -5.902  0.00  0.00    +0.037 A 
ATOM     26  C   UNL     1      -5.784   2.404  -7.243  0.00  0.00    +0.027 A 
ATOM     27  C   UNL     1      -6.308   3.431  -8.004  0.00  0.00    +0.051 A 
ATOM     28  C   UNL     1      -6.541   4.671  -7.430  0.00  0.00    +0.166 A 
ATOM     29  C   UNL     1      -6.248   4.881  -6.085  0.00  0.00    +0.168 A 
ATOM     30  C   UNL     1      -5.728   3.849  -5.322  0.00  0.00    +0.072 A 
ATOM     31  O   UNL     1      -6.564   6.170  -5.766  0.00  0.00    -0.453 OA
ATOM     32  C   UNL     1      -6.669   6.863  -7.024  0.00  0.00    +0.466 C 
ATOM     33  O   UNL     1      -7.041   5.829  -7.954  0.00  0.00    -0.453 OA
ENDBRANCH  23  25
ENDBRANCH  20  21
ENDBRANCH  19  20
ENDBRANCH   8  19
TORSDOF 5
