REMARK  Name = ZINC62083075
REMARK  4 active torsions:
REMARK  status: ('A' for Active; 'I' for Inactive)
REMARK    1  A    between atoms: C_6  and  C_7
REMARK    2  A    between atoms: C_7  and  C_9
REMARK    3  A    between atoms: C_7  and  C_12
REMARK    4  A    between atoms: N_14  and  C_15
REMARK                            x       y       z     vdW  Elec       q    Type
REMARK                         _______ _______ _______ _____ _____    ______ ____
ROOT
ATOM      1  C   UNL     1      -1.823  -1.531   1.363  0.00  0.00    +0.225 C 
ATOM      2  O   UNL     1      -1.325  -1.240   2.430  0.00  0.00    -0.275 OA
ATOM      3  N   UNL     1      -2.335  -2.762   1.171  0.00  0.00    -0.285 N 
ATOM      4  H   UNL     1      -2.659  -3.022   0.295  0.00  0.00    +0.155 HD
ENDROOT
BRANCH   3   5
ATOM      5  C   UNL     1      -2.401  -3.667   2.239  0.00  0.00    +0.037 A 
ATOM      6  C   UNL     1      -1.372  -3.713   3.173  0.00  0.00    +0.025 A 
ATOM      7  C   UNL     1      -1.433  -4.604   4.226  0.00  0.00    +0.031 A 
ATOM      8  C   UNL     1      -2.521  -5.453   4.352  0.00  0.00    +0.087 A 
ATOM      9  C   UNL     1      -3.555  -5.410   3.417  0.00  0.00    +0.159 A 
ATOM     10  C   UNL     1      -3.494  -4.511   2.364  0.00  0.00    +0.071 A 
ATOM     11  O   UNL     1      -4.471  -6.338   3.787  0.00  0.00    -0.408 OA
ATOM     12  C   UNL     1      -4.052  -6.952   4.904  0.00  0.00    +0.419 A 
ATOM     13  O   UNL     1      -4.651  -7.835   5.487  0.00  0.00    -0.223 OA
ATOM     14  N   UNL     1      -2.864  -6.438   5.280  0.00  0.00    -0.288 N 
ATOM     15  H   UNL     1      -2.343  -6.704   6.054  0.00  0.00    +0.172 HD
ENDBRANCH   3   5
BRANCH   1  16
ATOM     16  C   UNL     1      -1.868  -0.515   0.251  0.00  0.00    +0.108 C 
BRANCH  16  22
ATOM     17  C   UNL     1      -2.896   1.741   0.596  0.00  0.00    +0.006 A 
ATOM     18  C   UNL     1      -2.877   3.014   1.134  0.00  0.00    +0.020 A 
ATOM     19  C   UNL     1      -1.809   3.420   1.915  0.00  0.00    +0.041 A 
ATOM     20  C   UNL     1      -0.760   2.551   2.156  0.00  0.00    +0.020 A 
ATOM     21  C   UNL     1      -0.780   1.278   1.617  0.00  0.00    +0.006 A 
ATOM     22  C   UNL     1      -1.847   0.873   0.837  0.00  0.00    -0.035 A 
ATOM     23 CL   UNL     1      -1.785   5.019   2.590  0.00  0.00    -0.084 Cl
ENDBRANCH  16  22
BRANCH  16  24
ATOM     24  C   UNL     1      -0.653  -0.701  -0.661  0.00  0.00    +0.005 C 
ATOM     25  C   UNL     1      -0.916  -0.919  -2.152  0.00  0.00    +0.005 C 
ATOM     26  C   UNL     1      -0.441  -2.084  -1.281  0.00  0.00    +0.005 C 
ENDBRANCH  16  24
ENDBRANCH   1  16
TORSDOF 4
