REMARK  Name = ZINC01504433
REMARK  6 active torsions:
REMARK  status: ('A' for Active; 'I' for Inactive)
REMARK    1  A    between atoms: C_1  and  C_2
REMARK    2  A    between atoms: C_2  and  C_3
REMARK    3  A    between atoms: C_8  and  O_9
REMARK    4  A    between atoms: O_9  and  C_10
REMARK    5  A    between atoms: C_12  and  N_21
REMARK    6  A    between atoms: C_13  and  C_16
REMARK                            x       y       z     vdW  Elec       q    Type
REMARK                         _______ _______ _______ _____ _____    ______ ____
ROOT
ATOM      1  C   UNL     1      -3.936   6.189   0.237  0.00  0.00    -0.005 A 
ATOM      2  C   UNL     1      -2.708   5.589   0.244  0.00  0.00    +0.022 A 
ATOM      3  C   UNL     1      -2.614   4.202   0.136  0.00  0.00    +0.065 A 
ATOM      4  C   UNL     1      -3.775   3.420   0.020  0.00  0.00    +0.144 A 
ATOM      5  C   UNL     1      -5.014   4.043   0.013  0.00  0.00    +0.093 A 
ATOM      6  C   UNL     1      -5.092   5.421   0.122  0.00  0.00    +0.127 A 
ATOM      7  O   UNL     1      -3.679   2.077  -0.084  0.00  0.00    -0.441 OA
ATOM      8  C   UNL     1      -2.502   1.439  -0.088  0.00  0.00    +0.197 A 
ATOM      9  C   UNL     1      -1.298   2.111   0.026  0.00  0.00    +0.105 A 
ATOM     10  C   UNL     1      -1.303   3.525   0.141  0.00  0.00    +0.204 A 
ATOM     11  O   UNL     1      -0.264   4.157   0.238  0.00  0.00    -0.286 OA
ENDROOT
BRANCH   9  12
ATOM     12  C   UNL     1      -0.017   1.363   0.023  0.00  0.00    +0.087 A 
ATOM     13  C   UNL     1       1.019   1.742  -0.787  0.00  0.00    +0.075 A 
ATOM     14  S   UNL     1       2.241   0.512  -0.355  0.00  0.00    -0.083 S 
ATOM     15  C   UNL     1       1.292  -0.352   0.815  0.00  0.00    +0.156 A 
ATOM     16  N   UNL     1       0.161   0.312   0.807  0.00  0.00    -0.247 NA
ENDBRANCH   9  12
BRANCH   8  17
ATOM     17  N   UNL     1      -2.489   0.073  -0.204  0.00  0.00    -0.329 N 
ATOM     18  H   UNL     1      -1.651  -0.411  -0.137  0.00  0.00    +0.145 HD
ATOM     19  H   UNL     1      -3.318  -0.408  -0.353  0.00  0.00    +0.145 HD
ENDBRANCH   8  17
BRANCH   1  21
ATOM     20  C   UNL     1      -4.264   8.071   1.817  0.00  0.00    +0.009 C 
ATOM     21  C   UNL     1      -4.039   7.688   0.353  0.00  0.00    +0.035 C 
ENDBRANCH   1  21
BRANCH   6  22
ATOM     22  O   UNL     1      -6.306   6.030   0.115  0.00  0.00    -0.495 OA
ATOM     23  C   UNL     1      -7.454   5.187  -0.005  0.00  0.00    +0.277 C 
ENDBRANCH   6  22
TORSDOF 4
