REMARK  Name = ZINC36064342
REMARK  13 active torsions:
REMARK  status: ('A' for Active; 'I' for Inactive)
REMARK    1  A    between atoms: C_1  and  C_2
REMARK    2  A    between atoms: C_2  and  O_3
REMARK    3  A    between atoms: O_3  and  C_4
REMARK    4  A    between atoms: C_4  and  C_6
REMARK    5  A    between atoms: C_7  and  C_33
REMARK    6  A    between atoms: C_11  and  C_13
REMARK    7  A    between atoms: C_16  and  N_19
REMARK    8  A    between atoms: C_22  and  C_25
REMARK    9  A    between atoms: C_26  and  N_28
REMARK   10  A    between atoms: N_28  and  C_29
REMARK   11  A    between atoms: C_29  and  C_30
REMARK   12  A    between atoms: C_30  and  O_31
REMARK   13  A    between atoms: O_31  and  C_32
REMARK                            x       y       z     vdW  Elec       q    Type
REMARK                         _______ _______ _______ _____ _____    ______ ____
ROOT
ATOM      1  C   UNL     1       1.094  -2.455   2.817  0.00  0.00    +0.087 C 
ATOM      2  C   UNL     1       1.546  -3.774   2.865  0.00  0.00    +0.086 C 
ATOM      3  N   UNL     1       2.596  -4.094   3.620  0.00  0.00    -0.224 NA
ATOM      4  C   UNL     1       3.277  -3.243   4.355  0.00  0.00    +0.166 C 
ATOM      5  N   UNL     1       2.994  -1.908   4.443  0.00  0.00    -0.267 N 
ATOM      6  C   UNL     1       1.840  -1.427   3.637  0.00  0.00    +0.150 C 
ATOM      7  C   UNL     1       3.807  -1.148   5.261  0.00  0.00    +0.048 C 
ATOM      8  C   UNL     1       4.812  -1.779   5.907  0.00  0.00    +0.072 C 
ATOM      9  S   UNL     1       4.607  -3.460   5.355  0.00  0.00    -0.060 S 
ENDROOT
BRANCH   6  10
ATOM     10  C   UNL     1       0.857  -0.785   4.581  0.00  0.00    -0.022 A 
ATOM     11  C   UNL     1       0.434  -1.467   5.707  0.00  0.00    +0.008 A 
ATOM     12  C   UNL     1      -0.468  -0.879   6.574  0.00  0.00    +0.033 A 
ATOM     13  C   UNL     1      -0.948   0.392   6.314  0.00  0.00    +0.126 A 
ATOM     14  C   UNL     1      -0.525   1.073   5.189  0.00  0.00    +0.033 A 
ATOM     15  C   UNL     1       0.381   0.487   4.325  0.00  0.00    +0.008 A 
BRANCH  13  16
ATOM     16  N   UNL     1      -1.915   1.021   7.241  0.00  0.00    +0.056 N 
ATOM     17  O   UNL     1      -2.285   0.424   8.225  0.00  0.00    -0.126 OA
ATOM     18  O   UNL     1      -2.334   2.132   7.014  0.00  0.00    -0.126 OA
ENDBRANCH  13  16
ENDBRANCH   6  10
BRANCH   2  19
ATOM     19  C   UNL     1       0.857  -4.821   2.077  0.00  0.00    +0.001 A 
ATOM     20  C   UNL     1       0.864  -4.766   0.683  0.00  0.00    +0.010 A 
ATOM     21  C   UNL     1       0.219  -5.745  -0.046  0.00  0.00    +0.001 A 
ATOM     22  C   UNL     1      -0.433  -6.778   0.603  0.00  0.00    +0.000 A 
ATOM     23  C   UNL     1      -0.444  -6.838   1.985  0.00  0.00    +0.001 A 
ATOM     24  C   UNL     1       0.203  -5.869   2.725  0.00  0.00    +0.010 A 
ENDBRANCH   2  19
BRANCH   7  25
ATOM     25  C   UNL     1       3.586   0.296   5.423  0.00  0.00    +0.091 C 
ATOM     26  C   UNL     1       4.327   0.996   6.304  0.00  0.00    +0.239 C 
ATOM     27  O   UNL     1       5.346   0.393   6.963  0.00  0.00    -0.271 OA
BRANCH  26  28
ATOM     28  N   UNL     1       4.048   2.333   6.535  0.00  0.00    -0.310 N 
ATOM     29  H   UNL     1       3.275   2.745   6.120  0.00  0.00    +0.149 HD
BRANCH  28  30
ATOM     30  C   UNL     1       4.922   3.123   7.406  0.00  0.00    +0.132 C 
BRANCH  30  31
ATOM     31  C   UNL     1       4.327   4.520   7.592  0.00  0.00    +0.178 C 
BRANCH  31  32
ATOM     32  O   UNL     1       3.086   4.420   8.292  0.00  0.00    -0.381 OA
ATOM     33  C   UNL     1       2.444   5.677   8.519  0.00  0.00    +0.194 C 
ENDBRANCH  31  32
ENDBRANCH  30  31
ENDBRANCH  28  30
ENDBRANCH  26  28
ENDBRANCH   7  25
BRANCH   1  34
ATOM     34  C   UNL     1      -0.004  -2.097   2.034  0.00  0.00    +0.339 C 
ATOM     35  O   UNL     1      -0.659  -2.958   1.470  0.00  0.00    -0.245 OA
BRANCH  34  36
ATOM     36  O   UNL     1      -0.343  -0.795   1.900  0.00  0.00    -0.462 OA
BRANCH  36  38
ATOM     37  C   UNL     1      -1.705   1.013   1.052  0.00  0.00    +0.048 C 
ATOM     38  C   UNL     1      -1.478  -0.500   1.084  0.00  0.00    +0.229 C 
ENDBRANCH  36  38
ENDBRANCH  34  36
ENDBRANCH   1  34
TORSDOF 11
