REMARK  Name = ZINC09818048
REMARK  5 active torsions:
REMARK  status: ('A' for Active; 'I' for Inactive)
REMARK    1  A    between atoms: C_4  and  C_7
REMARK    2  A    between atoms: C_7  and  C_9
REMARK    3  A    between atoms: C_7  and  N_16
REMARK    4  A    between atoms: C_17  and  C_19
REMARK    5  A    between atoms: C_19  and  N_20
REMARK                            x       y       z     vdW  Elec       q    Type
REMARK                         _______ _______ _______ _____ _____    ______ ____
ROOT
ATOM      1  N   UNL     1      -5.710   5.855  -3.989  0.00  0.00    -0.303 N 
ATOM      2  C   UNL     1      -4.833   5.152  -3.245  0.00  0.00    +0.232 C 
ATOM      3  O   UNL     1      -4.095   4.349  -3.775  0.00  0.00    -0.274 OA
ATOM      4  H   UNL     1      -6.300   6.498  -3.565  0.00  0.00    +0.150 HD
ENDROOT
BRANCH   1   5
ATOM      5  C   UNL     1      -5.771   5.649  -5.438  0.00  0.00    +0.134 C 
BRANCH   5   6
ATOM      6  C   UNL     1      -6.317   6.889  -6.099  0.00  0.00    -0.023 A 
ATOM      7  C   UNL     1      -7.362   7.580  -5.515  0.00  0.00    +0.007 A 
ATOM      8  C   UNL     1      -7.858   8.721  -6.117  0.00  0.00    +0.020 A 
ATOM      9  C   UNL     1      -7.318   9.163  -7.311  0.00  0.00    +0.041 A 
ATOM     10  C   UNL     1      -6.276   8.467  -7.899  0.00  0.00    +0.020 A 
ATOM     11  C   UNL     1      -5.776   7.330  -7.292  0.00  0.00    +0.007 A 
ATOM     12 CL   UNL     1      -7.946  10.591  -8.073  0.00  0.00    -0.084 Cl
ENDBRANCH   5   6
BRANCH   5  16
ATOM     13  C   UNL     1      -8.327   2.335  -6.296  0.00  0.00    +0.000 A 
ATOM     14  C   UNL     1      -7.158   2.510  -7.013  0.00  0.00    +0.000 A 
ATOM     15  C   UNL     1      -6.331   3.583  -6.735  0.00  0.00    +0.006 A 
ATOM     16  C   UNL     1      -6.673   4.480  -5.741  0.00  0.00    -0.023 A 
ATOM     17  C   UNL     1      -7.840   4.302  -5.021  0.00  0.00    +0.006 A 
ATOM     18  C   UNL     1      -8.669   3.233  -5.302  0.00  0.00    +0.000 A 
ENDBRANCH   5  16
ENDBRANCH   1   5
BRANCH   2  19
ATOM     19  C   UNL     1      -4.769   5.364  -1.754  0.00  0.00    +0.213 C 
BRANCH  19  20
ATOM     20  N   UNL     1      -3.744   4.489  -1.180  0.00  0.00    -0.215 N 
ATOM     21  C   UNL     1      -2.450   4.835  -1.029  0.00  0.00    +0.247 C 
ATOM     22  O   UNL     1      -1.934   5.889  -1.331  0.00  0.00    -0.273 OA
ATOM     23  C   UNL     1      -1.776   3.631  -0.404  0.00  0.00    +0.113 C 
ATOM     24  C   UNL     1      -0.694   3.094  -1.300  0.00  0.00    +0.035 C 
ATOM     25  C   UNL     1      -0.688   1.554  -1.193  0.00  0.00    +0.003 C 
ATOM     26  C   UNL     1      -0.013   1.086   0.008  0.00  0.00    +0.000 C 
ATOM     27  C   UNL     1      -0.703   1.568   1.299  0.00  0.00    +0.000 C 
ATOM     28  C   UNL     1      -0.272   2.985   1.570  0.00  0.00    +0.003 C 
ATOM     29  C   UNL     1      -1.264   4.014   0.997  0.00  0.00    +0.035 C 
ATOM     30  N   UNL     1      -2.869   2.655  -0.260  0.00  0.00    -0.285 N 
ATOM     31  C   UNL     1      -3.978   3.246  -0.740  0.00  0.00    +0.310 C 
ATOM     32  O   UNL     1      -5.069   2.713  -0.771  0.00  0.00    -0.252 OA
ATOM     33  H   UNL     1      -2.803   1.760   0.109  0.00  0.00    +0.151 HD
ENDBRANCH  19  20
ENDBRANCH   2  19
TORSDOF 5
