REMARK  Name = ZINC39978352
REMARK  4 active torsions:
REMARK  status: ('A' for Active; 'I' for Inactive)
REMARK    1  A    between atoms: C_4  and  C_7
REMARK    2  A    between atoms: C_7  and  N_8
REMARK    3  A    between atoms: C_22  and  C_25
REMARK    4  A    between atoms: C_30  and  C_31
REMARK                            x       y       z     vdW  Elec       q    Type
REMARK                         _______ _______ _______ _____ _____    ______ ____
ROOT
ATOM      1  N   UNL     1       4.155  -2.695   1.039  0.00  0.00    +0.386 N 
ATOM      2  C   UNL     1       5.480  -3.323   1.147  0.00  0.00    -0.073 C 
ATOM      3  C   UNL     1       6.081  -3.030   2.523  0.00  0.00    +0.014 C 
ATOM      4  C   UNL     1       5.055  -3.418   3.585  0.00  0.00    -0.050 C 
ATOM      5  C   UNL     1       3.782  -3.603   3.248  0.00  0.00    -0.030 C 
ATOM      6  C   UNL     1       3.197  -3.438   1.875  0.00  0.00    -0.035 C 
ATOM      7  S   UNL     1       2.920  -4.106   4.717  0.00  0.00    -0.112 S 
ATOM      8  C   UNL     1       4.389  -4.452   5.770  0.00  0.00    +0.134 C 
ATOM      9  C   UNL     1       5.421  -3.580   5.043  0.00  0.00    +0.129 C 
ATOM     10  C   UNL     1       5.541  -2.220   5.659  0.00  0.00    +0.224 C 
ATOM     11  O   UNL     1       6.309  -1.430   5.151  0.00  0.00    -0.275 OA
ATOM     12  N   UNL     1       4.856  -1.824   6.732  0.00  0.00    -0.298 N 
ATOM     13  C   UNL     1       3.881  -2.676   7.395  0.00  0.00    +0.156 C 
ATOM     14  N   UNL     1       4.129  -4.096   7.140  0.00  0.00    -0.285 NA
ATOM     15  H   UNL     1       5.014  -0.935   7.085  0.00  0.00    +0.150 HD
ATOM     16  H   UNL     1       3.408  -4.681   7.535  0.00  0.00    +0.125 HD
ATOM     17  H   UNL     1       4.208  -1.739   1.356  0.00  0.00    -0.081 HD
ENDROOT
BRANCH  13  18
ATOM     18  C   UNL     1       3.944  -2.427   8.903  0.00  0.00    +0.118 C 
ATOM     19  C   UNL     1       5.275  -2.886   9.465  0.00  0.00    +0.120 C 
ATOM     20  N   UNL     1       5.002  -3.816  10.321  0.00  0.00    -0.161 NA
ATOM     21  N   UNL     1       3.636  -4.062  10.423  0.00  0.00    -0.153 NA
ATOM     22  C   UNL     1       2.934  -3.294   9.630  0.00  0.00    +0.082 C 
BRANCH  22  23
ATOM     23  C   UNL     1       1.471  -3.273   9.475  0.00  0.00    -0.001 A 
ATOM     24  C   UNL     1       0.682  -4.230  10.121  0.00  0.00    +0.010 A 
ATOM     25  C   UNL     1      -0.689  -4.203   9.970  0.00  0.00    +0.001 A 
ATOM     26  C   UNL     1      -1.283  -3.234   9.181  0.00  0.00    +0.000 A 
ATOM     27  C   UNL     1      -0.509  -2.284   8.539  0.00  0.00    +0.001 A 
ATOM     28  C   UNL     1       0.862  -2.292   8.685  0.00  0.00    +0.010 A 
ENDBRANCH  22  23
ENDBRANCH  13  18
BRANCH   1  29
ATOM     29  C   UNL     1       3.711  -2.725  -0.361  0.00  0.00    -0.043 C 
BRANCH  29  33
ATOM     30  C   UNL     1       0.018  -0.610  -0.729  0.00  0.00    +0.000 A 
ATOM     31  C   UNL     1       1.217   0.061  -0.881  0.00  0.00    +0.000 A 
ATOM     32  C   UNL     1       2.412  -0.623  -0.761  0.00  0.00    +0.002 A 
ATOM     33  C   UNL     1       2.408  -1.978  -0.490  0.00  0.00    -0.064 A 
ATOM     34  C   UNL     1       1.209  -2.649  -0.338  0.00  0.00    +0.002 A 
ATOM     35  C   UNL     1       0.014  -1.965  -0.458  0.00  0.00    +0.000 A 
ENDBRANCH  29  33
ENDBRANCH   1  29
TORSDOF 4
