REMARK  Name = ZINC01798870
REMARK  10 active torsions:
REMARK  status: ('A' for Active; 'I' for Inactive)
REMARK    1  A    between atoms: C_1  and  C_2
REMARK    2  A    between atoms: C_3  and  C_35
REMARK    3  A    between atoms: C_4  and  C_21
REMARK    4  A    between atoms: C_10  and  C_11
REMARK    5  A    between atoms: C_24  and  O_27
REMARK    6  A    between atoms: O_27  and  C_28
REMARK    7  A    between atoms: C_28  and  C_30
REMARK    8  A    between atoms: C_35  and  O_37
REMARK    9  A    between atoms: O_37  and  C_38
REMARK   10  A    between atoms: C_38  and  C_39
REMARK                            x       y       z     vdW  Elec       q    Type
REMARK                         _______ _______ _______ _____ _____    ______ ____
ROOT
ATOM      1  C   UNL     1       0.226   1.178   2.193  0.00  0.00    +0.066 C 
ATOM      2  C   UNL     1       0.180  -0.278   1.804  0.00  0.00    +0.053 C 
ATOM      3  C   UNL     1      -1.008  -0.952   1.842  0.00  0.00    +0.085 C 
ATOM      4  C   UNL     1      -1.012  -2.410   1.444  0.00  0.00    +0.162 C 
ATOM      5  N   UNL     1       0.291  -3.007   1.037  0.00  0.00    -0.275 N 
ATOM      6  C   UNL     1       0.489  -4.274   0.653  0.00  0.00    +0.268 A 
ATOM      7  O   UNL     1      -0.433  -5.068   0.608  0.00  0.00    -0.266 OA
ATOM      8  C   UNL     1       1.855  -4.678   0.286  0.00  0.00    +0.081 A 
ATOM      9  C   UNL     1       2.315  -5.885  -0.131  0.00  0.00    +0.028 C 
ATOM     10  S   UNL     1       2.744  -3.150   0.537  0.00  0.00    -0.046 S 
ATOM     11  C   UNL     1       1.367  -2.151   1.069  0.00  0.00    +0.178 A 
ATOM     12  N   UNL     1       1.292  -0.892   1.421  0.00  0.00    -0.228 NA
ENDROOT
BRANCH   9  13
ATOM     13  C   UNL     1       3.759  -6.108  -0.283  0.00  0.00    -0.024 A 
ATOM     14  C   UNL     1       4.673  -5.225   0.303  0.00  0.00    +0.009 A 
ATOM     15  C   UNL     1       6.026  -5.441   0.156  0.00  0.00    +0.020 A 
ATOM     16  C   UNL     1       6.483  -6.529  -0.571  0.00  0.00    +0.041 A 
ATOM     17  C   UNL     1       5.584  -7.407  -1.155  0.00  0.00    +0.020 A 
ATOM     18  C   UNL     1       4.228  -7.208  -1.012  0.00  0.00    +0.009 A 
ATOM     19 CL   UNL     1       8.189  -6.791  -0.752  0.00  0.00    -0.084 Cl
ENDBRANCH   9  13
BRANCH   4  20
ATOM     20  C   UNL     1      -1.542  -3.206   2.608  0.00  0.00    -0.020 A 
ATOM     21  C   UNL     1      -0.713  -3.508   3.673  0.00  0.00    +0.009 A 
ATOM     22  C   UNL     1      -1.197  -4.239   4.741  0.00  0.00    +0.047 A 
ATOM     23  C   UNL     1      -2.516  -4.669   4.745  0.00  0.00    +0.132 A 
ATOM     24  C   UNL     1      -3.346  -4.364   3.676  0.00  0.00    +0.047 A 
ATOM     25  C   UNL     1      -2.859  -3.629   2.613  0.00  0.00    +0.009 A 
BRANCH  23  26
ATOM     26  O   UNL     1      -2.994  -5.388   5.795  0.00  0.00    -0.420 OA
BRANCH  26  27
ATOM     27  C   UNL     1      -3.294  -4.727   6.931  0.00  0.00    +0.380 C 
ATOM     28  O   UNL     1      -3.052  -3.538   7.026  0.00  0.00    -0.241 OA
BRANCH  27  29
ATOM     29  C   UNL     1      -3.912  -5.439   8.052  0.00  0.00    +0.212 A 
ATOM     30  C   UNL     1      -4.271  -4.892   9.251  0.00  0.00    +0.056 A 
ATOM     31  C   UNL     1      -4.822  -5.930  10.019  0.00  0.00    +0.042 A 
ATOM     32  C   UNL     1      -4.775  -7.051   9.265  0.00  0.00    +0.196 A 
ATOM     33  O   UNL     1      -4.232  -6.750   8.078  0.00  0.00    -0.456 OA
ENDBRANCH  27  29
ENDBRANCH  26  27
ENDBRANCH  23  26
ENDBRANCH   4  20
BRANCH   3  34
ATOM     34  C   UNL     1      -2.192  -0.308   2.240  0.00  0.00    +0.340 C 
ATOM     35  O   UNL     1      -2.168   0.868   2.558  0.00  0.00    -0.245 OA
BRANCH  34  36
ATOM     36  O   UNL     1      -3.356  -0.993   2.271  0.00  0.00    -0.457 OA
BRANCH  36  37
ATOM     37  C   UNL     1      -4.520  -0.276   2.686  0.00  0.00    +0.259 C 
BRANCH  37  38
ATOM     38  C   UNL     1      -5.713  -1.196   2.658  0.00  0.00    +0.006 C 
ATOM     39  C   UNL     1      -6.558  -1.204   3.659  0.00  0.00    +0.007 C 
ENDBRANCH  37  38
ENDBRANCH  36  37
ENDBRANCH  34  36
ENDBRANCH   3  34
TORSDOF 9
