REMARK  Name = ZINC36710035
REMARK  11 active torsions:
REMARK  status: ('A' for Active; 'I' for Inactive)
REMARK    1  A    between atoms: C_1  and  C_2
REMARK    2  A    between atoms: C_2  and  N_3
REMARK    3  A    between atoms: N_3  and  C_4
REMARK    4  A    between atoms: N_3  and  S_6
REMARK    5  A    between atoms: C_4  and  C_5
REMARK    6  A    between atoms: S_6  and  C_9
REMARK    7  A    between atoms: N_14  and  C_16
REMARK    8  A    between atoms: C_16  and  C_17
REMARK    9  A    between atoms: N_19  and  C_20
REMARK   10  A    between atoms: C_20  and  C_22
REMARK   11  A    between atoms: C_20  and  C_23
REMARK                            x       y       z     vdW  Elec       q    Type
REMARK                         _______ _______ _______ _____ _____    ______ ____
ROOT
ATOM      1  C   UNL     1       6.178   3.398   4.430  0.00  0.00    +0.220 C 
ENDROOT
BRANCH   1   7
ATOM      2  C   UNL     1       5.848   6.047   1.879  0.00  0.00    +0.122 A 
ATOM      3  C   UNL     1       6.953   6.863   2.163  0.00  0.00    +0.035 A 
ATOM      4  C   UNL     1       7.785   6.525   3.189  0.00  0.00    +0.072 A 
ATOM      5  C   UNL     1       7.518   5.367   3.939  0.00  0.00    +0.252 A 
ATOM      6  O   UNL     1       8.254   5.053   4.861  0.00  0.00    -0.268 OA
ATOM      7  N   UNL     1       6.449   4.604   3.643  0.00  0.00    -0.305 N 
ATOM      8  C   UNL     1       5.616   4.941   2.625  0.00  0.00    +0.118 A 
BRANCH   2   9
ATOM      9  S   UNL     1       4.760   6.464   0.558  0.00  0.00    +0.062 S 
ATOM     10  O   UNL     1       3.805   5.415   0.471  0.00  0.00    -0.153 OA
ATOM     11  O   UNL     1       5.580   6.841  -0.539  0.00  0.00    -0.153 OA
BRANCH   9  12
ATOM     12  N   UNL     1       3.930   7.822   1.018  0.00  0.00    -0.177 NA
BRANCH  12  14
ATOM     13  C   UNL     1       5.261   9.672   1.905  0.00  0.00    +0.022 C 
ATOM     14  C   UNL     1       4.467   9.149   0.706  0.00  0.00    +0.106 C 
ENDBRANCH  12  14
BRANCH  12  15
ATOM     15  C   UNL     1       2.660   7.696   1.736  0.00  0.00    +0.106 C 
ATOM     16  C   UNL     1       1.501   7.769   0.739  0.00  0.00    +0.022 C 
ENDBRANCH  12  15
ENDBRANCH   9  12
ENDBRANCH   2   9
ENDBRANCH   1   7
BRANCH   1  17
ATOM     17  C   UNL     1       5.291   3.749   5.596  0.00  0.00    +0.233 C 
ATOM     18  O   UNL     1       4.921   4.893   5.755  0.00  0.00    -0.274 OA
ATOM     19  N   UNL     1       4.909   2.791   6.464  0.00  0.00    -0.307 N 
ATOM     20  H   UNL     1       5.205   1.876   6.338  0.00  0.00    +0.149 HD
BRANCH  19  21
ATOM     21  C   UNL     1       4.047   3.131   7.598  0.00  0.00    +0.101 C 
ATOM     22  C   UNL     1       3.295   1.882   8.060  0.00  0.00    +0.033 C 
BRANCH  21  23
ATOM     23  C   UNL     1       4.890   3.658   8.731  0.00  0.00    -0.020 A 
ATOM     24  C   UNL     1       6.206   3.319   8.818  0.00  0.00    +0.006 A 
ATOM     25  C   UNL     1       7.002   3.796   9.858  0.00  0.00    +0.001 A 
ATOM     26  C   UNL     1       6.486   4.613  10.817  0.00  0.00    +0.008 A 
ATOM     27  C   UNL     1       5.133   4.985  10.759  0.00  0.00    -0.018 A 
ATOM     28  C   UNL     1       4.324   4.505   9.698  0.00  0.00    -0.013 A 
ATOM     29  C   UNL     1       2.972   4.881   9.638  0.00  0.00    +0.009 A 
ATOM     30  C   UNL     1       2.458   5.704  10.593  0.00  0.00    +0.001 A 
ATOM     31  C   UNL     1       3.254   6.181  11.633  0.00  0.00    +0.001 A 
ATOM     32  C   UNL     1       4.565   5.827  11.731  0.00  0.00    +0.008 A 
ENDBRANCH  21  23
ENDBRANCH  19  21
ENDBRANCH   1  17
TORSDOF 8
