REMARK  Name = ZINC33587879
REMARK  8 active torsions:
REMARK  status: ('A' for Active; 'I' for Inactive)
REMARK    1  A    between atoms: C_1  and  C_2
REMARK    2  A    between atoms: C_3  and  C_32
REMARK    3  A    between atoms: C_8  and  C_23
REMARK    4  A    between atoms: C_10  and  C_11
REMARK    5  A    between atoms: C_11  and  C_12
REMARK    6  A    between atoms: C_26  and  N_29
REMARK    7  A    between atoms: C_32  and  O_34
REMARK    8  A    between atoms: O_34  and  C_35
REMARK                            x       y       z     vdW  Elec       q    Type
REMARK                         _______ _______ _______ _____ _____    ______ ____
ROOT
ATOM      1  C   UNL     1       3.470   1.548  -1.781  0.00  0.00    +0.067 C 
ATOM      2  C   UNL     1       2.071   1.183  -1.356  0.00  0.00    +0.062 A 
ATOM      3  C   UNL     1       1.729  -0.131  -1.063  0.00  0.00    +0.120 A 
ATOM      4  S   UNL     1       0.004   0.066  -0.640  0.00  0.00    -0.045 S 
ATOM      5  C   UNL     1      -0.094   1.783  -0.880  0.00  0.00    +0.169 A 
ATOM      6  N   UNL     1       1.139   2.093  -1.252  0.00  0.00    -0.229 NA
ATOM      7  N   UNL     1      -1.186   2.616  -0.727  0.00  0.00    -0.232 N 
ATOM      8  C   UNL     1      -2.528   2.193  -0.315  0.00  0.00    +0.152 C 
ATOM      9  C   UNL     1      -3.385   3.438  -0.286  0.00  0.00    +0.077 C 
ATOM     10  C   UNL     1      -2.543   4.500  -0.667  0.00  0.00    +0.250 C 
ATOM     11  O   UNL     1      -2.868   5.668  -0.768  0.00  0.00    -0.282 OA
ATOM     12  C   UNL     1      -1.187   3.945  -0.925  0.00  0.00    +0.293 C 
ATOM     13  O   UNL     1      -0.222   4.597  -1.269  0.00  0.00    -0.266 OA
ENDROOT
BRANCH   8  14
ATOM     14  C   UNL     1      -2.474   1.571   1.057  0.00  0.00    -0.022 A 
ATOM     15  C   UNL     1      -1.638   2.099   2.023  0.00  0.00    +0.008 A 
ATOM     16  C   UNL     1      -1.593   1.532   3.282  0.00  0.00    +0.033 A 
ATOM     17  C   UNL     1      -2.376   0.430   3.573  0.00  0.00    +0.126 A 
ATOM     18  C   UNL     1      -3.208  -0.101   2.605  0.00  0.00    +0.033 A 
ATOM     19  C   UNL     1      -3.257   0.470   1.347  0.00  0.00    +0.008 A 
BRANCH  17  20
ATOM     20  N   UNL     1      -2.324  -0.181   4.920  0.00  0.00    +0.056 N 
ATOM     21  O   UNL     1      -3.014  -1.151   5.176  0.00  0.00    -0.126 OA
ATOM     22  O   UNL     1      -1.590   0.287   5.773  0.00  0.00    -0.126 OA
ENDBRANCH  17  20
ENDBRANCH   8  14
BRANCH   9  23
ATOM     23  C   UNL     1      -4.718   3.517   0.047  0.00  0.00    +0.195 C 
ATOM     24  O   UNL     1      -5.428   2.389   0.261  0.00  0.00    -0.287 OA
BRANCH  23  25
ATOM     25  C   UNL     1      -5.372   4.835   0.169  0.00  0.00    +0.025 A 
ATOM     26  C   UNL     1      -4.811   5.847   0.959  0.00  0.00    +0.031 A 
ATOM     27  C   UNL     1      -5.454   7.066   1.040  0.00  0.00    +0.111 A 
ATOM     28  N   UNL     1      -6.584   7.280   0.396  0.00  0.00    -0.263 NA
ATOM     29  C   UNL     1      -7.149   6.354  -0.355  0.00  0.00    +0.111 A 
ATOM     30  C   UNL     1      -6.573   5.108  -0.498  0.00  0.00    +0.031 A 
ENDBRANCH  23  25
ENDBRANCH   9  23
BRANCH   3  31
ATOM     31  C   UNL     1       2.552  -1.339  -1.093  0.00  0.00    +0.347 C 
ATOM     32  O   UNL     1       3.724  -1.269  -1.413  0.00  0.00    -0.244 OA
BRANCH  31  33
ATOM     33  O   UNL     1       2.011  -2.531  -0.767  0.00  0.00    -0.464 OA
ATOM     34  C   UNL     1       2.873  -3.670  -0.819  0.00  0.00    +0.280 C 
ENDBRANCH  31  33
ENDBRANCH   3  31
TORSDOF 6
