REMARK  Name = ZINC20757374
REMARK  10 active torsions:
REMARK  status: ('A' for Active; 'I' for Inactive)
REMARK    1  A    between atoms: C_1  and  C_2
REMARK    2  A    between atoms: C_2  and  N_3
REMARK    3  A    between atoms: N_3  and  C_4
REMARK    4  A    between atoms: N_3  and  C_6
REMARK    5  A    between atoms: C_4  and  C_5
REMARK    6  A    between atoms: C_6  and  C_7
REMARK    7  A    between atoms: C_7  and  N_8
REMARK    8  A    between atoms: C_9  and  C_11
REMARK    9  A    between atoms: C_24  and  C_27
REMARK   10  A    between atoms: C_30  and  N_33
REMARK                            x       y       z     vdW  Elec       q    Type
REMARK                         _______ _______ _______ _____ _____    ______ ____
ROOT
ATOM      1  C   UNL     1      -1.650   3.527  -0.006  0.00  0.00    +0.037 A 
ATOM      2  C   UNL     1      -0.391   4.133  -0.045  0.00  0.00    +0.015 A 
ATOM      3  C   UNL     1      -0.299   5.506  -0.040  0.00  0.00    +0.024 A 
ATOM      4  C   UNL     1      -1.452   6.286   0.003  0.00  0.00    +0.031 A 
ATOM      5  C   UNL     1      -2.708   5.694   0.040  0.00  0.00    -0.019 A 
ATOM      6  C   UNL     1      -2.802   4.313   0.030  0.00  0.00    +0.019 A 
ATOM      7  C   UNL     1      -3.971   6.496   0.084  0.00  0.00    +0.049 C 
ATOM      8  C   UNL     1      -4.590   6.471   1.462  0.00  0.00    -0.023 C 
ATOM      9  C   UNL     1      -5.130   7.633   1.737  0.00  0.00    -0.030 C 
ATOM     10  C   UNL     1      -4.949   8.592   0.576  0.00  0.00    +0.033 C 
ATOM     11  C   UNL     1      -3.741   7.992  -0.202  0.00  0.00    +0.029 C 
ATOM     12  C   UNL     1      -2.465   8.468   0.498  0.00  0.00    +0.105 C 
ATOM     13  N   UNL     1      -1.332   7.674   0.012  0.00  0.00    -0.336 N 
ATOM     14  H   UNL     1      -0.417   8.176  -0.335  0.00  0.00    +0.147 HD
ENDROOT
BRANCH  12  15
ATOM     15  C   UNL     1      -2.608   8.285   1.987  0.00  0.00    -0.027 A 
ATOM     16  C   UNL     1      -3.121   9.308   2.763  0.00  0.00    +0.008 A 
ATOM     17  C   UNL     1      -3.255   9.138   4.128  0.00  0.00    +0.033 A 
ATOM     18  C   UNL     1      -2.870   7.949   4.718  0.00  0.00    +0.126 A 
ATOM     19  C   UNL     1      -2.353   6.928   3.943  0.00  0.00    +0.033 A 
ATOM     20  C   UNL     1      -2.221   7.096   2.577  0.00  0.00    +0.008 A 
BRANCH  18  21
ATOM     21  N   UNL     1      -3.011   7.769   6.181  0.00  0.00    +0.056 N 
ATOM     22  O   UNL     1      -2.671   6.721   6.701  0.00  0.00    -0.126 OA
ATOM     23  O   UNL     1      -3.467   8.668   6.864  0.00  0.00    -0.126 OA
ENDBRANCH  18  21
ENDBRANCH  12  15
BRANCH   1  25
ATOM     24  N   UNL     1      -0.648   1.296  -0.049  0.00  0.00    -0.313 N 
ATOM     25  C   UNL     1      -1.761   2.056  -0.009  0.00  0.00    +0.244 C 
ATOM     26  O   UNL     1      -2.856   1.529   0.025  0.00  0.00    -0.270 OA
ATOM     27  H   UNL     1       0.342   1.774  -0.080  0.00  0.00    +0.149 HD
BRANCH  24  28
ATOM     28  C   UNL     1      -0.758  -0.164  -0.052  0.00  0.00    +0.086 C 
BRANCH  28  29
ATOM     29  C   UNL     1       0.641  -0.781  -0.108  0.00  0.00    -0.060 C 
BRANCH  29  30
ATOM     30  N   UNL     1       0.537  -2.241   0.013  0.00  0.00    +0.380 N 
ATOM     31  H   UNL     1      -0.205  -2.464   0.794  0.00  0.00    -0.082 HD
BRANCH  30  33
ATOM     32  C   UNL     1      -0.267  -4.317  -1.009  0.00  0.00    -0.017 C 
ATOM     33  C   UNL     1       0.066  -2.842  -1.242  0.00  0.00    -0.082 C 
ENDBRANCH  30  33
BRANCH  30  34
ATOM     34  C   UNL     1       1.819  -2.827   0.428  0.00  0.00    -0.082 C 
ATOM     35  C   UNL     1       2.039  -2.567   1.919  0.00  0.00    -0.017 C 
ENDBRANCH  30  34
ENDBRANCH  29  30
ENDBRANCH  28  29
ENDBRANCH  24  28
ENDBRANCH   1  25
TORSDOF 8
