REMARK  Name = ZINC09471282
REMARK  9 active torsions:
REMARK  status: ('A' for Active; 'I' for Inactive)
REMARK    1  A    between atoms: C_1  and  C_2
REMARK    2  A    between atoms: C_2  and  O_3
REMARK    3  A    between atoms: O_3  and  C_4
REMARK    4  A    between atoms: C_8  and  C_10
REMARK    5  A    between atoms: C_12  and  C_13
REMARK    6  A    between atoms: C_13  and  C_14
REMARK    7  A    between atoms: C_32  and  C_38
REMARK    8  A    between atoms: C_33  and  C_35
REMARK    9  A    between atoms: C_35  and  C_37
REMARK                            x       y       z     vdW  Elec       q    Type
REMARK                         _______ _______ _______ _____ _____    ______ ____
ROOT
ATOM      1  C   UNL     1      -3.762  -4.123  -0.135  0.00  0.00    +0.152 C 
ATOM      2  C   UNL     1      -4.550  -4.581  -1.341  0.00  0.00    +0.077 C 
ATOM      3  C   UNL     1      -4.889  -5.872  -1.118  0.00  0.00    +0.250 C 
ATOM      4  O   UNL     1      -5.602  -6.652  -1.963  0.00  0.00    -0.282 OA
ATOM      5  C   UNL     1      -4.357  -6.295   0.193  0.00  0.00    +0.293 C 
ATOM      6  O   UNL     1      -4.495  -7.400   0.678  0.00  0.00    -0.266 OA
ATOM      7  N   UNL     1      -3.697  -5.275   0.772  0.00  0.00    -0.232 N 
ATOM      8  C   UNL     1      -3.070  -5.306   2.001  0.00  0.00    +0.169 A 
ATOM      9  N   UNL     1      -2.416  -4.332   2.611  0.00  0.00    -0.229 NA
ATOM     10  C   UNL     1      -1.867  -4.505   3.784  0.00  0.00    +0.058 A 
ATOM     11  C   UNL     1      -2.011  -5.771   4.350  0.00  0.00    +0.078 A 
ATOM     12  S   UNL     1      -2.962  -6.592   3.082  0.00  0.00    -0.049 S 
ATOM     13  C   UNL     1      -1.121  -3.399   4.484  0.00  0.00    +0.067 C 
ENDROOT
BRANCH   1  18
ATOM     14  C   UNL     1      -0.773  -1.992  -1.030  0.00  0.00    +0.121 A 
ATOM     15  C   UNL     1       0.180  -2.960  -1.312  0.00  0.00    +0.045 A 
ATOM     16  C   UNL     1      -0.146  -4.298  -1.211  0.00  0.00    +0.004 A 
ATOM     17  C   UNL     1      -1.422  -4.673  -0.830  0.00  0.00    +0.006 A 
ATOM     18  C   UNL     1      -2.373  -3.711  -0.550  0.00  0.00    -0.019 A 
ATOM     19  C   UNL     1      -2.050  -2.370  -0.643  0.00  0.00    +0.051 A 
BRANCH  14  20
ATOM     20  O   UNL     1      -0.454  -0.674  -1.128  0.00  0.00    -0.492 OA
BRANCH  20  22
ATOM     21  C   UNL     1       1.049   1.162  -1.585  0.00  0.00    +0.048 C 
ATOM     22  C   UNL     1       0.879  -0.358  -1.532  0.00  0.00    +0.225 C 
ENDBRANCH  20  22
ENDBRANCH  14  20
ENDBRANCH   1  18
BRANCH  11  23
ATOM     23  C   UNL     1      -1.540  -6.263   5.584  0.00  0.00    +0.168 C 
ATOM     24  O   UNL     1      -0.906  -5.539   6.325  0.00  0.00    -0.292 OA
ATOM     25  C   UNL     1      -1.825  -7.688   5.985  0.00  0.00    +0.092 C 
ENDBRANCH  11  23
BRANCH   2  26
ATOM     26  C   UNL     1      -4.881  -3.781  -2.524  0.00  0.00    +0.195 C 
ATOM     27  O   UNL     1      -4.435  -4.091  -3.613  0.00  0.00    -0.287 OA
BRANCH  26  28
ATOM     28  C   UNL     1      -5.757  -2.599  -2.394  0.00  0.00    +0.026 A 
ATOM     29  C   UNL     1      -6.361  -2.306  -1.168  0.00  0.00    +0.015 A 
ATOM     30  C   UNL     1      -7.178  -1.204  -1.051  0.00  0.00    +0.050 A 
ATOM     31  C   UNL     1      -7.405  -0.379  -2.147  0.00  0.00    +0.162 A 
ATOM     32  C   UNL     1      -6.803  -0.665  -3.372  0.00  0.00    +0.163 A 
ATOM     33  C   UNL     1      -5.979  -1.768  -3.495  0.00  0.00    +0.061 A 
ATOM     34  O   UNL     1      -7.009   0.137  -4.452  0.00  0.00    -0.485 OA
ATOM     35  C   UNL     1      -8.130   1.026  -4.390  0.00  0.00    +0.270 C 
ATOM     36  C   UNL     1      -8.123   1.713  -3.018  0.00  0.00    +0.270 C 
ATOM     37  O   UNL     1      -8.218   0.702  -2.009  0.00  0.00    -0.485 OA
ENDBRANCH  26  28
ENDBRANCH   2  26
TORSDOF 6
