REMARK  Name = ZINC39359264
REMARK  10 active torsions:
REMARK  status: ('A' for Active; 'I' for Inactive)
REMARK    1  A    between atoms: C_1  and  N_2
REMARK    2  A    between atoms: N_2  and  C_3
REMARK    3  A    between atoms: N_2  and  C_4
REMARK    4  A    between atoms: C_7  and  C_10
REMARK    5  A    between atoms: C_13  and  O_37
REMARK    6  A    between atoms: C_24  and  C_27
REMARK    7  A    between atoms: C_30  and  O_35
REMARK    8  A    between atoms: C_31  and  O_33
REMARK    9  A    between atoms: O_33  and  C_34
REMARK   10  A    between atoms: O_35  and  C_36
REMARK                            x       y       z     vdW  Elec       q    Type
REMARK                         _______ _______ _______ _____ _____    ______ ____
ROOT
ATOM      1  C   UNL     1      -0.006  -2.813  -4.924  0.00  0.00    +0.089 C 
ATOM      2  C   UNL     1       1.190  -2.420  -5.739  0.00  0.00    +0.048 C 
ATOM      3  C   UNL     1       2.352  -1.869  -5.465  0.00  0.00    +0.235 C 
ATOM      4  N   UNL     1       3.031  -1.609  -6.615  0.00  0.00    -0.114 NA
ATOM      5  N   UNL     1       2.452  -1.976  -7.646  0.00  0.00    -0.157 NA
ATOM      6  C   UNL     1       1.206  -2.637  -7.255  0.00  0.00    +0.245 C 
ATOM      7  N   UNL     1       0.014  -1.926  -7.725  0.00  0.00    -0.321 N 
ATOM      8  C   UNL     1      -1.159  -2.035  -7.021  0.00  0.00    +0.014 C 
ATOM      9  C   UNL     1      -1.239  -2.438  -5.734  0.00  0.00    +0.023 C 
ATOM     10  C   UNL     1      -2.474  -2.535  -5.070  0.00  0.00    +0.162 C 
ATOM     11  O   UNL     1      -2.498  -2.890  -3.908  0.00  0.00    -0.292 OA
ATOM     12  C   UNL     1      -3.767  -2.209  -5.766  0.00  0.00    +0.088 C 
ATOM     13  C   UNL     1      -3.600  -2.486  -7.264  0.00  0.00    +0.032 C 
ATOM     14  C   UNL     1      -2.417  -1.656  -7.778  0.00  0.00    +0.059 C 
ATOM     15  H   UNL     1       0.054  -1.383  -8.528  0.00  0.00    +0.148 HD
ENDROOT
BRANCH   1  19
ATOM     16  C   UNL     1       0.000  -0.696  -1.211  0.00  0.00    +0.029 A 
ATOM     17  C   UNL     1       0.013  -2.085  -1.221  0.00  0.00    +0.023 A 
ATOM     18  C   UNL     1       0.010  -2.766  -2.422  0.00  0.00    +0.006 A 
ATOM     19  C   UNL     1      -0.005  -2.066  -3.615  0.00  0.00    -0.035 A 
ATOM     20  C   UNL     1      -0.018  -0.684  -3.609  0.00  0.00    +0.006 A 
ATOM     21  C   UNL     1      -0.021   0.004  -2.411  0.00  0.00    +0.023 A 
BRANCH  16  23
ATOM     22  C   UNL     1      -0.018   1.461   0.010  0.00  0.00    +0.129 C 
ATOM     23  N   UNL     1       0.002  -0.004   0.002  0.00  0.00    -0.336 N 
ATOM     24  C   UNL     1       0.024  -0.743   1.267  0.00  0.00    +0.129 C 
ENDBRANCH  16  23
ENDBRANCH   1  19
BRANCH  13  25
ATOM     25  C   UNL     1      -4.856  -2.088  -7.997  0.00  0.00    -0.040 A 
ATOM     26  C   UNL     1      -5.294  -0.777  -7.953  0.00  0.00    +0.008 A 
ATOM     27  C   UNL     1      -6.445  -0.407  -8.623  0.00  0.00    +0.049 A 
ATOM     28  C   UNL     1      -7.162  -1.351  -9.341  0.00  0.00    +0.161 A 
ATOM     29  C   UNL     1      -6.721  -2.670  -9.386  0.00  0.00    +0.162 A 
ATOM     30  C   UNL     1      -5.563  -3.033  -8.716  0.00  0.00    +0.053 A 
BRANCH  29  31
ATOM     31  O   UNL     1      -7.421  -3.599 -10.089  0.00  0.00    -0.491 OA
ATOM     32  C   UNL     1      -6.909  -4.933 -10.091  0.00  0.00    +0.277 C 
ENDBRANCH  29  31
BRANCH  28  33
ATOM     33  O   UNL     1      -8.295  -0.989 -10.001  0.00  0.00    -0.491 OA
ATOM     34  C   UNL     1      -8.688   0.382  -9.911  0.00  0.00    +0.277 C 
ENDBRANCH  28  33
ENDBRANCH  13  25
BRANCH   3  35
ATOM     35  O   UNL     1       2.808  -1.597  -4.214  0.00  0.00    -0.491 OA
ATOM     36  H   UNL     1       3.685  -1.190  -4.195  0.00  0.00    +0.294 HD
ENDBRANCH   3  35
TORSDOF 6
