REMARK  Name = ZINC42026349
REMARK  4 active torsions:
REMARK  status: ('A' for Active; 'I' for Inactive)
REMARK    1  A    between atoms: C_1  and  C_2
REMARK    2  A    between atoms: C_8  and  N_10
REMARK    3  A    between atoms: C_11  and  C_15
REMARK    4  A    between atoms: C_17  and  N_22
REMARK                            x       y       z     vdW  Elec       q    Type
REMARK                         _______ _______ _______ _____ _____    ______ ____
ROOT
ATOM      1  N   UNL     1       2.131  -0.040   1.258  0.00  0.00    -0.222 N 
ATOM      2  C   UNL     1       2.685   0.852   2.116  0.00  0.00    +0.185 A 
ATOM      3  N   UNL     1       3.916   1.072   1.702  0.00  0.00    -0.108 NA
ATOM      4  N   UNL     1       4.166   0.381   0.649  0.00  0.00    -0.023 NA
ATOM      5  N   UNL     1       3.139  -0.324   0.320  0.00  0.00    -0.043 NA
ENDROOT
BRANCH   1  12
ATOM      6  C   UNL     1       0.013   1.138  -0.326  0.00  0.00    +0.009 C 
ATOM      7  C   UNL     1       0.085  -0.363  -0.042  0.00  0.00    +0.011 C 
ATOM      8  C   UNL     1      -1.331  -0.942   0.006  0.00  0.00    +0.005 C 
ATOM      9  C   UNL     1      -1.258  -2.444   0.290  0.00  0.00    +0.000 C 
ATOM     10  C   UNL     1      -0.567  -2.675   1.636  0.00  0.00    +0.002 C 
ATOM     11  C   UNL     1       0.848  -2.096   1.588  0.00  0.00    +0.027 C 
ATOM     12  C   UNL     1       0.776  -0.595   1.304  0.00  0.00    +0.114 C 
ENDBRANCH   1  12
BRANCH   2  13
ATOM     13  C   UNL     1       2.031   1.463   3.294  0.00  0.00    +0.058 A 
ATOM     14  C   UNL     1       1.336   0.664   4.201  0.00  0.00    +0.037 A 
ATOM     15  C   UNL     1       0.726   1.242   5.303  0.00  0.00    +0.025 A 
ATOM     16  C   UNL     1       0.807   2.616   5.502  0.00  0.00    +0.025 A 
ATOM     17  C   UNL     1       1.494   3.409   4.604  0.00  0.00    +0.041 A 
ATOM     18  C   UNL     1       2.112   2.841   3.505  0.00  0.00    +0.134 A 
ATOM     19  F   UNL     1       2.788   3.620   2.632  0.00  0.00    -0.205 F 
BRANCH  15  20
ATOM     20  N   UNL     1       0.029   0.444   6.215  0.00  0.00    -0.358 N 
ATOM     21  H   UNL     1      -0.028  -0.514   6.077  0.00  0.00    +0.142 HD
ATOM     22  H   UNL     1      -0.399   0.849   6.986  0.00  0.00    +0.142 HD
ENDBRANCH  15  20
ENDBRANCH   2  13
TORSDOF 3
