REMARK  Name = ZINC37796264
REMARK  5 active torsions:
REMARK  status: ('A' for Active; 'I' for Inactive)
REMARK    1  A    between atoms: C_1  and  C_2
REMARK    2  A    between atoms: C_2  and  C_4
REMARK    3  A    between atoms: C_2  and  N_14
REMARK    4  A    between atoms: C_15  and  C_17
REMARK    5  A    between atoms: C_18  and  C_19
REMARK                            x       y       z     vdW  Elec       q    Type
REMARK                         _______ _______ _______ _____ _____    ______ ____
ROOT
ATOM      1  C   UNL     1      -0.019   1.526   0.010  0.00  0.00    +0.036 C 
ATOM      2  C   UNL     1       0.002  -0.004   0.002  0.00  0.00    +0.138 C 
ENDROOT
BRANCH   2   3
ATOM      3  C   UNL     1       0.707  -0.490  -1.238  0.00  0.00    +0.154 A 
ATOM      4  N   UNL     1       0.230  -0.487  -2.454  0.00  0.00    -0.132 NA
ATOM      5  N   UNL     1       1.107  -0.966  -3.266  0.00  0.00    -0.134 NA
ATOM      6  C   UNL     1       2.180  -1.292  -2.605  0.00  0.00    +0.134 A 
ATOM      7  N   UNL     1       1.955  -1.006  -1.302  0.00  0.00    -0.313 N 
ATOM      8  C   UNL     1       2.877  -1.230  -0.188  0.00  0.00    +0.125 C 
ATOM      9  C   UNL     1       4.319  -1.162  -0.701  0.00  0.00    +0.022 C 
ATOM     10  C   UNL     1       4.770  -2.550  -1.155  0.00  0.00    +0.002 C 
ATOM     11  C   UNL     1       3.894  -3.049  -2.299  0.00  0.00    +0.008 C 
ATOM     12  C   UNL     1       3.454  -1.871  -3.165  0.00  0.00    +0.076 C 
ENDBRANCH   2   3
BRANCH   2  13
ATOM     13  N   UNL     1      -1.372  -0.511   0.012  0.00  0.00    -0.302 N 
ATOM     14  C   UNL     1      -2.029  -0.655   1.181  0.00  0.00    +0.238 C 
ATOM     15  O   UNL     1      -1.480  -0.364   2.225  0.00  0.00    -0.271 OA
ATOM     16  H   UNL     1      -1.810  -0.743  -0.822  0.00  0.00    +0.150 HD
BRANCH  14  17
ATOM     17  C   UNL     1      -3.416  -1.167   1.191  0.00  0.00    +0.074 C 
ATOM     18  C   UNL     1      -4.070  -1.311   2.355  0.00  0.00    +0.101 C 
BRANCH  18  19
ATOM     19  C   UNL     1      -5.453  -1.821   2.366  0.00  0.00    +0.380 C 
ATOM     20  O   UNL     1      -6.005  -2.114   1.314  0.00  0.00    -0.241 OA
ATOM     21  O   UNL     1      -6.048  -1.952   3.426  0.00  0.00    -0.241 OA
ENDBRANCH  18  19
ENDBRANCH  14  17
ENDBRANCH   2  13
TORSDOF 4
