REMARK  Name = ZINC12978795
REMARK  5 active torsions:
REMARK  status: ('A' for Active; 'I' for Inactive)
REMARK    1  A    between atoms: C_1  and  C_2
REMARK    2  A    between atoms: C_2  and  C_3
REMARK    3  A    between atoms: C_3  and  C_5
REMARK    4  A    between atoms: C_3  and  N_6
REMARK    5  A    between atoms: C_7  and  C_9
REMARK                            x       y       z     vdW  Elec       q    Type
REMARK                         _______ _______ _______ _____ _____    ______ ____
ROOT
ATOM      1  C   UNL     1       2.387   0.023  -0.021  0.00  0.00    +0.105 A 
ATOM      2  C   UNL     1       2.453   1.378  -0.014  0.00  0.00    +0.039 A 
ATOM      3  C   UNL     1       1.215   2.158   0.002  0.00  0.00    -0.011 A 
ATOM      4  C   UNL     1       1.226   3.554   0.010  0.00  0.00    +0.009 A 
ATOM      5  C   UNL     1       0.032   4.242   0.025  0.00  0.00    +0.001 A 
ATOM      6  C   UNL     1      -1.178   3.561   0.033  0.00  0.00    +0.001 A 
ATOM      7  C   UNL     1      -1.212   2.183   0.031  0.00  0.00    +0.014 A 
ATOM      8  C   UNL     1      -0.018   1.466   0.010  0.00  0.00    +0.046 A 
ATOM      9  C   UNL     1       0.002  -0.004   0.002  0.00  0.00    +0.257 A 
ATOM     10  O   UNL     1      -1.041  -0.632   0.008  0.00  0.00    -0.267 OA
ATOM     11  N   UNL     1       1.184  -0.650  -0.013  0.00  0.00    -0.318 N 
ATOM     12  H   UNL     1       1.189  -1.620  -0.018  0.00  0.00    +0.169 HD
ENDROOT
BRANCH   1  14
ATOM     13  N   UNL     1       3.598  -2.100  -0.044  0.00  0.00    -0.308 N 
ATOM     14  C   UNL     1       3.640  -0.753  -0.037  0.00  0.00    +0.261 C 
ATOM     15  O   UNL     1       4.712  -0.178  -0.044  0.00  0.00    -0.269 OA
ATOM     16  H   UNL     1       2.744  -2.559  -0.039  0.00  0.00    +0.149 HD
BRANCH  13  17
ATOM     17  C   UNL     1       4.844  -2.872  -0.061  0.00  0.00    +0.070 C 
ATOM     18  C   UNL     1       5.330  -3.025  -1.504  0.00  0.00    +0.028 C 
BRANCH  17  20
ATOM     19  C   UNL     1       4.230  -4.108   2.022  0.00  0.00    +0.005 C 
ATOM     20  C   UNL     1       4.595  -4.255   0.543  0.00  0.00    +0.018 C 
ENDBRANCH  17  20
ENDBRANCH  13  17
ENDBRANCH   1  14
TORSDOF 3
