REMARK  Name = ZINC35279474
REMARK  3 active torsions:
REMARK  status: ('A' for Active; 'I' for Inactive)
REMARK    1  A    between atoms: C_4  and  N_19
REMARK    2  A    between atoms: C_6  and  C_7
REMARK    3  A    between atoms: C_13  and  C_16
REMARK                            x       y       z     vdW  Elec       q    Type
REMARK                         _______ _______ _______ _____ _____    ______ ____
ROOT
ATOM      1  C   UNL     1      -1.266  -0.762   0.011  0.00  0.00    +0.247 C 
ATOM      2  O   UNL     1      -1.251  -1.972  -0.103  0.00  0.00    -0.270 OA
ATOM      3  N   UNL     1      -2.440  -0.110   0.128  0.00  0.00    -0.297 N 
ATOM      4  C   UNL     1      -2.484   1.358   0.131  0.00  0.00    +0.108 C 
ATOM      5  C   UNL     1      -3.470   1.825  -0.944  0.00  0.00    +0.020 C 
ATOM      6  C   UNL     1      -4.826   1.155  -0.711  0.00  0.00    +0.016 C 
ATOM      7  C   UNL     1      -4.673  -0.363  -0.823  0.00  0.00    +0.092 C 
ATOM      8  C   UNL     1      -3.701  -0.855   0.247  0.00  0.00    +0.120 C 
ENDROOT
BRANCH   1  14
ATOM      9  C   UNL     1       1.030  -0.350  -0.860  0.00  0.00    +0.016 A 
ATOM     10  C   UNL     1       2.214   0.358  -0.850  0.00  0.00    +0.041 A 
ATOM     11  C   UNL     1       2.389   1.410   0.032  0.00  0.00    +0.144 A 
ATOM     12  C   UNL     1       1.370   1.761   0.915  0.00  0.00    +0.061 A 
ATOM     13  C   UNL     1       0.178   1.056   0.911  0.00  0.00    +0.038 A 
ATOM     14  C   UNL     1       0.003  -0.006   0.021  0.00  0.00    +0.039 A 
ATOM     15  F   UNL     1       3.551   2.099   0.038  0.00  0.00    -0.204 F 
BRANCH  12  16
ATOM     16  N   UNL     1       1.550   2.825   1.805  0.00  0.00    -0.356 N 
ATOM     17  H   UNL     1       2.385   3.318   1.808  0.00  0.00    +0.142 HD
ATOM     18  H   UNL     1       0.840   3.069   2.419  0.00  0.00    +0.142 HD
ENDBRANCH  12  16
ENDBRANCH   1  14
BRANCH   7  19
ATOM     19  C   UNL     1      -6.015  -1.020  -0.627  0.00  0.00    +0.215 C 
ATOM     20  O   UNL     1      -6.998  -0.341  -0.418  0.00  0.00    -0.276 OA
ATOM     21  N   UNL     1      -6.123  -2.362  -0.683  0.00  0.00    -0.329 N 
ATOM     22  H   UNL     1      -5.337  -2.906  -0.850  0.00  0.00    +0.145 HD
ATOM     23  H   UNL     1      -6.987  -2.785  -0.557  0.00  0.00    +0.145 HD
ENDBRANCH   7  19
TORSDOF 3
