REMARK  Name = ZINC14456434
REMARK  4 active torsions:
REMARK  status: ('A' for Active; 'I' for Inactive)
REMARK    1  A    between atoms: C_1  and  C_2
REMARK    2  A    between atoms: C_5  and  C_7
REMARK    3  A    between atoms: C_18  and  N_24
REMARK    4  A    between atoms: C_20  and  O_23
REMARK                            x       y       z     vdW  Elec       q    Type
REMARK                         _______ _______ _______ _____ _____    ______ ____
ROOT
ATOM      1  C   UNL     1       3.603   3.558  -0.055  0.00  0.00    +0.112 C 
ATOM      2  C   UNL     1       2.428   4.033   0.773  0.00  0.00    +0.029 C 
ATOM      3  C   UNL     1       2.133   5.537   0.807  0.00  0.00    +0.033 C 
ATOM      4  C   UNL     1       0.602   5.528   1.012  0.00  0.00    -0.030 C 
ATOM      5  C   UNL     1       0.081   4.393   0.560  0.00  0.00    -0.023 C 
ATOM      6  C   UNL     1       1.170   3.575  -0.029  0.00  0.00    +0.049 C 
ATOM      7  C   UNL     1       1.162   2.096   0.002  0.00  0.00    -0.014 A 
ATOM      8  C   UNL     1      -0.017   1.377   0.010  0.00  0.00    +0.039 A 
ATOM      9  C   UNL     1       0.002  -0.004   0.002  0.00  0.00    +0.130 A 
ATOM     10  C   UNL     1       1.214  -0.672  -0.011  0.00  0.00    +0.080 A 
ATOM     11  C   UNL     1       2.398   0.038  -0.008  0.00  0.00    +0.140 A 
ATOM     12  C   UNL     1       2.393   1.438   0.004  0.00  0.00    +0.074 A 
ATOM     13  N   UNL     1       3.627   2.089   0.031  0.00  0.00    -0.333 N 
ATOM     14  H   UNL     1       4.257   1.697  -0.653  0.00  0.00    +0.147 HD
ENDROOT
BRANCH   1  19
ATOM     15  C   UNL     1       8.337   4.990   2.708  0.00  0.00    +0.051 C 
ATOM     16  C   UNL     1       7.139   4.807   1.812  0.00  0.00    -0.013 A 
ATOM     17  C   UNL     1       6.783   5.511   0.710  0.00  0.00    +0.011 A 
ATOM     18  C   UNL     1       5.631   5.159   0.032  0.00  0.00    +0.013 A 
ATOM     19  C   UNL     1       4.886   4.126   0.496  0.00  0.00    +0.010 A 
ATOM     20  S   UNL     1       5.822   3.608   1.925  0.00  0.00    -0.097 S 
ENDBRANCH   1  19
BRANCH   9  21
ATOM     21  N   UNL     1      -1.267  -0.765   0.008  0.00  0.00    +0.057 N 
ATOM     22  O   UNL     1      -2.332  -0.174   0.020  0.00  0.00    -0.126 OA
ATOM     23  O   UNL     1      -1.247  -1.983   0.001  0.00  0.00    -0.126 OA
ENDBRANCH   9  21
BRANCH  11  24
ATOM     24  O   UNL     1       3.583  -0.630  -0.016  0.00  0.00    -0.505 OA
ATOM     25  H   UNL     1       3.923  -0.816  -0.901  0.00  0.00    +0.292 HD
ENDBRANCH  11  24
TORSDOF 3
