REMARK  Name = ZINC08986199
REMARK  18 active torsions:
REMARK  status: ('A' for Active; 'I' for Inactive)
REMARK    1  A    between atoms: C_1  and  C_2
REMARK    2  A    between atoms: C_2  and  N_72
REMARK    3  A    between atoms: C_3  and  C_4
REMARK    4  A    between atoms: C_3  and  N_72
REMARK    5  A    between atoms: C_5  and  C_6
REMARK    6  A    between atoms: C_5  and  N_72
REMARK    7  A    between atoms: C_6  and  N_7
REMARK    8  A    between atoms: C_8  and  C_26
REMARK    9  A    between atoms: C_11  and  C_12
REMARK   10  A    between atoms: C_11  and  O_21
REMARK   11  A    between atoms: C_15  and  O_19
REMARK   12  A    between atoms: C_16  and  C_18
REMARK   13  A    between atoms: O_19  and  C_20
REMARK   14  A    between atoms: C_29  and  O_34
REMARK   15  A    between atoms: C_30  and  O_32
REMARK   16  A    between atoms: O_32  and  C_33
REMARK   17  A    between atoms: O_34  and  C_35
REMARK   18  A    between atoms: C_35  and  C_36
REMARK                            x       y       z     vdW  Elec       q    Type
REMARK                         _______ _______ _______ _____ _____    ______ ____
ROOT
ATOM      1  N   UNL     1       3.668  -1.011  -0.765  0.00  0.00    -0.285 N 
ATOM      2  C   UNL     1       2.257  -0.669  -0.562  0.00  0.00    +0.144 C 
ATOM      3  C   UNL     1       2.190   0.836  -0.445  0.00  0.00    +0.071 C 
ATOM      4  C   UNL     1       1.058   1.603  -0.246  0.00  0.00    +0.133 C 
ATOM      5  C   UNL     1       3.507   1.298  -0.583  0.00  0.00    +0.249 C 
ATOM      6  O   UNL     1       3.863   2.462  -0.551  0.00  0.00    -0.282 OA
ATOM      7  C   UNL     1       4.394   0.119  -0.774  0.00  0.00    +0.288 C 
ATOM      8  O   UNL     1       5.598   0.171  -0.923  0.00  0.00    -0.266 OA
ENDROOT
BRANCH   4   9
ATOM      9  C   UNL     1       1.183   3.047   0.005  0.00  0.00    +0.017 A 
ATOM     10  C   UNL     1       1.956   3.509   1.077  0.00  0.00    +0.015 A 
ATOM     11  C   UNL     1       2.075   4.860   1.305  0.00  0.00    +0.046 A 
ATOM     12  C   UNL     1       1.418   5.767   0.480  0.00  0.00    +0.123 A 
ATOM     13  C   UNL     1       0.644   5.314  -0.582  0.00  0.00    -0.008 A 
ATOM     14  C   UNL     1       0.524   3.964  -0.822  0.00  0.00    +0.018 A 
ATOM     15  C   UNL     1      -0.065   6.302  -1.472  0.00  0.00    +0.047 C 
BRANCH  12  16
ATOM     16  O   UNL     1       1.534   7.099   0.712  0.00  0.00    -0.495 OA
ATOM     17  C   UNL     1       2.345   7.497   1.820  0.00  0.00    +0.277 C 
ENDBRANCH  12  16
ENDBRANCH   4   9
BRANCH   2  18
ATOM     18  C   UNL     1       1.746  -1.309   0.703  0.00  0.00    -0.019 A 
ATOM     19  C   UNL     1       2.558  -1.373   1.820  0.00  0.00    +0.009 A 
ATOM     20  C   UNL     1       2.094  -1.958   2.983  0.00  0.00    +0.050 A 
ATOM     21  C   UNL     1       0.813  -2.483   3.031  0.00  0.00    +0.162 A 
ATOM     22  C   UNL     1      -0.005  -2.419   1.907  0.00  0.00    +0.162 A 
ATOM     23  C   UNL     1       0.465  -1.826   0.746  0.00  0.00    +0.055 A 
BRANCH  22  24
ATOM     24  O   UNL     1      -1.263  -2.933   1.949  0.00  0.00    -0.491 OA
ATOM     25  C   UNL     1      -2.045  -2.831   0.757  0.00  0.00    +0.277 C 
ENDBRANCH  22  24
BRANCH  21  26
ATOM     26  O   UNL     1       0.355  -3.060   4.175  0.00  0.00    -0.489 OA
BRANCH  26  27
ATOM     27  C   UNL     1       1.249  -3.090   5.289  0.00  0.00    +0.226 C 
ATOM     28  C   UNL     1       0.562  -3.771   6.475  0.00  0.00    +0.048 C 
ENDBRANCH  26  27
ENDBRANCH  21  26
ENDBRANCH   2  18
BRANCH   4  29
ATOM     29  O   UNL     1      -0.163   1.027  -0.284  0.00  0.00    -0.506 OA
ATOM     30  H   UNL     1      -0.864   1.722  -0.122  0.00  0.00    +0.292 HD
ENDBRANCH   4  29
BRANCH   1  31
ATOM     31  C   UNL     1       4.200  -2.366  -0.929  0.00  0.00    +0.090 C 
BRANCH  31  32
ATOM     32  C   UNL     1       4.205  -2.735  -2.414  0.00  0.00    -0.060 C 
BRANCH  32  33
ATOM     33  N   UNL     1       4.764  -4.095  -2.566  0.00  0.00    +0.380 N 
ATOM     34  H   UNL     1       5.664  -4.143  -2.075  0.00  0.00    -0.082 HD
BRANCH  33  36
ATOM     35  C   UNL     1       2.501  -5.080  -2.712  0.00  0.00    -0.017 C 
ATOM     36  C   UNL     1       3.842  -5.089  -1.976  0.00  0.00    -0.082 C 
ENDBRANCH  33  36
BRANCH  33  37
ATOM     37  C   UNL     1       4.981  -4.396  -3.997  0.00  0.00    -0.082 C 
ATOM     38  C   UNL     1       5.872  -5.634  -4.109  0.00  0.00    -0.017 C 
ENDBRANCH  33  37
ENDBRANCH  32  33
ENDBRANCH  31  32
ENDBRANCH   1  31
TORSDOF 12
