REMARK  Name = ZINC36889821
REMARK  1 active torsions:
REMARK  status: ('A' for Active; 'I' for Inactive)
REMARK    1  A    between atoms: C_6  and  N_7
REMARK                            x       y       z     vdW  Elec       q    Type
REMARK                         _______ _______ _______ _____ _____    ______ ____
ROOT
ATOM      1  N   UNL     1      -1.203  -0.722   0.008  0.00  0.00    -0.281 N 
ATOM      2  C   UNL     1      -2.146  -0.740   1.025  0.00  0.00    +0.075 A 
ATOM      3  C   UNL     1      -2.234  -0.126   2.265  0.00  0.00    +0.030 A 
ATOM      4  C   UNL     1      -3.333  -0.352   3.067  0.00  0.00    +0.022 A 
ATOM      5  C   UNL     1      -4.353  -1.191   2.641  0.00  0.00    +0.043 A 
ATOM      6  C   UNL     1      -4.282  -1.809   1.412  0.00  0.00    +0.050 A 
ATOM      7  C   UNL     1      -3.176  -1.590   0.588  0.00  0.00    +0.093 A 
ATOM      8  N   UNL     1      -2.825  -2.043  -0.645  0.00  0.00    -0.214 NA
ATOM      9  C   UNL     1      -1.670  -1.532  -0.991  0.00  0.00    +0.199 A 
ATOM     10  N   UNL     1      -1.021  -1.775  -2.183  0.00  0.00    -0.329 N 
ATOM     11 CL   UNL     1      -5.729  -1.464   3.665  0.00  0.00    -0.083 Cl
ATOM     12  H   UNL     1      -0.164  -1.358  -2.362  0.00  0.00    +0.145 HD
ATOM     13  H   UNL     1      -1.421  -2.364  -2.841  0.00  0.00    +0.145 HD
ENDROOT
BRANCH   1  19
ATOM     14  C   UNL     1      -0.017   1.384   0.010  0.00  0.00    +0.030 A 
ATOM     15  C   UNL     1       1.170   2.091   0.002  0.00  0.00    +0.051 A 
ATOM     16  C   UNL     1       2.382   1.419  -0.013  0.00  0.00    +0.162 A 
ATOM     17  C   UNL     1       2.404   0.029  -0.018  0.00  0.00    +0.164 A 
ATOM     18  C   UNL     1       1.214  -0.681  -0.012  0.00  0.00    +0.075 A 
ATOM     19  C   UNL     1       0.002  -0.004   0.002  0.00  0.00    +0.053 A 
ATOM     20  O   UNL     1       3.585  -0.649  -0.025  0.00  0.00    -0.485 OA
ATOM     21  C   UNL     1       4.750   0.090  -0.406  0.00  0.00    +0.270 C 
ATOM     22  C   UNL     1       4.734   1.431   0.341  0.00  0.00    +0.270 C 
ATOM     23  O   UNL     1       3.542   2.133  -0.024  0.00  0.00    -0.485 OA
ENDBRANCH   1  19
TORSDOF 1
