REMARK  Name = ZINC37601892
REMARK  10 active torsions:
REMARK  status: ('A' for Active; 'I' for Inactive)
REMARK    1  A    between atoms: C_1  and  C_2
REMARK    2  A    between atoms: C_2  and  C_3
REMARK    3  A    between atoms: C_2  and  C_4
REMARK    4  A    between atoms: C_12  and  O_23
REMARK    5  A    between atoms: C_15  and  C_17
REMARK    6  A    between atoms: O_23  and  C_24
REMARK    7  A    between atoms: C_24  and  C_25
REMARK    8  A    between atoms: C_27  and  C_30
REMARK    9  A    between atoms: N_32  and  C_33
REMARK   10  A    between atoms: C_33  and  C_34
REMARK                            x       y       z     vdW  Elec       q    Type
REMARK                         _______ _______ _______ _____ _____    ______ ____
ROOT
ATOM      1  C   UNL     1      -1.741   0.035   0.583  0.00  0.00    +0.219 C 
ATOM      2  O   UNL     1      -2.120  -0.632   1.522  0.00  0.00    -0.275 OA
ATOM      3  N   UNL     1      -2.445   0.039  -0.567  0.00  0.00    -0.290 N 
ATOM      4  C   UNL     1      -1.971   0.774  -1.752  0.00  0.00    +0.113 C 
ATOM      5  C   UNL     1      -1.681  -0.246  -2.852  0.00  0.00    +0.054 C 
ATOM      6  C   UNL     1      -2.821  -1.221  -2.993  0.00  0.00    -0.040 A 
ATOM      7  C   UNL     1      -2.922  -1.923  -4.189  0.00  0.00    +0.007 A 
ATOM      8  C   UNL     1      -3.934  -2.838  -4.382  0.00  0.00    +0.046 A 
ATOM      9  C   UNL     1      -4.862  -3.063  -3.376  0.00  0.00    +0.121 A 
ATOM     10  C   UNL     1      -4.764  -2.361  -2.186  0.00  0.00    +0.051 A 
ATOM     11  C   UNL     1      -3.747  -1.436  -1.997  0.00  0.00    -0.016 A 
ATOM     12  C   UNL     1      -3.710  -0.692  -0.690  0.00  0.00    +0.137 C 
ENDROOT
BRANCH  12  13
ATOM     13  C   UNL     1      -3.836  -1.672   0.448  0.00  0.00    -0.023 A 
ATOM     14  C   UNL     1      -2.930  -2.709   0.570  0.00  0.00    +0.006 A 
ATOM     15  C   UNL     1      -3.045  -3.608   1.613  0.00  0.00    +0.000 A 
ATOM     16  C   UNL     1      -4.065  -3.470   2.536  0.00  0.00    +0.000 A 
ATOM     17  C   UNL     1      -4.971  -2.432   2.414  0.00  0.00    +0.000 A 
ATOM     18  C   UNL     1      -4.853  -1.531   1.373  0.00  0.00    +0.006 A 
ENDBRANCH  12  13
BRANCH   1  20
ATOM     19  C   UNL     1      -0.844   2.277   1.146  0.00  0.00    +0.017 C 
ATOM     20  C   UNL     1      -0.485   0.858   0.700  0.00  0.00    +0.069 C 
ATOM     21  C   UNL     1       0.448   0.221   1.732  0.00  0.00    +0.017 C 
ENDBRANCH   1  20
BRANCH   9  22
ATOM     22  O   UNL     1      -5.862  -3.966  -3.556  0.00  0.00    -0.485 OA
BRANCH  22  23
ATOM     23  C   UNL     1      -5.898  -4.652  -4.809  0.00  0.00    +0.291 C 
BRANCH  23  24
ATOM     24  C   UNL     1      -7.065  -5.605  -4.826  0.00  0.00    +0.116 A 
ATOM     25  N   UNL     1      -8.286  -5.377  -5.227  0.00  0.00    -0.236 NA
ATOM     26  C   UNL     1      -9.175  -6.373  -5.156  0.00  0.00    +0.133 A 
ATOM     27  C   UNL     1      -8.709  -7.561  -4.660  0.00  0.00    +0.080 A 
ATOM     28  S   UNL     1      -7.096  -7.212  -4.340  0.00  0.00    -0.076 S 
BRANCH  26  29
ATOM     29  C   UNL     1     -10.573  -6.202  -5.586  0.00  0.00    +0.263 C 
ATOM     30  O   UNL     1     -11.351  -7.133  -5.505  0.00  0.00    -0.269 OA
ATOM     31  N   UNL     1     -10.989  -5.015  -6.069  0.00  0.00    -0.303 N 
ATOM     32  H   UNL     1     -10.368  -4.273  -6.133  0.00  0.00    +0.150 HD
BRANCH  31  33
ATOM     33  C   UNL     1     -12.380  -4.845  -6.497  0.00  0.00    +0.179 C 
BRANCH  33  34
ATOM     34  C   UNL     1     -12.585  -3.437  -6.992  0.00  0.00    +0.122 A 
ATOM     35  C   UNL     1     -12.425  -3.018  -8.260  0.00  0.00    +0.046 A 
ATOM     36  C   UNL     1     -12.720  -1.635  -8.275  0.00  0.00    +0.041 A 
ATOM     37  C   UNL     1     -13.042  -1.292  -7.014  0.00  0.00    +0.195 A 
ATOM     38  O   UNL     1     -12.964  -2.389  -6.243  0.00  0.00    -0.466 OA
ENDBRANCH  33  34
ENDBRANCH  31  33
ENDBRANCH  26  29
ENDBRANCH  23  24
ENDBRANCH  22  23
ENDBRANCH   9  22
TORSDOF 8
