REMARK  Name = ZINC37906179
REMARK  3 active torsions:
REMARK  status: ('A' for Active; 'I' for Inactive)
REMARK    1  A    between atoms: C_3  and  N_19
REMARK    2  A    between atoms: N_7  and  C_11
REMARK    3  A    between atoms: C_11  and  C_12
REMARK                            x       y       z     vdW  Elec       q    Type
REMARK                         _______ _______ _______ _____ _____    ______ ____
ROOT
ATOM      1  C   UNL     1      -0.017   1.377   0.010  0.00  0.00    +0.004 A 
ATOM      2  C   UNL     1       1.171   2.083   0.002  0.00  0.00    +0.023 A 
ATOM      3  C   UNL     1       2.383   1.407  -0.015  0.00  0.00    +0.030 A 
ATOM      4  C   UNL     1       2.407   0.016  -0.024  0.00  0.00    -0.006 A 
ATOM      5  C   UNL     1       1.214  -0.687  -0.013  0.00  0.00    +0.035 A 
ATOM      6  C   UNL     1       0.002  -0.004   0.002  0.00  0.00    +0.023 A 
ATOM      7  N   UNL     1       1.207  -2.087  -0.013  0.00  0.00    -0.327 N 
ATOM      8  C   UNL     1       2.450  -2.804  -0.328  0.00  0.00    +0.105 C 
ATOM      9  C   UNL     1       3.589  -2.128   0.446  0.00  0.00    +0.024 C 
ATOM     10  C   UNL     1       3.737  -0.690  -0.049  0.00  0.00    +0.040 C 
ENDROOT
BRANCH   3  11
ATOM     11  N   UNL     1       3.581   2.125  -0.024  0.00  0.00    -0.358 N 
ATOM     12  H   UNL     1       3.565   3.095  -0.018  0.00  0.00    +0.142 HD
ATOM     13  H   UNL     1       4.429   1.653  -0.037  0.00  0.00    +0.142 HD
ENDBRANCH   3  11
BRANCH   7  14
ATOM     14  C   UNL     1      -0.021  -2.824   0.296  0.00  0.00    +0.136 C 
BRANCH  14  15
ATOM     15  C   UNL     1      -0.802  -3.079  -0.994  0.00  0.00    +0.140 C 
ATOM     16  C   UNL     1      -2.141  -3.745  -0.660  0.00  0.00    +0.061 C 
ATOM     17  C   UNL     1      -2.847  -4.121  -1.968  0.00  0.00    +0.165 C 
ATOM     18  O   UNL     1      -1.965  -4.926  -2.757  0.00  0.00    -0.354 OA
ATOM     19  C   UNL     1      -0.721  -4.290  -3.061  0.00  0.00    +0.323 C 
ATOM     20  O   UNL     1      -0.049  -3.949  -1.846  0.00  0.00    -0.349 OA
ENDBRANCH  14  15
ENDBRANCH   7  14
TORSDOF 3
