REMARK  Name = ZINC25692897
REMARK  10 active torsions:
REMARK  status: ('A' for Active; 'I' for Inactive)
REMARK    1  A    between atoms: C_1  and  C_2
REMARK    2  A    between atoms: C_4  and  S_39
REMARK    3  A    between atoms: N_6  and  C_12
REMARK    4  A    between atoms: C_15  and  O_30
REMARK    5  A    between atoms: C_17  and  C_20
REMARK    6  A    between atoms: C_20  and  O_21
REMARK    7  A    between atoms: O_21  and  C_22
REMARK    8  A    between atoms: C_22  and  C_24
REMARK    9  A    between atoms: O_30  and  C_31
REMARK   10  A    between atoms: C_31  and  C_33
REMARK                            x       y       z     vdW  Elec       q    Type
REMARK                         _______ _______ _______ _____ _____    ______ ____
ROOT
ATOM      1  C   UNL     1       1.459   2.432   1.838  0.00  0.00    +0.215 C 
ATOM      2  C   UNL     1       1.109   1.448   0.700  0.00  0.00    +0.099 C 
ATOM      3  C   UNL     1      -0.310   0.952   1.056  0.00  0.00    +0.213 C 
ATOM      4  C   UNL     1      -0.650   1.695   2.367  0.00  0.00    +0.199 C 
ATOM      5  O   UNL     1       0.631   2.023   2.948  0.00  0.00    -0.348 OA
ENDROOT
BRANCH   1   9
ATOM      6  C   UNL     1       4.166   4.104   4.288  0.00  0.00    +0.020 C 
ATOM      7  C   UNL     1       4.823   3.549   3.023  0.00  0.00    +0.103 C 
ATOM      8  C   UNL     1       3.780   3.440   1.904  0.00  0.00    +0.146 C 
ATOM      9  N   UNL     1       2.877   2.323   2.189  0.00  0.00    -0.247 N 
ATOM     10  C   UNL     1       3.333   1.197   2.762  0.00  0.00    +0.311 C 
ATOM     11  O   UNL     1       2.582   0.249   2.885  0.00  0.00    -0.252 OA
ATOM     12  N   UNL     1       4.598   1.094   3.203  0.00  0.00    -0.240 N 
ATOM     13  C   UNL     1       5.386   2.179   3.307  0.00  0.00    +0.226 C 
ATOM     14  O   UNL     1       6.548   2.056   3.630  0.00  0.00    -0.275 OA
ATOM     15  H   UNL     1       5.003   0.111   3.484  0.00  0.00    +0.159 HD
BRANCH   8  16
ATOM     16  S   UNL     1       2.825   4.981   1.816  0.00  0.00    -0.155 S 
ATOM     17  H   UNL     1       2.026   5.090   1.069  0.00  0.00    +0.103 HD
ENDBRANCH   8  16
ENDBRANCH   1   9
BRANCH   4  18
ATOM     18  C   UNL     1      -1.443   0.784   3.306  0.00  0.00    +0.267 C 
BRANCH  18  19
ATOM     19  O   UNL     1      -1.853   1.536   4.478  0.00  0.00    -0.458 OA
BRANCH  19  20
ATOM     20  C   UNL     1      -2.567   0.875   5.410  0.00  0.00    +0.339 C 
ATOM     21  O   UNL     1      -2.838  -0.297   5.248  0.00  0.00    -0.245 OA
BRANCH  20  22
ATOM     22  C   UNL     1      -3.018   1.577   6.630  0.00  0.00    +0.059 A 
ATOM     23  C   UNL     1      -2.702   2.923   6.822  0.00  0.00    +0.015 A 
ATOM     24  C   UNL     1      -3.132   3.573   7.960  0.00  0.00    +0.001 A 
ATOM     25  C   UNL     1      -3.864   2.891   8.915  0.00  0.00    +0.000 A 
ATOM     26  C   UNL     1      -4.176   1.555   8.734  0.00  0.00    +0.001 A 
ATOM     27  C   UNL     1      -3.757   0.894   7.598  0.00  0.00    +0.015 A 
ENDBRANCH  20  22
ENDBRANCH  19  20
ENDBRANCH  18  19
ENDBRANCH   4  18
BRANCH   3  28
ATOM     28  O   UNL     1      -1.251   1.307   0.009  0.00  0.00    -0.455 OA
BRANCH  28  29
ATOM     29  C   UNL     1      -1.474   0.387  -0.950  0.00  0.00    +0.340 C 
ATOM     30  O   UNL     1      -0.898  -0.682  -0.912  0.00  0.00    -0.245 OA
BRANCH  29  31
ATOM     31  C   UNL     1      -2.418   0.679  -2.048  0.00  0.00    +0.059 A 
ATOM     32  C   UNL     1      -3.086   1.904  -2.092  0.00  0.00    +0.015 A 
ATOM     33  C   UNL     1      -3.963   2.171  -3.122  0.00  0.00    +0.001 A 
ATOM     34  C   UNL     1      -4.190   1.225  -4.105  0.00  0.00    +0.000 A 
ATOM     35  C   UNL     1      -3.535   0.006  -4.066  0.00  0.00    +0.001 A 
ATOM     36  C   UNL     1      -2.651  -0.272  -3.043  0.00  0.00    +0.015 A 
ENDBRANCH  29  31
ENDBRANCH  28  29
ENDBRANCH   3  28
TORSDOF 9
