REMARK  Name = ZINC39919011
REMARK  11 active torsions:
REMARK  status: ('A' for Active; 'I' for Inactive)
REMARK    1  A    between atoms: C_1  and  C_2
REMARK    2  A    between atoms: C_6  and  C_8
REMARK    3  A    between atoms: C_8  and  N_9
REMARK    4  A    between atoms: C_22  and  C_31
REMARK    5  A    between atoms: N_23  and  C_26
REMARK    6  A    between atoms: C_26  and  C_27
REMARK    7  A    between atoms: C_27  and  N_28
REMARK    8  A    between atoms: N_28  and  C_29
REMARK    9  A    between atoms: N_28  and  C_30
REMARK   10  A    between atoms: C_33  and  N_37
REMARK   11  A    between atoms: C_34  and  C_35
REMARK                            x       y       z     vdW  Elec       q    Type
REMARK                         _______ _______ _______ _____ _____    ______ ____
ROOT
ATOM      1  N   UNL     1       1.440  -3.073   2.903  0.00  0.00    -0.265 N 
ATOM      2  C   UNL     1       2.184  -4.181   2.538  0.00  0.00    +0.041 A 
ATOM      3  C   UNL     1       1.820  -5.271   1.746  0.00  0.00    +0.024 A 
ATOM      4  C   UNL     1       2.777  -6.253   1.540  0.00  0.00    +0.002 A 
ATOM      5  C   UNL     1       4.039  -6.169   2.090  0.00  0.00    +0.000 A 
ATOM      6  C   UNL     1       4.414  -5.089   2.882  0.00  0.00    +0.007 A 
ATOM      7  C   UNL     1       3.468  -4.109   3.091  0.00  0.00    -0.001 A 
ATOM      8  C   UNL     1       3.518  -2.834   3.873  0.00  0.00    +0.147 C 
ATOM      9  C   UNL     1       2.144  -2.225   3.681  0.00  0.00    +0.241 C 
ATOM     10  O   UNL     1       1.751  -1.174   4.141  0.00  0.00    -0.274 OA
ATOM     11  C   UNL     1       4.566  -1.909   3.325  0.00  0.00    +0.084 A 
ATOM     12  C   UNL     1       5.739  -1.689   4.018  0.00  0.00    +0.142 A 
ATOM     13  C   UNL     1       6.699  -0.810   3.475  0.00  0.00    +0.068 A 
ATOM     14  C   UNL     1       6.460  -0.204   2.292  0.00  0.00    +0.022 A 
ATOM     15  N   UNL     1       5.305  -0.429   1.613  0.00  0.00    -0.314 N 
ATOM     16  C   UNL     1       4.363  -1.259   2.101  0.00  0.00    +0.260 A 
ATOM     17  O   UNL     1       3.331  -1.444   1.476  0.00  0.00    -0.267 OA
ATOM     18  C   UNL     1       7.489   0.735   1.718  0.00  0.00    +0.064 C 
ATOM     19  O   UNL     1       5.977  -2.302   5.197  0.00  0.00    -0.441 OA
ATOM     20  C   UNL     1       4.960  -2.831   5.900  0.00  0.00    +0.199 C 
ATOM     21  C   UNL     1       3.763  -3.108   5.329  0.00  0.00    +0.110 C 
ENDROOT
BRANCH  20  22
ATOM     22  N   UNL     1       5.140  -3.099   7.234  0.00  0.00    -0.328 N 
ATOM     23  H   UNL     1       5.992  -2.906   7.657  0.00  0.00    +0.145 HD
ATOM     24  H   UNL     1       4.416  -3.481   7.754  0.00  0.00    +0.145 HD
ENDBRANCH  20  22
BRANCH  21  25
ATOM     25  C   UNL     1       2.714  -3.670   6.127  0.00  0.00    +0.102 C 
ATOM     26  N   UNL     1       1.883  -4.115   6.759  0.00  0.00    -0.191 NA
ENDBRANCH  21  25
BRANCH   1  27
ATOM     27  C   UNL     1       0.054  -2.845   2.489  0.00  0.00    +0.148 C 
BRANCH  27  33
ATOM     28  C   UNL     1      -0.018   1.503   0.010  0.00  0.00    +0.044 C 
ATOM     29  C   UNL     1       0.002  -0.004   0.002  0.00  0.00    -0.050 A 
ATOM     30  C   UNL     1       0.006  -0.689  -1.199  0.00  0.00    +0.003 A 
ATOM     31  C   UNL     1       0.025  -2.071  -1.207  0.00  0.00    +0.001 A 
ATOM     32  C   UNL     1       0.040  -2.768  -0.013  0.00  0.00    +0.005 A 
ATOM     33  C   UNL     1       0.037  -2.084   1.188  0.00  0.00    -0.029 A 
ATOM     34  C   UNL     1       0.023  -0.702   1.195  0.00  0.00    +0.008 A 
ENDBRANCH  27  33
ENDBRANCH   1  27
BRANCH  15  35
ATOM     35  C   UNL     1       5.081   0.241   0.330  0.00  0.00    +0.106 C 
BRANCH  35  36
ATOM     36  C   UNL     1       5.622  -0.633  -0.803  0.00  0.00    -0.058 C 
BRANCH  36  37
ATOM     37  N   UNL     1       5.397   0.038  -2.090  0.00  0.00    +0.377 N 
ATOM     38  C   UNL     1       6.022  -0.742  -3.166  0.00  0.00    -0.097 C 
ATOM     39  C   UNL     1       3.954   0.148  -2.340  0.00  0.00    -0.097 C 
ATOM     40  H   UNL     1       5.805   0.961  -2.064  0.00  0.00    -0.083 HD
ENDBRANCH  36  37
ENDBRANCH  35  36
ENDBRANCH  15  35
TORSDOF 7
