REMARK  Name = ZINC04042773
REMARK  8 active torsions:
REMARK  status: ('A' for Active; 'I' for Inactive)
REMARK    1  A    between atoms: C_1  and  C_2
REMARK    2  A    between atoms: C_2  and  C_3
REMARK    3  A    between atoms: C_2  and  C_4
REMARK    4  A    between atoms: C_2  and  C_5
REMARK    5  A    between atoms: C_12  and  N_25
REMARK    6  A    between atoms: C_13  and  C_23
REMARK    7  A    between atoms: C_14  and  C_16
REMARK    8  A    between atoms: C_16  and  C_17
REMARK                            x       y       z     vdW  Elec       q    Type
REMARK                         _______ _______ _______ _____ _____    ______ ____
ROOT
ATOM      1  C   UNL     1       0.965  -0.715  -1.429  0.00  0.00    +0.049 A 
ATOM      2  C   UNL     1       0.909  -2.036  -1.655  0.00  0.00    +0.046 A 
ATOM      3  C   UNL     1       1.540  -2.297  -2.892  0.00  0.00    +0.244 A 
ATOM      4  N   UNL     1       1.956  -1.165  -3.378  0.00  0.00    -0.135 NA
ATOM      5  N   UNL     1       1.603  -0.146  -2.479  0.00  0.00    -0.277 N 
ATOM      6  H   UNL     1       1.786   0.800  -2.589  0.00  0.00    +0.189 HD
ATOM      7  O   UNL     1       1.639  -3.555  -3.399  0.00  0.00    -0.422 OA
ATOM      8  C   UNL     1       0.886  -4.516  -2.828  0.00  0.00    +0.200 C 
ATOM      9  C   UNL     1       0.247  -4.386  -1.646  0.00  0.00    +0.094 C 
ATOM     10  C   UNL     1       0.307  -3.131  -0.812  0.00  0.00    +0.076 C 
ENDROOT
BRANCH   1  12
ATOM     11  C   UNL     1       0.051   1.441  -0.615  0.00  0.00    +0.017 C 
ATOM     12  C   UNL     1       0.413   0.006  -0.227  0.00  0.00    +0.004 C 
ATOM     13  C   UNL     1       1.466   0.028   0.883  0.00  0.00    +0.017 C 
ATOM     14  C   UNL     1      -0.839  -0.719   0.272  0.00  0.00    +0.017 C 
ENDBRANCH   1  12
BRANCH   8  15
ATOM     15  N   UNL     1       0.760  -5.709  -3.494  0.00  0.00    -0.328 N 
ATOM     16  H   UNL     1       1.205  -5.838  -4.346  0.00  0.00    +0.145 HD
ATOM     17  H   UNL     1       0.225  -6.424  -3.113  0.00  0.00    +0.145 HD
ENDBRANCH   8  15
BRANCH   9  18
ATOM     18  C   UNL     1      -0.523  -5.492  -1.162  0.00  0.00    +0.100 C 
ATOM     19  N   UNL     1      -1.135  -6.369  -0.777  0.00  0.00    -0.191 NA
ENDBRANCH   9  18
BRANCH  10  20
ATOM     20  C   UNL     1       1.180  -3.372   0.421  0.00  0.00    +0.049 C 
BRANCH  20  21
ATOM     21  C   UNL     1       0.544  -4.427   1.289  0.00  0.00    -0.046 A 
ATOM     22  C   UNL     1      -0.354  -4.061   2.275  0.00  0.00    +0.003 A 
ATOM     23  C   UNL     1      -0.938  -5.029   3.071  0.00  0.00    +0.000 A 
ATOM     24  C   UNL     1      -0.625  -6.362   2.881  0.00  0.00    +0.000 A 
ATOM     25  C   UNL     1       0.272  -6.727   1.895  0.00  0.00    +0.000 A 
ATOM     26  C   UNL     1       0.853  -5.760   1.096  0.00  0.00    +0.003 A 
ENDBRANCH  20  21
ENDBRANCH  10  20
TORSDOF 5
