REMARK  Name = ZINC10603722
REMARK  9 active torsions:
REMARK  status: ('A' for Active; 'I' for Inactive)
REMARK    1  A    between atoms: C_4  and  N_21
REMARK    2  A    between atoms: C_5  and  C_7
REMARK    3  A    between atoms: C_7  and  O_9
REMARK    4  A    between atoms: O_9  and  C_10
REMARK    5  A    between atoms: C_10  and  C_11
REMARK    6  A    between atoms: C_11  and  C_13
REMARK    7  A    between atoms: N_21  and  S_22
REMARK    8  A    between atoms: S_22  and  C_25
REMARK    9  A    between atoms: C_29  and  N_31
REMARK                            x       y       z     vdW  Elec       q    Type
REMARK                         _______ _______ _______ _____ _____    ______ ____
ROOT
ATOM      1  C   UNL     1      -3.230   4.962  -4.047  0.00  0.00    +0.001 A 
ATOM      2  C   UNL     1      -3.479   5.321  -2.732  0.00  0.00    +0.002 A 
ATOM      3  C   UNL     1      -2.443   5.692  -1.900  0.00  0.00    +0.025 A 
ATOM      4  C   UNL     1      -1.140   5.720  -2.382  0.00  0.00    +0.062 A 
ATOM      5  C   UNL     1      -0.884   5.357  -3.714  0.00  0.00    +0.081 A 
ATOM      6  C   UNL     1      -1.944   4.978  -4.541  0.00  0.00    +0.017 A 
ENDROOT
BRANCH   5   7
ATOM      7  C   UNL     1       0.494   5.376  -4.235  0.00  0.00    +0.341 C 
ATOM      8  O   UNL     1       1.413   5.706  -3.512  0.00  0.00    -0.245 OA
BRANCH   7   9
ATOM      9  O   UNL     1       0.735   5.027  -5.514  0.00  0.00    -0.453 OA
BRANCH   9  10
ATOM     10  C   UNL     1       2.116   5.068  -5.960  0.00  0.00    +0.311 C 
BRANCH  10  11
ATOM     11  C   UNL     1       2.190   4.649  -7.406  0.00  0.00    +0.200 C 
ATOM     12  O   UNL     1       1.178   4.345  -8.002  0.00  0.00    -0.288 OA
BRANCH  11  13
ATOM     13  C   UNL     1       3.489   4.608  -8.094  0.00  0.00    +0.024 A 
ATOM     14  C   UNL     1       4.657   4.964  -7.411  0.00  0.00    +0.014 A 
ATOM     15  C   UNL     1       5.872   4.918  -8.058  0.00  0.00    +0.042 A 
ATOM     16  C   UNL     1       5.939   4.532  -9.388  0.00  0.00    +0.158 A 
ATOM     17  C   UNL     1       4.783   4.184 -10.075  0.00  0.00    +0.159 A 
ATOM     18  C   UNL     1       3.561   4.219  -9.436  0.00  0.00    +0.052 A 
ATOM     19  F   UNL     1       4.855   3.808 -11.371  0.00  0.00    -0.202 F 
ATOM     20  F   UNL     1       7.133   4.495 -10.019  0.00  0.00    -0.202 F 
ENDBRANCH  11  13
ENDBRANCH  10  11
ENDBRANCH   9  10
ENDBRANCH   7   9
ENDBRANCH   5   7
BRANCH   4  21
ATOM     21  N   UNL     1      -0.096   6.099  -1.549  0.00  0.00    -0.215 N 
ATOM     22  H   UNL     1       0.650   6.606  -1.906  0.00  0.00    +0.174 HD
BRANCH  21  23
ATOM     23  S   UNL     1      -0.124   5.686   0.055  0.00  0.00    +0.072 S 
ATOM     24  O   UNL     1      -1.367   6.143   0.570  0.00  0.00    -0.150 OA
ATOM     25  O   UNL     1       1.123   6.092   0.601  0.00  0.00    -0.150 OA
BRANCH  23  26
ATOM     26  C   UNL     1      -0.162   3.926   0.139  0.00  0.00    +0.111 A 
ATOM     27  C   UNL     1       1.021   3.211   0.186  0.00  0.00    +0.029 A 
ATOM     28  C   UNL     1       0.992   1.831   0.251  0.00  0.00    +0.004 A 
ATOM     29  C   UNL     1      -0.220   1.165   0.269  0.00  0.00    +0.033 A 
ATOM     30  C   UNL     1      -1.402   1.880   0.216  0.00  0.00    +0.128 A 
ATOM     31  C   UNL     1      -1.373   3.261   0.156  0.00  0.00    +0.061 A 
BRANCH  30  32
ATOM     32  N   UNL     1      -2.699   1.167   0.229  0.00  0.00    +0.056 N 
ATOM     33  O   UNL     1      -2.725  -0.050   0.286  0.00  0.00    -0.126 OA
ATOM     34  O   UNL     1      -3.741   1.796   0.182  0.00  0.00    -0.126 OA
ENDBRANCH  30  32
ENDBRANCH  23  26
ENDBRANCH  21  23
ENDBRANCH   4  21
TORSDOF 9
