REMARK  Name = ZINC28057108
REMARK  4 active torsions:
REMARK  status: ('A' for Active; 'I' for Inactive)
REMARK    1  A    between atoms: C_1  and  O_2
REMARK    2  A    between atoms: O_2  and  C_3
REMARK    3  A    between atoms: C_7  and  C_9
REMARK    4  A    between atoms: C_20  and  C_22
REMARK                            x       y       z     vdW  Elec       q    Type
REMARK                         _______ _______ _______ _____ _____    ______ ____
ROOT
ATOM      1  C   UNL     1       1.495   3.810   0.011  0.00  0.00    +0.174 C 
ATOM      2  C   UNL     1       2.033   4.183   1.371  0.00  0.00    +0.025 C 
ATOM      3  C   UNL     1       3.249   4.706   1.538  0.00  0.00    +0.050 C 
ATOM      4  C   UNL     1       3.703   5.011   2.917  0.00  0.00    +0.039 A 
ATOM      5  C   UNL     1       4.793   5.839   3.155  0.00  0.00    +0.033 A 
ATOM      6  C   UNL     1       5.181   6.096   4.457  0.00  0.00    +0.042 A 
ATOM      7  C   UNL     1       4.490   5.532   5.516  0.00  0.00    +0.023 A 
ATOM      8  C   UNL     1       3.405   4.706   5.286  0.00  0.00    +0.048 A 
ATOM      9  C   UNL     1       3.005   4.441   3.990  0.00  0.00    +0.131 A 
ATOM     10  O   UNL     1       1.944   3.638   3.723  0.00  0.00    -0.479 OA
ATOM     11  C   UNL     1       1.153   3.962   2.580  0.00  0.00    +0.234 C 
ATOM     12 CL   UNL     1       6.540   7.131   4.765  0.00  0.00    -0.084 Cl
ATOM     13  N   UNL     1       4.107   4.965   0.463  0.00  0.00    -0.282 N 
ATOM     14  C   UNL     1       3.563   4.916  -0.810  0.00  0.00    +0.240 A 
ATOM     15  N   UNL     1       2.334   4.381  -1.033  0.00  0.00    -0.201 N 
ATOM     16  N   UNL     1       2.115   4.512  -2.404  0.00  0.00    -0.042 NA
ATOM     17  N   UNL     1       3.169   5.081  -2.893  0.00  0.00    -0.021 NA
ATOM     18  N   UNL     1       4.025   5.319  -1.958  0.00  0.00    -0.092 NA
ATOM     19  H   UNL     1       5.167   5.196   0.647  0.00  0.00    +0.155 HD
ENDROOT
BRANCH  11  20
ATOM     20  C   UNL     1       0.369   5.219   2.860  0.00  0.00    -0.000 A 
ATOM     21  C   UNL     1       0.986   6.298   3.464  0.00  0.00    +0.009 A 
ATOM     22  C   UNL     1       0.268   7.451   3.721  0.00  0.00    +0.023 A 
ATOM     23  C   UNL     1      -1.068   7.526   3.373  0.00  0.00    +0.076 A 
ATOM     24  C   UNL     1      -1.687   6.444   2.767  0.00  0.00    +0.142 A 
ATOM     25  C   UNL     1      -0.965   5.293   2.506  0.00  0.00    +0.047 A 
ATOM     26  F   UNL     1      -2.993   6.516   2.426  0.00  0.00    -0.204 F 
ATOM     27 CL   UNL     1      -1.970   8.974   3.695  0.00  0.00    -0.081 Cl
ENDBRANCH  11  20
BRANCH   1  32
ATOM     28  C   UNL     1       0.270   0.267  -0.465  0.00  0.00    +0.120 A 
ATOM     29  C   UNL     1       1.456  -0.447  -0.375  0.00  0.00    +0.045 A 
ATOM     30  C   UNL     1       2.648   0.218  -0.161  0.00  0.00    +0.004 A 
ATOM     31  C   UNL     1       2.659   1.595  -0.036  0.00  0.00    +0.006 A 
ATOM     32  C   UNL     1       1.479   2.309  -0.125  0.00  0.00    -0.015 A 
ATOM     33  C   UNL     1       0.285   1.649  -0.339  0.00  0.00    +0.051 A 
BRANCH  28  35
ATOM     34  C   UNL     1      -0.842  -1.808  -0.795  0.00  0.00    +0.277 C 
ATOM     35  O   UNL     1      -0.903  -0.385  -0.676  0.00  0.00    -0.495 OA
ENDBRANCH  28  35
ENDBRANCH   1  32
TORSDOF 3
