REMARK  Name = ZINC34830600
REMARK  6 active torsions:
REMARK  status: ('A' for Active; 'I' for Inactive)
REMARK    1  A    between atoms: C_4  and  C_7
REMARK    2  A    between atoms: N_16  and  C_17
REMARK    3  A    between atoms: C_17  and  C_18
REMARK    4  A    between atoms: C_18  and  C_19
REMARK    5  A    between atoms: N_25  and  S_28
REMARK    6  A    between atoms: S_28  and  C_31
REMARK                            x       y       z     vdW  Elec       q    Type
REMARK                         _______ _______ _______ _____ _____    ______ ____
ROOT
ATOM      1  C   UNL     1       3.153  -3.140  -2.538  0.00  0.00    +0.077 C 
ENDROOT
BRANCH   1   2
ATOM      2  C   UNL     1       2.803  -2.724  -3.943  0.00  0.00    +0.214 C 
ATOM      3  O   UNL     1       2.796  -1.548  -4.243  0.00  0.00    -0.276 OA
ATOM      4  N   UNL     1       2.498  -3.657  -4.866  0.00  0.00    -0.300 N 
ATOM      5  C   UNL     1       2.273  -3.257  -6.276  0.00  0.00    +0.109 C 
ATOM      6  C   UNL     1       3.454  -3.577  -7.093  0.00  0.00    +0.036 C 
ATOM      7  C   UNL     1       3.798  -5.075  -7.041  0.00  0.00    +0.111 C 
ATOM      8  N   UNL     1       4.472  -5.332  -5.801  0.00  0.00    -0.175 NA
ATOM      9  C   UNL     1       3.745  -5.786  -4.584  0.00  0.00    +0.128 C 
ATOM     10  C   UNL     1       2.398  -5.037  -4.485  0.00  0.00    +0.125 C 
BRANCH   8  11
ATOM     11  S   UNL     1       6.112  -5.118  -5.721  0.00  0.00    +0.061 S 
ATOM     12  O   UNL     1       6.585  -5.980  -4.696  0.00  0.00    -0.153 OA
ATOM     13  O   UNL     1       6.596  -5.184  -7.056  0.00  0.00    -0.153 OA
BRANCH  11  14
ATOM     14  C   UNL     1       6.395  -3.470  -5.164  0.00  0.00    +0.105 A 
ATOM     15  C   UNL     1       6.537  -2.445  -6.081  0.00  0.00    +0.028 A 
ATOM     16  C   UNL     1       6.759  -1.153  -5.644  0.00  0.00    +0.002 A 
ATOM     17  C   UNL     1       6.840  -0.885  -4.290  0.00  0.00    +0.000 A 
ATOM     18  C   UNL     1       6.697  -1.910  -3.373  0.00  0.00    +0.002 A 
ATOM     19  C   UNL     1       6.471  -3.202  -3.810  0.00  0.00    +0.028 A 
ENDBRANCH  11  14
ENDBRANCH   8  11
ENDBRANCH   1   2
BRANCH   1  20
ATOM     20  C   UNL     1       3.496  -1.901  -1.708  0.00  0.00    -0.068 C 
BRANCH  20  29
ATOM     21  C   UNL     1       3.860  -1.083   0.512  0.00  0.00    -0.006 C 
ATOM     22  C   UNL     1       4.176  -1.497   1.946  0.00  0.00    -0.047 A 
ATOM     23  C   UNL     1       4.009  -0.668   3.052  0.00  0.00    +0.010 A 
ATOM     24  C   UNL     1       4.314  -1.121   4.290  0.00  0.00    +0.045 A 
ATOM     25  S   UNL     1       4.868  -2.786   3.948  0.00  0.00    -0.101 S 
ATOM     26  C   UNL     1       4.654  -2.750   2.191  0.00  0.00    -0.010 A 
ATOM     27  C   UNL     1       4.921  -3.812   1.176  0.00  0.00    +0.024 C 
ATOM     28  C   UNL     1       4.894  -3.146  -0.211  0.00  0.00    -0.072 C 
ATOM     29  N   UNL     1       3.702  -2.291  -0.307  0.00  0.00    +0.388 N 
ATOM     30  H   UNL     1       2.898  -2.808   0.015  0.00  0.00    -0.080 HD
BRANCH  21  34
ATOM     31  C   UNL     1       0.236   1.178   0.439  0.00  0.00    +0.000 A 
ATOM     32  C   UNL     1       1.448   1.807   0.225  0.00  0.00    +0.000 A 
ATOM     33  C   UNL     1       2.621   1.076   0.249  0.00  0.00    +0.002 A 
ATOM     34  C   UNL     1       2.581  -0.285   0.487  0.00  0.00    -0.057 A 
ATOM     35  C   UNL     1       1.370  -0.915   0.702  0.00  0.00    +0.002 A 
ATOM     36  C   UNL     1       0.197  -0.184   0.677  0.00  0.00    +0.000 A 
ENDBRANCH  21  34
ENDBRANCH  20  29
ENDBRANCH   1  20
TORSDOF 6
