REMARK  Name = ZINC20755472
REMARK  4 active torsions:
REMARK  status: ('A' for Active; 'I' for Inactive)
REMARK    1  A    between atoms: C_10  and  C_22
REMARK    2  A    between atoms: C_13  and  C_15
REMARK    3  A    between atoms: C_27  and  O_28
REMARK    4  A    between atoms: O_28  and  C_29
REMARK                            x       y       z     vdW  Elec       q    Type
REMARK                         _______ _______ _______ _____ _____    ______ ____
ROOT
ATOM      1  C   UNL     1      -0.016   1.362   0.009  0.00  0.00    +0.002 A 
ATOM      2  C   UNL     1       1.168   2.084   0.002  0.00  0.00    +0.002 A 
ATOM      3  C   UNL     1       2.384   1.434  -0.013  0.00  0.00    +0.028 A 
ATOM      4  C   UNL     1       2.427   0.046  -0.020  0.00  0.00    +0.069 A 
ATOM      5  C   UNL     1       1.223  -0.686  -0.013  0.00  0.00    +0.066 A 
ATOM      6  C   UNL     1       0.002  -0.004   0.002  0.00  0.00    +0.028 A 
ATOM      7  N   UNL     1       1.549  -2.004  -0.024  0.00  0.00    -0.324 N 
ATOM      8  C   UNL     1       2.848  -2.135  -0.023  0.00  0.00    +0.210 A 
ATOM      9  N   UNL     1       3.434  -0.884  -0.034  0.00  0.00    -0.302 N 
ATOM     10  C   UNL     1       4.887  -0.699  -0.062  0.00  0.00    +0.130 C 
ATOM     11  C   UNL     1       5.532  -1.894   0.650  0.00  0.00    +0.086 C 
ATOM     12  C   UNL     1       4.875  -3.182   0.242  0.00  0.00    +0.054 C 
ATOM     13  N   UNL     1       3.602  -3.269  -0.034  0.00  0.00    -0.218 NA
ATOM     14  H   UNL     1       0.914  -2.737  -0.032  0.00  0.00    +0.169 HD
ENDROOT
BRANCH  12  15
ATOM     15  C   UNL     1       5.701  -4.396   0.151  0.00  0.00    -0.003 A 
ATOM     16  C   UNL     1       7.068  -4.341   0.445  0.00  0.00    +0.010 A 
ATOM     17  C   UNL     1       7.835  -5.483   0.357  0.00  0.00    +0.002 A 
ATOM     18  C   UNL     1       7.257  -6.682  -0.022  0.00  0.00    +0.015 A 
ATOM     19  C   UNL     1       5.906  -6.746  -0.315  0.00  0.00    +0.018 A 
ATOM     20  C   UNL     1       5.123  -5.613  -0.226  0.00  0.00    +0.025 A 
ATOM     21 BR   UNL     1       5.129  -8.390  -0.832  0.00  0.00    -0.050 Br
ENDBRANCH  12  15
BRANCH  10  22
ATOM     22  C   UNL     1       5.365  -0.636  -1.490  0.00  0.00    +0.019 A 
ATOM     23  C   UNL     1       5.149  -1.705  -2.338  0.00  0.00    +0.029 A 
ATOM     24  C   UNL     1       5.588  -1.648  -3.649  0.00  0.00    +0.042 A 
ATOM     25  C   UNL     1       6.244  -0.522  -4.113  0.00  0.00    +0.023 A 
ATOM     26  C   UNL     1       6.462   0.549  -3.268  0.00  0.00    +0.047 A 
ATOM     27  C   UNL     1       6.018   0.496  -1.954  0.00  0.00    +0.132 A 
ATOM     28 CL   UNL     1       5.315  -2.992  -4.713  0.00  0.00    -0.084 Cl
BRANCH  27  29
ATOM     29  O   UNL     1       6.226   1.551  -1.123  0.00  0.00    -0.434 OA
BRANCH  29  30
ATOM     30  C   UNL     1       6.905   2.683  -1.669  0.00  0.00    +0.541 C 
ATOM     31  F   UNL     1       8.175   2.297  -2.112  0.00  0.00    -0.166 F 
ATOM     32  F   UNL     1       6.170   3.193  -2.745  0.00  0.00    -0.166 F 
ENDBRANCH  29  30
ENDBRANCH  27  29
ENDBRANCH  10  22
TORSDOF 4
