REMARK  Name = ZINC13097037
REMARK  7 active torsions:
REMARK  status: ('A' for Active; 'I' for Inactive)
REMARK    1  A    between atoms: C_1  and  O_2
REMARK    2  A    between atoms: O_2  and  C_3
REMARK    3  A    between atoms: C_9  and  O_34
REMARK    4  A    between atoms: C_10  and  C_13
REMARK    5  A    between atoms: C_13  and  C_15
REMARK    6  A    between atoms: C_13  and  N_21
REMARK    7  A    between atoms: C_27  and  C_29
REMARK                            x       y       z     vdW  Elec       q    Type
REMARK                         _______ _______ _______ _____ _____    ______ ____
ROOT
ATOM      1  C   UNL     1      -1.995  -0.280   1.577  0.00  0.00    +0.121 C 
ENDROOT
BRANCH   1   9
ATOM      2  C   UNL     1      -3.751  -2.698   4.610  0.00  0.00    +0.121 A 
ATOM      3  C   UNL     1      -3.764  -4.093   4.506  0.00  0.00    +0.046 A 
ATOM      4  C   UNL     1      -3.215  -4.719   3.431  0.00  0.00    +0.012 A 
ATOM      5  C   UNL     1      -2.625  -3.958   2.406  0.00  0.00    -0.017 A 
ATOM      6  C   UNL     1      -2.050  -4.575   1.282  0.00  0.00    +0.012 A 
ATOM      7  C   UNL     1      -1.486  -3.811   0.308  0.00  0.00    +0.046 A 
ATOM      8  C   UNL     1      -1.476  -2.416   0.404  0.00  0.00    +0.122 A 
ATOM      9  C   UNL     1      -2.021  -1.784   1.485  0.00  0.00    +0.023 A 
ATOM     10  C   UNL     1      -2.610  -2.544   2.509  0.00  0.00    -0.006 A 
ATOM     11  C   UNL     1      -3.186  -1.928   3.633  0.00  0.00    +0.054 A 
BRANCH   2  13
ATOM     12  C   UNL     1      -4.883  -2.959   6.684  0.00  0.00    +0.277 C 
ATOM     13  O   UNL     1      -4.308  -2.101   5.696  0.00  0.00    -0.495 OA
ENDBRANCH   2  13
BRANCH   8  14
ATOM     14  O   UNL     1      -0.911  -1.679  -0.589  0.00  0.00    -0.506 OA
ATOM     15  H   UNL     1      -0.899  -0.581  -0.520  0.00  0.00    +0.292 HD
ENDBRANCH   8  14
ENDBRANCH   1   9
BRANCH   1  16
ATOM     16  N   UNL     1      -0.660   0.210   1.210  0.00  0.00    -0.288 NA
ATOM     17  C   UNL     1      -0.597   1.676   1.288  0.00  0.00    +0.104 C 
ATOM     18  C   UNL     1       0.746   2.157   0.728  0.00  0.00    +0.123 C 
ATOM     19  N   UNL     1       1.826   1.450   1.433  0.00  0.00    -0.295 N 
ATOM     20  C   UNL     1       1.760  -0.017   1.515  0.00  0.00    +0.123 C 
ATOM     21  C   UNL     1       0.377  -0.413   2.045  0.00  0.00    +0.104 C 
ATOM     22  C   UNL     1       2.849   2.128   1.988  0.00  0.00    +0.253 C 
ATOM     23  O   UNL     1       3.670   1.542   2.670  0.00  0.00    -0.269 OA
BRANCH  22  24
ATOM     24  C   UNL     1       2.975   3.573   1.771  0.00  0.00    +0.074 A 
ATOM     25  C   UNL     1       3.710   4.503   2.489  0.00  0.00    +0.021 A 
ATOM     26  C   UNL     1       3.652   5.807   2.064  0.00  0.00    +0.008 A 
ATOM     27  C   UNL     1       2.885   6.121   0.987  0.00  0.00    +0.046 A 
ATOM     28  S   UNL     1       2.216   4.592   0.519  0.00  0.00    -0.092 S 
ENDBRANCH  22  24
ENDBRANCH   1  16
BRANCH   1  29
ATOM     29  C   UNL     1      -3.019   0.298   0.634  0.00  0.00    -0.026 A 
ATOM     30  C   UNL     1      -2.730   0.415  -0.713  0.00  0.00    +0.005 A 
ATOM     31  C   UNL     1      -3.670   0.941  -1.578  0.00  0.00    +0.000 A 
ATOM     32  C   UNL     1      -4.896   1.359  -1.095  0.00  0.00    +0.000 A 
ATOM     33  C   UNL     1      -5.184   1.247   0.252  0.00  0.00    +0.000 A 
ATOM     34  C   UNL     1      -4.245   0.717   1.117  0.00  0.00    +0.005 A 
ENDBRANCH   1  29
TORSDOF 6
