REMARK  Name = ZINC02190599
REMARK  5 active torsions:
REMARK  status: ('A' for Active; 'I' for Inactive)
REMARK    1  A    between atoms: C_1  and  C_2
REMARK    2  A    between atoms: C_2  and  C_3
REMARK    3  A    between atoms: C_3  and  C_4
REMARK    4  A    between atoms: C_4  and  C_5
REMARK    5  A    between atoms: C_5  and  C_7
REMARK                            x       y       z     vdW  Elec       q    Type
REMARK                         _______ _______ _______ _____ _____    ______ ____
ROOT
ATOM      1  C   UNL     1      -3.066  -3.978   0.010  0.00  0.00    +0.146 A 
ATOM      2  C   UNL     1      -1.992  -4.896   0.001  0.00  0.00    +0.268 A 
ATOM      3  O   UNL     1      -0.835  -4.497  -0.003  0.00  0.00    -0.267 OA
ATOM      4  N   UNL     1      -2.261  -6.227  -0.004  0.00  0.00    -0.274 N 
ATOM      5  C   UNL     1      -3.529  -6.673  -0.001  0.00  0.00    +0.329 A 
ATOM      6  O   UNL     1      -3.735  -7.871  -0.005  0.00  0.00    -0.247 OA
ATOM      7  N   UNL     1      -4.575  -5.829   0.008  0.00  0.00    -0.274 N 
ATOM      8  C   UNL     1      -4.384  -4.485   0.020  0.00  0.00    +0.268 A 
ATOM      9  O   UNL     1      -5.342  -3.723   0.034  0.00  0.00    -0.267 OA
ATOM     10  H   UNL     1      -1.529  -6.863  -0.011  0.00  0.00    +0.173 HD
ATOM     11  H   UNL     1      -5.477  -6.185   0.011  0.00  0.00    +0.173 HD
ENDROOT
BRANCH   1  12
ATOM     12  C   UNL     1      -2.826  -2.585   0.015  0.00  0.00    +0.174 C 
ATOM     13  O   UNL     1      -3.760  -1.809   0.028  0.00  0.00    -0.292 OA
BRANCH  12  14
ATOM     14  C   UNL     1      -1.413  -2.063   0.004  0.00  0.00    +0.080 C 
BRANCH  14  15
ATOM     15  C   UNL     1      -1.433  -0.534   0.013  0.00  0.00    +0.008 C 
BRANCH  15  17
ATOM     16  C   UNL     1      -0.019   1.526   0.010  0.00  0.00    +0.004 C 
ATOM     17  C   UNL     1       0.002  -0.004   0.002  0.00  0.00    -0.003 C 
ENDBRANCH  15  17
ENDBRANCH  14  15
ENDBRANCH  12  14
ENDBRANCH   1  12
TORSDOF 4
