REMARK  Name = ZINC48319806
REMARK  8 active torsions:
REMARK  status: ('A' for Active; 'I' for Inactive)
REMARK    1  A    between atoms: N_4  and  C_6
REMARK    2  A    between atoms: C_6  and  C_7
REMARK    3  A    between atoms: C_7  and  C_8
REMARK    4  A    between atoms: C_14  and  C_16
REMARK    5  A    between atoms: C_19  and  C_22
REMARK    6  A    between atoms: C_22  and  N_23
REMARK    7  A    between atoms: C_27  and  C_30
REMARK    8  A    between atoms: C_30  and  O_31
REMARK                            x       y       z     vdW  Elec       q    Type
REMARK                         _______ _______ _______ _____ _____    ______ ____
ROOT
ATOM      1  C   UNL     1       5.888  -5.326   0.345  0.00  0.00    +0.017 A 
ATOM      2  C   UNL     1       6.386  -6.630   0.363  0.00  0.00    +0.012 A 
ATOM      3  C   UNL     1       7.484  -6.934   1.141  0.00  0.00    +0.002 A 
ATOM      4  C   UNL     1       8.091  -5.951   1.902  0.00  0.00    -0.064 A 
ATOM      5  C   UNL     1       7.602  -4.657   1.889  0.00  0.00    +0.002 A 
ATOM      6  C   UNL     1       6.508  -4.337   1.111  0.00  0.00    +0.012 A 
ENDROOT
BRANCH   1  13
ATOM      7  C   UNL     1       3.201  -3.412  -1.229  0.00  0.00    +0.050 A 
ATOM      8  C   UNL     1       2.564  -4.345  -1.993  0.00  0.00    +0.093 A 
ATOM      9  C   UNL     1       3.043  -5.670  -1.989  0.00  0.00    +0.252 A 
ATOM     10  O   UNL     1       2.498  -6.531  -2.660  0.00  0.00    -0.268 OA
ATOM     11  N   UNL     1       4.118  -5.968  -1.227  0.00  0.00    -0.307 N 
ATOM     12  H   UNL     1       4.465  -6.873  -1.209  0.00  0.00    +0.170 HD
ATOM     13  C   UNL     1       4.712  -4.992  -0.485  0.00  0.00    +0.141 A 
ATOM     14  N   UNL     1       4.261  -3.755  -0.500  0.00  0.00    -0.234 NA
BRANCH   7  15
ATOM     15  C   UNL     1       2.709  -1.987  -1.217  0.00  0.00    +0.079 C 
BRANCH  15  16
ATOM     16  C   UNL     1       1.771  -1.782  -0.025  0.00  0.00    +0.149 C 
BRANCH  16  20
ATOM     17  C   UNL     1      -0.016   1.349   0.009  0.00  0.00    +0.041 A 
ATOM     18  C   UNL     1       1.308   1.797  -0.001  0.00  0.00    +0.134 A 
ATOM     19  N   UNL     1       2.094   0.751  -0.014  0.00  0.00    -0.180 NA
ATOM     20  N   UNL     1       1.293  -0.398  -0.012  0.00  0.00    -0.271 N 
ATOM     21  C   UNL     1       0.002  -0.004   0.002  0.00  0.00    +0.108 A 
ENDBRANCH  16  20
ENDBRANCH  15  16
ENDBRANCH   7  15
ENDBRANCH   1  13
BRANCH   4  22
ATOM     22  C   UNL     1       9.289  -6.292   2.750  0.00  0.00    -0.043 C 
BRANCH  22  23
ATOM     23  N   UNL     1      10.515  -6.098   1.965  0.00  0.00    +0.383 N 
ATOM     24  C   UNL     1      10.659  -4.677   1.628  0.00  0.00    -0.078 C 
ATOM     25  C   UNL     1      11.891  -4.481   0.742  0.00  0.00    -0.018 C 
ATOM     26  C   UNL     1      13.136  -4.957   1.496  0.00  0.00    +0.002 C 
ATOM     27  C   UNL     1      12.944  -6.419   1.907  0.00  0.00    -0.002 C 
ATOM     28  C   UNL     1      11.673  -6.543   2.750  0.00  0.00    -0.073 C 
ATOM     29  H   UNL     1      10.459  -6.639   1.115  0.00  0.00    -0.081 HD
BRANCH  27  30
ATOM     30  C   UNL     1      14.149  -6.882   2.728  0.00  0.00    +0.157 C 
BRANCH  30  31
ATOM     31  O   UNL     1      15.318  -6.871   1.905  0.00  0.00    -0.395 OA
ATOM     32  H   UNL     1      16.122  -7.154   2.361  0.00  0.00    +0.209 HD
ENDBRANCH  30  31
ENDBRANCH  27  30
ENDBRANCH  22  23
ENDBRANCH   4  22
TORSDOF 8
