REMARK  Name = ZINC27318974
REMARK  7 active torsions:
REMARK  status: ('A' for Active; 'I' for Inactive)
REMARK    1  A    between atoms: C_1  and  C_2
REMARK    2  A    between atoms: C_2  and  C_41
REMARK    3  A    between atoms: C_7  and  C_23
REMARK    4  A    between atoms: C_8  and  N_11
REMARK    5  A    between atoms: C_12  and  C_14
REMARK    6  A    between atoms: C_23  and  S_24
REMARK    7  A    between atoms: S_24  and  N_27
REMARK                            x       y       z     vdW  Elec       q    Type
REMARK                         _______ _______ _______ _____ _____    ______ ____
ROOT
ATOM      1  C   UNL     1      -0.603  -1.405   2.486  0.00  0.00    +0.012 C 
ATOM      2  C   UNL     1      -0.031  -1.165   1.088  0.00  0.00    -0.023 C 
ATOM      3  C   UNL     1       0.902   0.097   1.042  0.00  0.00    -0.003 C 
ATOM      4  C   UNL     1      -0.117   1.221   1.401  0.00  0.00    +0.005 C 
ATOM      5  C   UNL     1      -1.451   0.755   0.775  0.00  0.00    +0.011 C 
ATOM      6  C   UNL     1      -1.113  -0.608   0.097  0.00  0.00    +0.015 C 
ATOM      7  C   UNL     1      -0.219  -0.226  -1.122  0.00  0.00    +0.081 C 
ATOM      8  C   UNL     1       1.116   0.241  -0.496  0.00  0.00    +0.027 C 
ATOM      9  C   UNL     1       0.662  -2.413   0.538  0.00  0.00    +0.012 C 
ENDROOT
BRANCH   7  10
ATOM     10  N   UNL     1      -0.833   0.864  -1.885  0.00  0.00    -0.312 N 
ATOM     11  C   UNL     1      -0.413   1.129  -3.138  0.00  0.00    +0.215 C 
ATOM     12  O   UNL     1       0.411   0.413  -3.666  0.00  0.00    -0.276 OA
ATOM     13  H   UNL     1      -1.637   1.465  -1.435  0.00  0.00    +0.149 HD
BRANCH  11  14
ATOM     14  C   UNL     1      -0.967   2.317  -3.882  0.00  0.00    +0.061 C 
ATOM     15  C   UNL     1      -2.495   2.315  -3.787  0.00  0.00    -0.066 C 
ATOM     16  N   UNL     1      -3.067   2.232  -5.138  0.00  0.00    +0.380 N 
ATOM     17  C   UNL     1      -2.686   3.399  -5.945  0.00  0.00    -0.079 C 
ATOM     18  C   UNL     1      -1.163   3.433  -6.101  0.00  0.00    -0.015 C 
ATOM     19  C   UNL     1      -0.563   2.232  -5.359  0.00  0.00    -0.004 C 
ATOM     20  C   UNL     1      -1.151   0.946  -5.954  0.00  0.00    -0.015 C 
ATOM     21  C   UNL     1      -2.674   0.982  -5.802  0.00  0.00    -0.079 C 
ATOM     22  H   UNL     1      -4.163   2.233  -5.039  0.00  0.00    -0.082 HD
ENDBRANCH  11  14
ENDBRANCH   7  10
BRANCH   6  23
ATOM     23  C   UNL     1      -2.303  -1.525  -0.190  0.00  0.00    +0.194 C 
BRANCH  23  24
ATOM     24  S   UNL     1      -3.399  -0.734  -1.400  0.00  0.00    +0.032 S 
ATOM     25  O   UNL     1      -3.892   0.495  -0.883  0.00  0.00    -0.158 OA
ATOM     26  O   UNL     1      -2.822  -0.794  -2.697  0.00  0.00    -0.158 OA
BRANCH  24  27
ATOM     27  N   UNL     1      -4.726  -1.721  -1.482  0.00  0.00    -0.181 NA
ATOM     28  C   UNL     1      -4.781  -2.823  -2.451  0.00  0.00    +0.110 C 
ATOM     29  C   UNL     1      -5.086  -4.125  -1.693  0.00  0.00    +0.028 C 
ATOM     30  C   UNL     1      -6.353  -3.941  -0.863  0.00  0.00    -0.001 C 
ATOM     31  C   UNL     1      -7.546  -3.633  -1.786  0.00  0.00    +0.016 C 
ATOM     32  C   UNL     1      -8.712  -4.345  -1.065  0.00  0.00    +0.036 C 
ATOM     33  C   UNL     1      -8.067  -5.462  -0.274  0.00  0.00    -0.044 A 
ATOM     34  C   UNL     1      -6.708  -5.229  -0.157  0.00  0.00    -0.038 A 
ATOM     35  C   UNL     1      -5.912  -6.127   0.533  0.00  0.00    +0.004 A 
ATOM     36  C   UNL     1      -6.469  -7.255   1.104  0.00  0.00    +0.000 A 
ATOM     37  C   UNL     1      -7.826  -7.488   0.987  0.00  0.00    +0.000 A 
ATOM     38  C   UNL     1      -8.623  -6.593   0.300  0.00  0.00    +0.004 A 
ATOM     39  C   UNL     1      -6.173  -2.814   0.151  0.00  0.00    +0.028 C 
ATOM     40  C   UNL     1      -5.874  -1.506  -0.590  0.00  0.00    +0.110 C 
ENDBRANCH  24  27
ENDBRANCH  23  24
ENDBRANCH   6  23
TORSDOF 5
