REMARK  Name = ZINC02884021
REMARK  17 active torsions:
REMARK  status: ('A' for Active; 'I' for Inactive)
REMARK    1  A    between atoms: C_1  and  C_2
REMARK    2  A    between atoms: C_2  and  C_3
REMARK    3  A    between atoms: C_2  and  C_4
REMARK    4  A    between atoms: C_2  and  C_5
REMARK    5  A    between atoms: C_7  and  C_16
REMARK    6  A    between atoms: C_9  and  C_12
REMARK    7  A    between atoms: C_10  and  O_11
REMARK    8  A    between atoms: C_12  and  C_13
REMARK    9  A    between atoms: C_12  and  C_14
REMARK   10  A    between atoms: C_12  and  C_15
REMARK   11  A    between atoms: C_16  and  C_17
REMARK   12  A    between atoms: C_17  and  C_18
REMARK   13  A    between atoms: N_20  and  N_21
REMARK   14  A    between atoms: C_22  and  C_23
REMARK   15  A    between atoms: C_25  and  O_31
REMARK   16  A    between atoms: C_26  and  O_30
REMARK   17  A    between atoms: O_31  and  C_32
REMARK                            x       y       z     vdW  Elec       q    Type
REMARK                         _______ _______ _______ _____ _____    ______ ____
ROOT
ATOM      1  C   UNL     1       4.272  -0.102   3.255  0.00  0.00    +0.102 C 
ENDROOT
BRANCH   1   2
ATOM      2  C   UNL     1       5.508  -0.951   3.098  0.00  0.00    +0.232 C 
ATOM      3  O   UNL     1       5.411  -2.158   3.036  0.00  0.00    -0.274 OA
ATOM      4  N   UNL     1       6.721  -0.368   3.026  0.00  0.00    -0.207 N 
ATOM      5  H   UNL     1       6.799   0.598   3.076  0.00  0.00    +0.177 HD
BRANCH   4   6
ATOM      6  N   UNL     1       7.870  -1.156   2.881  0.00  0.00    -0.188 NA
ATOM      7  C   UNL     1       9.038  -0.595   2.812  0.00  0.00    +0.138 C 
BRANCH   7   8
ATOM      8  C   UNL     1      10.246  -1.425   2.659  0.00  0.00    -0.001 A 
ATOM      9  C   UNL     1      11.505  -0.822   2.578  0.00  0.00    +0.059 A 
ATOM     10  C   UNL     1      12.635  -1.605   2.440  0.00  0.00    +0.163 A 
ATOM     11  C   UNL     1      12.519  -2.991   2.369  0.00  0.00    +0.173 A 
ATOM     12  C   UNL     1      11.269  -3.590   2.443  0.00  0.00    +0.063 A 
ATOM     13  C   UNL     1      10.137  -2.816   2.587  0.00  0.00    +0.028 A 
ATOM     14 BR   UNL     1      11.119  -5.473   2.346  0.00  0.00    -0.046 Br
BRANCH  11  15
ATOM     15  O   UNL     1      13.632  -3.759   2.228  0.00  0.00    -0.503 OA
ATOM     16  H   UNL     1      13.878  -3.930   1.308  0.00  0.00    +0.292 HD
ENDBRANCH  11  15
BRANCH  10  17
ATOM     17  O   UNL     1      13.862  -1.021   2.368  0.00  0.00    -0.491 OA
ATOM     18  C   UNL     1      13.907   0.405   2.448  0.00  0.00    +0.277 C 
ENDBRANCH  10  17
ENDBRANCH   7   8
ENDBRANCH   4   6
ENDBRANCH   1   2
BRANCH   1  19
ATOM     19  C   UNL     1       3.038  -1.004   3.310  0.00  0.00    +0.044 C 
BRANCH  19  22
ATOM     20  C   UNL     1       0.000   1.080   2.488  0.00  0.00    -0.000 A 
ATOM     21  C   UNL     1       1.133   0.302   2.347  0.00  0.00    +0.011 A 
ATOM     22  C   UNL     1       1.802  -0.156   3.466  0.00  0.00    -0.046 A 
ATOM     23  C   UNL     1       1.340   0.163   4.730  0.00  0.00    +0.011 A 
ATOM     24  C   UNL     1       0.208   0.942   4.876  0.00  0.00    -0.000 A 
ATOM     25  C   UNL     1      -0.463   1.406   3.754  0.00  0.00    +0.124 A 
BRANCH  20  27
ATOM     26  C   UNL     1      -0.013   1.086   0.008  0.00  0.00    +0.015 C 
ATOM     27  C   UNL     1      -0.729   1.579   1.267  0.00  0.00    -0.009 C 
ATOM     28  C   UNL     1      -0.750   3.109   1.275  0.00  0.00    +0.015 C 
ATOM     29  C   UNL     1      -2.164   1.050   1.278  0.00  0.00    +0.015 C 
ENDBRANCH  20  27
BRANCH  24  30
ATOM     30  C   UNL     1      -0.295   1.290   6.253  0.00  0.00    -0.009 C 
ATOM     31  C   UNL     1       0.622   0.662   7.305  0.00  0.00    +0.015 C 
ATOM     32  C   UNL     1      -0.301   2.810   6.425  0.00  0.00    +0.015 C 
ATOM     33  C   UNL     1      -1.716   0.751   6.429  0.00  0.00    +0.015 C 
ENDBRANCH  24  30
BRANCH  25  34
ATOM     34  O   UNL     1      -1.573   2.176   3.896  0.00  0.00    -0.506 OA
ATOM     35  H   UNL     1      -2.398   1.673   3.940  0.00  0.00    +0.292 HD
ENDBRANCH  25  34
ENDBRANCH  19  22
ENDBRANCH   1  19
TORSDOF 10
