REMARK  Name = ZINC36569492
REMARK  9 active torsions:
REMARK  status: ('A' for Active; 'I' for Inactive)
REMARK    1  A    between atoms: C_1  and  C_2
REMARK    2  A    between atoms: C_2  and  C_3
REMARK    3  A    between atoms: C_2  and  C_4
REMARK    4  A    between atoms: C_4  and  C_5
REMARK    5  A    between atoms: C_5  and  C_7
REMARK    6  A    between atoms: C_5  and  N_11
REMARK    7  A    between atoms: C_7  and  O_9
REMARK    8  A    between atoms: O_9  and  C_10
REMARK    9  A    between atoms: C_23  and  C_25
REMARK                            x       y       z     vdW  Elec       q    Type
REMARK                         _______ _______ _______ _____ _____    ______ ____
ROOT
ATOM      1  N   UNL     1      -0.843  -2.901   1.244  0.00  0.00    -0.286 N 
ATOM      2  C   UNL     1       0.503  -2.836   1.278  0.00  0.00    +0.304 C 
ATOM      3  O   UNL     1       1.104  -2.218   0.420  0.00  0.00    -0.253 OA
ATOM      4  N   UNL     1       1.182  -3.457   2.262  0.00  0.00    -0.273 N 
ATOM      5  C   UNL     1       0.484  -4.303   3.241  0.00  0.00    +0.116 C 
ATOM      6  C   UNL     1       0.966  -5.752   3.087  0.00  0.00    +0.074 C 
ATOM      7  C   UNL     1       2.467  -5.754   2.965  0.00  0.00    +0.040 A 
ATOM      8  C   UNL     1       3.217  -4.676   2.650  0.00  0.00    +0.062 A 
ATOM      9  N   UNL     1       4.497  -5.053   2.631  0.00  0.00    -0.348 N 
ATOM     10  C   UNL     1       4.574  -6.324   2.925  0.00  0.00    +0.171 A 
ATOM     11  N   UNL     1       3.325  -6.797   3.142  0.00  0.00    -0.349 N 
ATOM     12  H   UNL     1       3.086  -7.707   3.379  0.00  0.00    +0.166 HD
ATOM     13  C   UNL     1       2.644  -3.310   2.379  0.00  0.00    +0.159 C 
ATOM     14  H   UNL     1      -1.327  -3.332   1.966  0.00  0.00    +0.151 HD
ATOM     15  H   UNL     1       5.251  -4.475   2.430  0.00  0.00    +0.167 HD
ENDROOT
BRANCH  13  16
ATOM     16  C   UNL     1       2.976  -2.384   3.521  0.00  0.00    +0.014 A 
ATOM     17  C   UNL     1       3.405  -2.902   4.729  0.00  0.00    +0.010 A 
ATOM     18  C   UNL     1       3.710  -2.054   5.776  0.00  0.00    +0.020 A 
ATOM     19  C   UNL     1       3.586  -0.685   5.617  0.00  0.00    +0.044 A 
ATOM     20  C   UNL     1       3.158  -0.165   4.410  0.00  0.00    +0.058 A 
ATOM     21  C   UNL     1       2.857  -1.014   3.359  0.00  0.00    +0.130 A 
ATOM     22  F   UNL     1       2.443  -0.507   2.177  0.00  0.00    -0.205 F 
ATOM     23 CL   UNL     1       3.969   0.380   6.934  0.00  0.00    -0.083 Cl
ENDBRANCH  13  16
BRANCH   1  24
ATOM     24  C   UNL     1      -1.576  -2.320   0.116  0.00  0.00    +0.183 C 
BRANCH  24  25
ATOM     25  C   UNL     1      -2.863  -3.076  -0.090  0.00  0.00    +0.327 C 
ATOM     26  O   UNL     1      -3.140  -4.005   0.631  0.00  0.00    -0.249 OA
BRANCH  25  27
ATOM     27  O   UNL     1      -3.702  -2.718  -1.075  0.00  0.00    -0.467 OA
ATOM     28  C   UNL     1      -4.904  -3.479  -1.212  0.00  0.00    +0.280 C 
ENDBRANCH  25  27
ENDBRANCH  24  25
BRANCH  24  29
ATOM     29  C   UNL     1      -1.889  -0.852   0.413  0.00  0.00    +0.036 C 
BRANCH  29  31
ATOM     30  C   UNL     1      -2.911   1.237  -0.501  0.00  0.00    +0.007 C 
ATOM     31  C   UNL     1      -2.497  -0.199  -0.830  0.00  0.00    -0.015 C 
ATOM     32  C   UNL     1      -1.461  -0.185  -1.957  0.00  0.00    +0.007 C 
ENDBRANCH  29  31
ENDBRANCH  24  29
ENDBRANCH   1  24
TORSDOF 6
