REMARK  Name = ZINC02030093
REMARK  11 active torsions:
REMARK  status: ('A' for Active; 'I' for Inactive)
REMARK    1  A    between atoms: C_1  and  C_2
REMARK    2  A    between atoms: C_2  and  C_3
REMARK    3  A    between atoms: C_3  and  C_4
REMARK    4  A    between atoms: C_4  and  O_5
REMARK    5  A    between atoms: O_5  and  C_6
REMARK    6  A    between atoms: C_9  and  C_12
REMARK    7  A    between atoms: C_17  and  C_30
REMARK    8  A    between atoms: C_33  and  O_38
REMARK    9  A    between atoms: C_34  and  O_36
REMARK   10  A    between atoms: O_36  and  C_37
REMARK   11  A    between atoms: O_38  and  C_39
REMARK                            x       y       z     vdW  Elec       q    Type
REMARK                         _______ _______ _______ _____ _____    ______ ____
ROOT
ATOM      1  C   UNL     1       4.555   0.146  -1.819  0.00  0.00    +0.031 C 
ATOM      2  C   UNL     1       3.251  -0.652  -1.885  0.00  0.00    +0.045 C 
ATOM      3  C   UNL     1       2.140   0.062  -1.159  0.00  0.00    -0.029 C 
ATOM      4  C   UNL     1       2.225   1.403  -0.932  0.00  0.00    +0.023 C 
ATOM      5  C   UNL     1       1.260   2.097   0.001  0.00  0.00    +0.135 C 
ATOM      6  N   UNL     1      -0.017   1.382   0.010  0.00  0.00    -0.332 N 
ATOM      7  C   UNL     1       0.002  -0.004   0.002  0.00  0.00    +0.036 A 
ATOM      8  C   UNL     1       1.029  -0.678  -0.680  0.00  0.00    +0.007 A 
ATOM      9  C   UNL     1       0.921  -2.130  -0.808  0.00  0.00    -0.009 A 
ATOM     10  C   UNL     1       1.679  -2.889  -1.701  0.00  0.00    +0.009 A 
ATOM     11  C   UNL     1       1.606  -4.253  -1.689  0.00  0.00    +0.001 A 
ATOM     12  C   UNL     1       0.745  -4.915  -0.821  0.00  0.00    +0.001 A 
ATOM     13  C   UNL     1      -0.067  -4.210   0.013  0.00  0.00    +0.008 A 
ATOM     14  C   UNL     1      -0.040  -2.806  -0.008  0.00  0.00    -0.017 A 
ATOM     15  C   UNL     1      -0.986  -2.067   0.727  0.00  0.00    +0.010 A 
ATOM     16  C   UNL     1      -0.973  -0.711   0.708  0.00  0.00    +0.024 A 
ATOM     17  C   UNL     1       3.232   2.188  -1.516  0.00  0.00    +0.162 C 
ATOM     18  O   UNL     1       3.247   3.388  -1.334  0.00  0.00    -0.292 OA
ATOM     19  C   UNL     1       4.294   1.551  -2.373  0.00  0.00    +0.088 C 
ATOM     20  H   UNL     1      -0.859   1.866   0.016  0.00  0.00    +0.147 HD
ENDROOT
BRANCH   1  24
ATOM     21  C   UNL     1       7.549  -1.792  -4.173  0.00  0.00    +0.121 A 
ATOM     22  C   UNL     1       7.751  -1.599  -2.814  0.00  0.00    +0.046 A 
ATOM     23  C   UNL     1       6.782  -0.972  -2.055  0.00  0.00    +0.007 A 
ATOM     24  C   UNL     1       5.611  -0.537  -2.649  0.00  0.00    -0.043 A 
ATOM     25  C   UNL     1       5.405  -0.734  -4.002  0.00  0.00    +0.007 A 
ATOM     26  C   UNL     1       6.374  -1.355  -4.766  0.00  0.00    +0.046 A 
BRANCH  21  27
ATOM     27  O   UNL     1       8.501  -2.410  -4.921  0.00  0.00    -0.492 OA
BRANCH  27  28
ATOM     28  C   UNL     1       8.225  -2.575  -6.313  0.00  0.00    +0.229 C 
BRANCH  28  29
ATOM     29  C   UNL     1       9.403  -3.284  -6.985  0.00  0.00    +0.041 C 
BRANCH  29  31
ATOM     30  C   UNL     1      10.285  -4.170  -9.149  0.00  0.00    +0.004 C 
ATOM     31  C   UNL     1       9.108  -3.461  -8.476  0.00  0.00    -0.000 C 
ENDBRANCH  29  31
ENDBRANCH  28  29
ENDBRANCH  27  28
ENDBRANCH  21  27
ENDBRANCH   1  24
BRANCH   5  32
ATOM     32  C   UNL     1       1.835   2.116   1.394  0.00  0.00    -0.019 A 
ATOM     33  C   UNL     1       1.736   0.994   2.196  0.00  0.00    +0.009 A 
ATOM     34  C   UNL     1       2.266   1.005   3.473  0.00  0.00    +0.050 A 
ATOM     35  C   UNL     1       2.888   2.145   3.955  0.00  0.00    +0.162 A 
ATOM     36  C   UNL     1       2.983   3.276   3.150  0.00  0.00    +0.162 A 
ATOM     37  C   UNL     1       2.454   3.257   1.870  0.00  0.00    +0.055 A 
BRANCH  36  38
ATOM     38  O   UNL     1       3.593   4.397   3.619  0.00  0.00    -0.491 OA
ATOM     39  C   UNL     1       3.654   5.520   2.737  0.00  0.00    +0.277 C 
ENDBRANCH  36  38
BRANCH  35  40
ATOM     40  O   UNL     1       3.405   2.159   5.213  0.00  0.00    -0.491 OA
ATOM     41  C   UNL     1       3.272   0.962   5.983  0.00  0.00    +0.277 C 
ENDBRANCH  35  40
ENDBRANCH   5  32
TORSDOF 8
