REMARK  Name = ZINC03301921
REMARK  8 active torsions:
REMARK  status: ('A' for Active; 'I' for Inactive)
REMARK    1  A    between atoms: C_2  and  C_3
REMARK    2  A    between atoms: C_3  and  N_4
REMARK    3  A    between atoms: C_17  and  S_18
REMARK    4  A    between atoms: S_18  and  C_19
REMARK    5  A    between atoms: C_19  and  C_20
REMARK    6  A    between atoms: N_22  and  C_23
REMARK    7  A    between atoms: C_28  and  O_29
REMARK    8  A    between atoms: O_29  and  C_30
REMARK                            x       y       z     vdW  Elec       q    Type
REMARK                         _______ _______ _______ _____ _____    ______ ____
ROOT
ATOM      1  N   UNL     1     -11.178   0.314  -0.648  0.00  0.00    -0.273 N 
ATOM      2  C   UNL     1     -11.749  -0.906  -0.718  0.00  0.00    +0.263 A 
ATOM      3  O   UNL     1     -12.956  -1.020  -0.816  0.00  0.00    -0.267 OA
ATOM      4  C   UNL     1     -10.885  -2.099  -0.662  0.00  0.00    +0.064 A 
ATOM      5  C   UNL     1     -11.422  -3.385  -0.721  0.00  0.00    +0.015 A 
ATOM      6  C   UNL     1     -10.581  -4.477  -0.667  0.00  0.00    +0.001 A 
ATOM      7  C   UNL     1      -9.211  -4.301  -0.554  0.00  0.00    +0.002 A 
ATOM      8  C   UNL     1      -8.668  -3.033  -0.495  0.00  0.00    +0.027 A 
ATOM      9  C   UNL     1      -9.498  -1.924  -0.548  0.00  0.00    +0.064 A 
ATOM     10  N   UNL     1      -8.975  -0.633  -0.491  0.00  0.00    -0.256 N 
ATOM     11  C   UNL     1      -9.803   0.455  -0.541  0.00  0.00    +0.240 A 
ATOM     12  N   UNL     1      -9.053   1.532  -0.476  0.00  0.00    -0.109 NA
ATOM     13  N   UNL     1      -7.717   1.128  -0.376  0.00  0.00    -0.120 NA
ATOM     14  C   UNL     1      -7.687  -0.182  -0.383  0.00  0.00    +0.198 A 
ENDROOT
BRANCH   1  15
ATOM     15  C   UNL     1     -12.023   1.509  -0.704  0.00  0.00    +0.155 C 
BRANCH  15  17
ATOM     16  C   UNL     1     -13.409   2.074  -2.633  0.00  0.00    +0.005 C 
ATOM     17  C   UNL     1     -12.204   1.929  -2.140  0.00  0.00    -0.013 C 
ENDBRANCH  15  17
ENDBRANCH   1  15
BRANCH  14  18
ATOM     18  S   UNL     1      -6.243  -1.186  -0.279  0.00  0.00    -0.076 S 
BRANCH  18  19
ATOM     19  C   UNL     1      -4.884   0.010  -0.165  0.00  0.00    +0.173 C 
BRANCH  19  20
ATOM     20  C   UNL     1      -3.573  -0.727  -0.069  0.00  0.00    +0.228 C 
ATOM     21  O   UNL     1      -3.557  -1.940  -0.076  0.00  0.00    -0.275 OA
ATOM     22  N   UNL     1      -2.418  -0.038   0.026  0.00  0.00    -0.282 N 
ATOM     23  H   UNL     1      -2.436   0.928   0.113  0.00  0.00    +0.155 HD
BRANCH  22  24
ATOM     24  C   UNL     1      -1.193  -0.718  -0.002  0.00  0.00    +0.076 A 
ATOM     25  C   UNL     1      -1.099  -1.957  -0.617  0.00  0.00    +0.027 A 
ATOM     26  C   UNL     1       0.110  -2.626  -0.643  0.00  0.00    +0.002 A 
ATOM     27  C   UNL     1       1.228  -2.062  -0.056  0.00  0.00    +0.004 A 
ATOM     28  C   UNL     1       1.143  -0.824   0.555  0.00  0.00    +0.048 A 
ATOM     29  C   UNL     1      -0.067  -0.150   0.589  0.00  0.00    +0.148 A 
BRANCH  29  30
ATOM     30  O   UNL     1      -0.153   1.065   1.194  0.00  0.00    -0.432 OA
BRANCH  30  31
ATOM     31  C   UNL     1       1.043   1.585   1.778  0.00  0.00    +0.541 C 
ATOM     32  F   UNL     1       1.500   0.705   2.766  0.00  0.00    -0.166 F 
ATOM     33  F   UNL     1       2.022   1.725   0.790  0.00  0.00    -0.166 F 
ENDBRANCH  30  31
ENDBRANCH  29  30
ENDBRANCH  22  24
ENDBRANCH  19  20
ENDBRANCH  18  19
ENDBRANCH  14  18
TORSDOF 8
