REMARK  Name = ZINC34911388
REMARK  7 active torsions:
REMARK  status: ('A' for Active; 'I' for Inactive)
REMARK    1  A    between atoms: C_1  and  C_2
REMARK    2  A    between atoms: C_5  and  N_8
REMARK    3  A    between atoms: C_9  and  C_29
REMARK    4  A    between atoms: C_11  and  C_13
REMARK    5  A    between atoms: N_15  and  C_16
REMARK    6  A    between atoms: N_19  and  C_22
REMARK    7  A    between atoms: C_22  and  C_23
REMARK                            x       y       z     vdW  Elec       q    Type
REMARK                         _______ _______ _______ _____ _____    ______ ____
ROOT
ATOM      1  C   UNL     1      -0.766  -7.472  -1.282  0.00  0.00    +0.283 C 
ATOM      2  O   UNL     1      -1.462  -7.376  -2.274  0.00  0.00    -0.267 OA
ATOM      3  N   UNL     1      -0.420  -8.689  -0.817  0.00  0.00    -0.306 N 
ATOM      4  H   UNL     1       0.136  -8.765  -0.025  0.00  0.00    +0.149 HD
ENDROOT
BRANCH   3   5
ATOM      5  C   UNL     1      -0.882  -9.896  -1.507  0.00  0.00    +0.070 C 
ATOM      6  C   UNL     1       0.080 -10.232  -2.650  0.00  0.00    +0.004 C 
ATOM      7  C   UNL     1      -0.364 -11.536  -3.316  0.00  0.00    -0.077 C 
ATOM      8  N   UNL     1      -0.351 -12.622  -2.328  0.00  0.00    +0.382 N 
ATOM      9  C   UNL     1      -1.323 -12.341  -1.266  0.00  0.00    -0.077 C 
ATOM     10  C   UNL     1      -0.917 -11.067  -0.521  0.00  0.00    +0.004 C 
ATOM     11  H   UNL     1       0.571 -12.700  -1.927  0.00  0.00    -0.081 HD
BRANCH   8  12
ATOM     12  C   UNL     1      -0.702 -13.887  -2.989  0.00  0.00    -0.043 C 
BRANCH  12  13
ATOM     13  C   UNL     1      -0.570 -15.021  -2.005  0.00  0.00    -0.064 A 
ATOM     14  C   UNL     1       0.635 -15.685  -1.874  0.00  0.00    +0.002 A 
ATOM     15  C   UNL     1       0.756 -16.726  -0.972  0.00  0.00    +0.000 A 
ATOM     16  C   UNL     1      -0.328 -17.101  -0.201  0.00  0.00    +0.000 A 
ATOM     17  C   UNL     1      -1.533 -16.436  -0.331  0.00  0.00    +0.000 A 
ATOM     18  C   UNL     1      -1.653 -15.393  -1.230  0.00  0.00    +0.002 A 
ENDBRANCH  12  13
ENDBRANCH   8  12
ENDBRANCH   3   5
BRANCH   1  22
ATOM     19  N   UNL     1       0.059  -4.170  -0.021  0.00  0.00    -0.209 N 
ATOM     20  C   UNL     1       0.698  -4.987   0.870  0.00  0.00    +0.200 A 
ATOM     21  N   UNL     1       0.468  -6.233   0.511  0.00  0.00    -0.199 NA
ATOM     22  C   UNL     1      -0.300  -6.254  -0.586  0.00  0.00    +0.237 A 
ATOM     23  N   UNL     1      -0.579  -5.017  -0.942  0.00  0.00    -0.139 NA
BRANCH  19  28
ATOM     24  C   UNL     1      -0.018   1.503   0.010  0.00  0.00    +0.044 C 
ATOM     25  C   UNL     1       0.002  -0.004   0.002  0.00  0.00    -0.050 A 
ATOM     26  C   UNL     1       0.006  -0.687  -1.200  0.00  0.00    +0.005 A 
ATOM     27  C   UNL     1       0.025  -2.068  -1.211  0.00  0.00    +0.028 A 
ATOM     28  C   UNL     1       0.041  -2.771  -0.013  0.00  0.00    +0.068 A 
ATOM     29  C   UNL     1       0.037  -2.081   1.192  0.00  0.00    +0.028 A 
ATOM     30  C   UNL     1       0.023  -0.700   1.197  0.00  0.00    +0.005 A 
ENDBRANCH  19  28
BRANCH  20  31
ATOM     31  C   UNL     1       1.499  -4.551   2.025  0.00  0.00    +0.172 A 
ATOM     32  C   UNL     1       1.899  -5.336   3.064  0.00  0.00    +0.053 A 
ATOM     33  C   UNL     1       2.638  -4.513   3.933  0.00  0.00    +0.042 A 
ATOM     34  C   UNL     1       2.655  -3.279   3.390  0.00  0.00    +0.196 A 
ATOM     35  O   UNL     1       1.971  -3.306   2.236  0.00  0.00    -0.460 OA
ENDBRANCH  20  31
ENDBRANCH   1  22
TORSDOF 6
