REMARK  Name = ZINC13065576
REMARK  10 active torsions:
REMARK  status: ('A' for Active; 'I' for Inactive)
REMARK    1  A    between atoms: C_1  and  C_2
REMARK    2  A    between atoms: C_2  and  O_3
REMARK    3  A    between atoms: O_3  and  C_4
REMARK    4  A    between atoms: C_11  and  C_16
REMARK    5  A    between atoms: C_16  and  N_67
REMARK    6  A    between atoms: C_17  and  C_18
REMARK    7  A    between atoms: C_17  and  N_67
REMARK    8  A    between atoms: N_22  and  C_23
REMARK    9  A    between atoms: C_23  and  C_24
REMARK   10  A    between atoms: C_31  and  N_67
REMARK                            x       y       z     vdW  Elec       q    Type
REMARK                         _______ _______ _______ _____ _____    ______ ____
ROOT
ATOM      1  N   UNL     1      -0.200   0.670  -2.786  0.00  0.00    +0.389 N 
ATOM      2  H   UNL     1      -0.008  -0.321  -2.973  0.00  0.00    -0.080 HD
ENDROOT
BRANCH   1   3
ATOM      3  C   UNL     1      -0.916   0.786  -1.498  0.00  0.00    -0.068 C 
ATOM      4  C   UNL     1      -0.140   0.011  -0.431  0.00  0.00    -0.015 C 
ATOM      5  C   UNL     1      -0.880   0.103   0.905  0.00  0.00    -0.002 C 
ATOM      6  C   UNL     1      -0.996   1.570   1.324  0.00  0.00    -0.000 C 
ATOM      7  C   UNL     1      -1.772   2.345   0.257  0.00  0.00    -0.002 C 
ATOM      8  C   UNL     1      -1.032   2.253  -1.079  0.00  0.00    -0.015 C 
ENDBRANCH   1   3
BRANCH   1   9
ATOM      9  C   UNL     1      -1.035   1.212  -3.879  0.00  0.00    -0.037 C 
BRANCH   9  17
ATOM     10  C   UNL     1      -6.843  -0.875  -3.285  0.00  0.00    +0.121 A 
ATOM     11  C   UNL     1      -6.679  -2.002  -4.088  0.00  0.00    +0.047 A 
ATOM     12  C   UNL     1      -5.465  -2.272  -4.680  0.00  0.00    +0.030 A 
ATOM     13  C   UNL     1      -4.388  -1.415  -4.479  0.00  0.00    +0.049 A 
ATOM     14  C   UNL     1      -4.549  -0.275  -3.669  0.00  0.00    +0.002 A 
ATOM     15  C   UNL     1      -5.787  -0.011  -3.073  0.00  0.00    +0.055 A 
ATOM     16  C   UNL     1      -3.405   0.616  -3.462  0.00  0.00    +0.017 A 
ATOM     17  C   UNL     1      -2.231   0.314  -4.068  0.00  0.00    +0.001 A 
ATOM     18  C   UNL     1      -2.121  -0.842  -4.871  0.00  0.00    +0.251 A 
ATOM     19  O   UNL     1      -1.054  -1.097  -5.402  0.00  0.00    -0.268 OA
ATOM     20  N   UNL     1      -3.164  -1.668  -5.063  0.00  0.00    -0.322 N 
ATOM     21  H   UNL     1      -3.054  -2.454  -5.622  0.00  0.00    +0.169 HD
BRANCH  10  22
ATOM     22  O   UNL     1      -8.048  -0.624  -2.708  0.00  0.00    -0.492 OA
BRANCH  22  24
ATOM     23  C   UNL     1     -10.368  -1.112  -2.240  0.00  0.00    +0.048 C 
ATOM     24  C   UNL     1      -9.098  -1.557  -2.969  0.00  0.00    +0.225 C 
ENDBRANCH  22  24
ENDBRANCH  10  22
ENDBRANCH   9  17
ENDBRANCH   1   9
BRANCH   1  25
ATOM     25  C   UNL     1       1.082   1.403  -2.719  0.00  0.00    +0.001 C 
BRANCH  25  26
ATOM     26  C   UNL     1       1.943   0.978  -3.881  0.00  0.00    +0.135 A 
ATOM     27  N   UNL     1       2.707  -0.086  -3.940  0.00  0.00    -0.115 NA
ATOM     28  N   UNL     1       3.280  -0.100  -5.094  0.00  0.00    -0.023 NA
ATOM     29  N   UNL     1       2.902   0.928  -5.772  0.00  0.00    -0.044 NA
ATOM     30  N   UNL     1       2.074   1.614  -5.060  0.00  0.00    -0.227 N 
BRANCH  30  31
ATOM     31  C   UNL     1       1.403   2.854  -5.458  0.00  0.00    +0.182 C 
BRANCH  31  32
ATOM     32  C   UNL     1       2.303   4.027  -5.168  0.00  0.00    -0.026 A 
ATOM     33  C   UNL     1       2.259   4.641  -3.930  0.00  0.00    +0.008 A 
ATOM     34  C   UNL     1       3.087   5.715  -3.661  0.00  0.00    +0.038 A 
ATOM     35  C   UNL     1       3.954   6.181  -4.636  0.00  0.00    +0.123 A 
ATOM     36  C   UNL     1       3.993   5.569  -5.877  0.00  0.00    +0.038 A 
ATOM     37  C   UNL     1       3.167   4.492  -6.141  0.00  0.00    +0.008 A 
ATOM     38  F   UNL     1       4.760   7.233  -4.375  0.00  0.00    -0.205 F 
ENDBRANCH  31  32
ENDBRANCH  30  31
ENDBRANCH  25  26
ENDBRANCH   1  25
TORSDOF 9
