REMARK  Name = ZINC12883533
REMARK  7 active torsions:
REMARK  status: ('A' for Active; 'I' for Inactive)
REMARK    1  A    between atoms: C_1  and  C_2
REMARK    2  A    between atoms: C_2  and  O_3
REMARK    3  A    between atoms: O_3  and  C_4
REMARK    4  A    between atoms: C_7  and  N_10
REMARK    5  A    between atoms: C_13  and  C_20
REMARK    6  A    between atoms: C_14  and  O_19
REMARK    7  A    between atoms: C_34  and  N_56
REMARK                            x       y       z     vdW  Elec       q    Type
REMARK                         _______ _______ _______ _____ _____    ______ ____
ROOT
ATOM      1  N   UNL     1       0.075  -5.051  -3.242  0.00  0.00    -0.229 N 
ATOM      2  C   UNL     1      -0.026  -4.048  -2.348  0.00  0.00    +0.267 A 
ATOM      3  O   UNL     1      -0.131  -2.894  -2.730  0.00  0.00    -0.267 OA
ATOM      4  C   UNL     1      -0.010  -4.340  -0.973  0.00  0.00    +0.069 A 
ATOM      5  C   UNL     1       0.113  -5.637  -0.572  0.00  0.00    +0.201 A 
ATOM      6  N   UNL     1       0.208  -6.628  -1.516  0.00  0.00    -0.278 N 
ATOM      7  H   UNL     1       0.292  -7.553  -1.236  0.00  0.00    +0.173 HD
ATOM      8  C   UNL     1       0.190  -6.326  -2.827  0.00  0.00    +0.336 A 
ATOM      9  O   UNL     1       0.279  -7.218  -3.648  0.00  0.00    -0.246 OA
ENDROOT
BRANCH   4  10
ATOM     10  C   UNL     1      -0.121  -3.233   0.044  0.00  0.00    +0.020 C 
ATOM     11  C   UNL     1       1.091  -2.336  -0.045  0.00  0.00    +0.011 A 
ATOM     12  C   UNL     1       1.012  -0.990  -0.006  0.00  0.00    -0.022 A 
ATOM     13  C   UNL     1       2.368  -0.469  -0.121  0.00  0.00    +0.003 A 
ATOM     14  C   UNL     1       2.926   0.812  -0.143  0.00  0.00    +0.010 A 
ATOM     15  C   UNL     1       4.278   0.963  -0.267  0.00  0.00    +0.001 A 
ATOM     16  C   UNL     1       5.106  -0.147  -0.370  0.00  0.00    +0.002 A 
ATOM     17  C   UNL     1       4.578  -1.420  -0.349  0.00  0.00    +0.026 A 
ATOM     18  C   UNL     1       3.204  -1.598  -0.225  0.00  0.00    +0.047 A 
ATOM     19  N   UNL     1       2.396  -2.713  -0.174  0.00  0.00    -0.359 N 
ATOM     20  H   UNL     1       2.708  -3.630  -0.224  0.00  0.00    +0.166 HD
ATOM     21  C   UNL     1      -0.283  -0.231   0.134  0.00  0.00    +0.019 C 
ATOM     22  C   UNL     1      -1.359  -1.218   0.607  0.00  0.00    -0.073 C 
ATOM     23  C   UNL     1      -2.542  -3.221  -0.067  0.00  0.00    -0.095 C 
ATOM     24  N   UNL     1      -1.320  -2.416  -0.263  0.00  0.00    +0.387 N 
ATOM     25  H   UNL     1      -1.273  -2.113  -1.243  0.00  0.00    -0.081 HD
ENDBRANCH   4  10
BRANCH   1  29
ATOM     26  C   UNL     1       0.030  -4.200  -7.325  0.00  0.00    +0.121 A 
ATOM     27  C   UNL     1       1.234  -4.233  -6.637  0.00  0.00    +0.047 A 
ATOM     28  C   UNL     1       1.249  -4.515  -5.285  0.00  0.00    +0.030 A 
ATOM     29  C   UNL     1       0.060  -4.765  -4.615  0.00  0.00    +0.055 A 
ATOM     30  C   UNL     1      -1.144  -4.737  -5.306  0.00  0.00    +0.030 A 
ATOM     31  C   UNL     1      -1.159  -4.449  -6.656  0.00  0.00    +0.047 A 
BRANCH  26  32
ATOM     32  O   UNL     1       0.016  -3.922  -8.656  0.00  0.00    -0.492 OA
BRANCH  32  34
ATOM     33  C   UNL     1      -1.076  -3.577 -10.784  0.00  0.00    +0.048 C 
ATOM     34  C   UNL     1      -1.259  -3.904  -9.301  0.00  0.00    +0.225 C 
ENDBRANCH  32  34
ENDBRANCH  26  32
ENDBRANCH   1  29
BRANCH   5  35
ATOM     35  O   UNL     1       0.137  -5.944   0.742  0.00  0.00    -0.493 OA
ATOM     36  H   UNL     1       0.227  -6.889   0.924  0.00  0.00    +0.294 HD
ENDBRANCH   5  35
TORSDOF 5
