REMARK  Name = ZINC65487457
REMARK  6 active torsions:
REMARK  status: ('A' for Active; 'I' for Inactive)
REMARK    1  A    between atoms: C_1  and  C_2
REMARK    2  A    between atoms: C_2  and  C_3
REMARK    3  A    between atoms: C_2  and  N_11
REMARK    4  A    between atoms: C_3  and  C_4
REMARK    5  A    between atoms: N_14  and  N_15
REMARK    6  A    between atoms: C_16  and  C_18
REMARK                            x       y       z     vdW  Elec       q    Type
REMARK                         _______ _______ _______ _____ _____    ______ ____
ROOT
ATOM      1  N   UNL     1       0.711  -0.489   1.189  0.00  0.00    -0.295 N 
ATOM      2  C   UNL     1       0.051  -0.633   2.355  0.00  0.00    +0.316 C 
ATOM      3  O   UNL     1      -1.132  -0.361   2.423  0.00  0.00    -0.251 OA
ATOM      4  N   UNL     1       0.703  -1.080   3.447  0.00  0.00    -0.218 N 
ATOM      5  H   UNL     1       1.654  -0.707   1.135  0.00  0.00    +0.151 HD
ATOM      6  H   UNL     1       0.229  -1.184   4.287  0.00  0.00    +0.174 HD
ENDROOT
BRANCH   4   7
ATOM      7  N   UNL     1       2.066  -1.394   3.370  0.00  0.00    -0.228 N 
ATOM      8  C   UNL     1       2.718  -1.841   4.462  0.00  0.00    +0.281 C 
ATOM      9  O   UNL     1       2.123  -1.971   5.514  0.00  0.00    -0.267 OA
ATOM     10  H   UNL     1       2.541  -1.290   2.530  0.00  0.00    +0.173 HD
BRANCH   8  11
ATOM     11  C   UNL     1       4.154  -2.172   4.380  0.00  0.00    +0.155 A 
ATOM     12  C   UNL     1       4.873  -2.666   5.565  0.00  0.00    +0.020 A 
ATOM     13  C   UNL     1       4.258  -2.844   6.799  0.00  0.00    +0.011 A 
ATOM     14  C   UNL     1       4.999  -3.311   7.864  0.00  0.00    +0.001 A 
ATOM     15  C   UNL     1       6.349  -3.603   7.717  0.00  0.00    +0.001 A 
ATOM     16  C   UNL     1       6.978  -3.434   6.502  0.00  0.00    +0.014 A 
ATOM     17  C   UNL     1       6.248  -2.964   5.416  0.00  0.00    +0.050 A 
ATOM     18  C   UNL     1       6.839  -2.753   4.087  0.00  0.00    +0.272 A 
ATOM     19  O   UNL     1       8.016  -2.989   3.885  0.00  0.00    -0.266 OA
ATOM     20  N   UNL     1       6.047  -2.294   3.096  0.00  0.00    -0.242 N 
ATOM     21  H   UNL     1       6.440  -2.156   2.221  0.00  0.00    +0.192 HD
ATOM     22  N   UNL     1       4.803  -2.035   3.249  0.00  0.00    -0.166 NA
ENDBRANCH   8  11
ENDBRANCH   4   7
BRANCH   1  24
ATOM     23  C   UNL     1      -0.019   1.526   0.010  0.00  0.00    +0.028 C 
ATOM     24  C   UNL     1       0.002  -0.004   0.002  0.00  0.00    +0.076 C 
BRANCH  24  25
ATOM     25  C   UNL     1       0.718  -0.497  -1.257  0.00  0.00    +0.060 C 
BRANCH  25  26
ATOM     26  C   UNL     1       0.632  -2.000  -1.327  0.00  0.00    -0.010 A 
ATOM     27  C   UNL     1       1.662  -2.776  -0.830  0.00  0.00    +0.006 A 
ATOM     28  C   UNL     1       1.583  -4.155  -0.895  0.00  0.00    +0.000 A 
ATOM     29  C   UNL     1       0.473  -4.759  -1.457  0.00  0.00    +0.003 A 
ATOM     30  C   UNL     1      -0.558  -3.985  -1.954  0.00  0.00    +0.038 A 
ATOM     31  C   UNL     1      -0.482  -2.604  -1.885  0.00  0.00    +0.127 A 
ATOM     32  F   UNL     1      -1.492  -1.847  -2.367  0.00  0.00    -0.205 F 
ENDBRANCH  25  26
ENDBRANCH  24  25
ENDBRANCH   1  24
TORSDOF 5
