REMARK  Name = ZINC21529390
REMARK  8 active torsions:
REMARK  status: ('A' for Active; 'I' for Inactive)
REMARK    1  A    between atoms: C_1  and  C_2
REMARK    2  A    between atoms: C_2  and  C_3
REMARK    3  A    between atoms: C_2  and  C_4
REMARK    4  A    between atoms: C_4  and  C_6
REMARK    5  A    between atoms: C_4  and  N_25
REMARK    6  A    between atoms: N_15  and  C_18
REMARK    7  A    between atoms: C_18  and  C_19
REMARK    8  A    between atoms: C_26  and  C_28
REMARK                            x       y       z     vdW  Elec       q    Type
REMARK                         _______ _______ _______ _____ _____    ______ ____
ROOT
ATOM      1  C   UNL     1      -1.313  -2.033   0.175  0.00  0.00    +0.239 C 
ATOM      2  O   UNL     1      -1.792  -2.686  -0.728  0.00  0.00    -0.273 OA
ATOM      3  N   UNL     1      -0.782  -2.654   1.247  0.00  0.00    -0.263 N 
ATOM      4  C   UNL     1      -0.866  -4.037   1.362  0.00  0.00    +0.165 A 
ATOM      5  N   UNL     1      -1.415  -4.894   0.528  0.00  0.00    -0.229 NA
ATOM      6  C   UNL     1      -1.420  -6.199   0.770  0.00  0.00    +0.050 A 
ATOM      7  C   UNL     1      -0.821  -6.570   1.934  0.00  0.00    -0.002 A 
ATOM      8  S   UNL     1      -0.281  -5.022   2.598  0.00  0.00    -0.059 S 
ATOM      9  C   UNL     1      -0.682  -7.954   2.466  0.00  0.00    -0.033 C 
ATOM     10  N   UNL     1      -1.612  -8.829   1.726  0.00  0.00    +0.386 N 
ATOM     11  C   UNL     1      -1.440  -8.620   0.283  0.00  0.00    -0.072 C 
ATOM     12  C   UNL     1      -2.023  -7.266  -0.134  0.00  0.00    +0.038 C 
ATOM     13  H   UNL     1      -0.342  -2.135   1.938  0.00  0.00    +0.157 HD
ATOM     14  H   UNL     1      -2.561  -8.608   1.987  0.00  0.00    -0.081 HD
ENDROOT
BRANCH   1  15
ATOM     15  C   UNL     1      -1.313  -0.528   0.099  0.00  0.00    +0.162 C 
BRANCH  15  16
ATOM     16  N   UNL     1      -2.303  -0.089  -0.888  0.00  0.00    -0.300 N 
ATOM     17  C   UNL     1      -2.849   1.140  -0.793  0.00  0.00    +0.250 C 
ATOM     18  O   UNL     1      -2.520   1.883   0.111  0.00  0.00    -0.270 OA
ATOM     19  H   UNL     1      -2.565  -0.682  -1.609  0.00  0.00    +0.150 HD
BRANCH  17  20
ATOM     20  C   UNL     1      -3.846   1.582  -1.787  0.00  0.00    +0.107 A 
ATOM     21  C   UNL     1      -5.208   1.351  -1.568  0.00  0.00    +0.138 A 
ATOM     22  C   UNL     1      -6.135   1.769  -2.504  0.00  0.00    +0.039 A 
ATOM     23  C   UNL     1      -5.720   2.414  -3.655  0.00  0.00    +0.006 A 
ATOM     24  C   UNL     1      -4.375   2.646  -3.880  0.00  0.00    +0.039 A 
ATOM     25  C   UNL     1      -3.435   2.240  -2.951  0.00  0.00    +0.138 A 
ATOM     26  F   UNL     1      -2.122   2.473  -3.170  0.00  0.00    -0.205 F 
ATOM     27  F   UNL     1      -5.616   0.721  -0.445  0.00  0.00    -0.205 F 
ENDBRANCH  17  20
ENDBRANCH  15  16
BRANCH  15  29
ATOM     28  C   UNL     1       0.371  -0.503  -1.746  0.00  0.00    +0.009 C 
ATOM     29  C   UNL     1       0.075  -0.039  -0.319  0.00  0.00    +0.012 C 
ATOM     30  C   UNL     1       0.116   1.489  -0.260  0.00  0.00    +0.009 C 
ENDBRANCH  15  29
ENDBRANCH   1  15
BRANCH  10  31
ATOM     31  C   UNL     1      -1.329 -10.233   2.054  0.00  0.00    -0.043 C 
BRANCH  31  32
ATOM     32  C   UNL     1      -1.625 -10.478   3.511  0.00  0.00    -0.064 A 
ATOM     33  C   UNL     1      -0.635 -10.292   4.459  0.00  0.00    +0.002 A 
ATOM     34  C   UNL     1      -0.907 -10.517   5.795  0.00  0.00    +0.000 A 
ATOM     35  C   UNL     1      -2.169 -10.927   6.185  0.00  0.00    +0.000 A 
ATOM     36  C   UNL     1      -3.159 -11.111   5.238  0.00  0.00    +0.000 A 
ATOM     37  C   UNL     1      -2.888 -10.883   3.901  0.00  0.00    +0.002 A 
ENDBRANCH  31  32
ENDBRANCH  10  31
TORSDOF 6
