REMARK  Name = ZINC17418206
REMARK  8 active torsions:
REMARK  status: ('A' for Active; 'I' for Inactive)
REMARK    1  A    between atoms: C_1  and  C_2
REMARK    2  A    between atoms: C_2  and  C_8
REMARK    3  A    between atoms: N_9  and  N_10
REMARK    4  A    between atoms: N_10  and  C_11
REMARK    5  A    between atoms: C_14  and  N_21
REMARK    6  A    between atoms: N_21  and  N_22
REMARK    7  A    between atoms: C_23  and  C_24
REMARK    8  A    between atoms: C_24  and  C_30
REMARK                            x       y       z     vdW  Elec       q    Type
REMARK                         _______ _______ _______ _____ _____    ______ ____
ROOT
ATOM      1  C   UNL     1      -4.781   0.677   0.003  0.00  0.00    +0.168 A 
ATOM      2  N   UNL     1      -4.575   1.980   0.005  0.00  0.00    -0.130 NA
ATOM      3  N   UNL     1      -5.521   2.843   0.008  0.00  0.00    -0.130 NA
ATOM      4  C   UNL     1      -6.800   2.518   0.010  0.00  0.00    +0.168 A 
ATOM      5  C   UNL     1      -7.158   1.149   0.009  0.00  0.00    +0.029 A 
ATOM      6  C   UNL     1      -6.111   0.194  -0.001  0.00  0.00    +0.029 A 
ATOM      7  C   UNL     1      -6.420  -1.170  -0.008  0.00  0.00    +0.012 A 
ATOM      8  C   UNL     1      -7.727  -1.560  -0.011  0.00  0.00    +0.001 A 
ATOM      9  C   UNL     1      -8.756  -0.622  -0.007  0.00  0.00    +0.001 A 
ATOM     10  C   UNL     1      -8.488   0.716   0.011  0.00  0.00    +0.012 A 
ENDROOT
BRANCH   1  11
ATOM     11  N   UNL     1      -3.710  -0.207  -0.001  0.00  0.00    -0.219 N 
ATOM     12  H   UNL     1      -3.870  -1.164  -0.007  0.00  0.00    +0.176 HD
BRANCH  11  14
ATOM     13  C   UNL     1      -1.410  -0.531  -0.002  0.00  0.00    +0.150 C 
ATOM     14  N   UNL     1      -2.397   0.283   0.002  0.00  0.00    -0.190 NA
BRANCH  13  16
ATOM     15  C   UNL     1      -0.019   1.526   0.010  0.00  0.00    +0.062 C 
ATOM     16  C   UNL     1       0.002  -0.004   0.002  0.00  0.00    +0.143 C 
ATOM     17  O   UNL     1       0.695  -0.471  -1.159  0.00  0.00    -0.488 OA
ATOM     18  C   UNL     1       2.038  -0.317  -1.191  0.00  0.00    +0.184 C 
ATOM     19  C   UNL     1       2.758  -0.069  -0.130  0.00  0.00    +0.011 C 
ATOM     20  C   UNL     1       2.154   0.080   1.240  0.00  0.00    +0.034 C 
ATOM     21  C   UNL     1       0.744  -0.519   1.244  0.00  0.00    +0.058 C 
ENDBRANCH  13  16
ENDBRANCH  11  14
ENDBRANCH   1  11
BRANCH   4  22
ATOM     22  N   UNL     1      -7.779   3.503   0.014  0.00  0.00    -0.219 N 
ATOM     23  H   UNL     1      -8.716   3.255   0.016  0.00  0.00    +0.176 HD
BRANCH  22  24
ATOM     24  N   UNL     1      -7.411   4.855   0.016  0.00  0.00    -0.190 NA
ATOM     25  C   UNL     1      -8.313   5.763   0.020  0.00  0.00    +0.150 C 
BRANCH  25  26
ATOM     26  C   UNL     1      -7.918   7.218   0.022  0.00  0.00    +0.143 C 
ATOM     27  O   UNL     1      -6.493   7.330  -0.009  0.00  0.00    -0.488 OA
ATOM     28  C   UNL     1      -5.966   8.546  -0.276  0.00  0.00    +0.184 C 
ATOM     29  C   UNL     1      -6.650   9.525  -0.805  0.00  0.00    +0.011 C 
ATOM     30  C   UNL     1      -8.106   9.393  -1.162  0.00  0.00    +0.034 C 
ATOM     31  C   UNL     1      -8.483   7.909  -1.227  0.00  0.00    +0.058 C 
ATOM     32  C   UNL     1      -8.463   7.899   1.279  0.00  0.00    +0.062 C 
ENDBRANCH  25  26
ENDBRANCH  22  24
ENDBRANCH   4  22
TORSDOF 6
