REMARK  Name = ZINC13064660
REMARK  14 active torsions:
REMARK  status: ('A' for Active; 'I' for Inactive)
REMARK    1  A    between atoms: C_1  and  C_2
REMARK    2  A    between atoms: C_2  and  C_3
REMARK    3  A    between atoms: C_3  and  C_5
REMARK    4  A    between atoms: C_3  and  N_70
REMARK    5  A    between atoms: N_9  and  C_10
REMARK    6  A    between atoms: C_10  and  C_11
REMARK    7  A    between atoms: C_14  and  O_17
REMARK    8  A    between atoms: O_17  and  C_18
REMARK    9  A    between atoms: C_19  and  C_20
REMARK   10  A    between atoms: C_19  and  N_70
REMARK   11  A    between atoms: C_25  and  C_26
REMARK   12  A    between atoms: C_25  and  N_70
REMARK   13  A    between atoms: C_30  and  C_39
REMARK   14  A    between atoms: C_31  and  C_38
REMARK                            x       y       z     vdW  Elec       q    Type
REMARK                         _______ _______ _______ _____ _____    ______ ____
ROOT
ATOM      1  N   UNL     1      -1.462  -1.810   1.558  0.00  0.00    +0.392 N 
ATOM      2  H   UNL     1      -1.303  -1.633   2.557  0.00  0.00    -0.080 HD
ENDROOT
BRANCH   1   3
ATOM      3  C   UNL     1      -1.426  -0.524   0.830  0.00  0.00    +0.003 C 
BRANCH   3   4
ATOM      4  C   UNL     1      -0.473   0.403   1.541  0.00  0.00    +0.138 A 
ATOM      5  N   UNL     1       0.433   0.066   2.426  0.00  0.00    -0.115 NA
ATOM      6  N   UNL     1       1.042   1.138   2.799  0.00  0.00    -0.023 NA
ATOM      7  N   UNL     1       0.548   2.150   2.175  0.00  0.00    -0.044 NA
ATOM      8  N   UNL     1      -0.389   1.738   1.390  0.00  0.00    -0.226 N 
BRANCH   8   9
ATOM      9  C   UNL     1      -1.203   2.566   0.497  0.00  0.00    +0.182 C 
BRANCH   9  10
ATOM     10  C   UNL     1      -2.438   3.028   1.227  0.00  0.00    -0.026 A 
ATOM     11  C   UNL     1      -3.590   2.266   1.185  0.00  0.00    +0.009 A 
ATOM     12  C   UNL     1      -4.722   2.684   1.858  0.00  0.00    +0.046 A 
ATOM     13  C   UNL     1      -4.704   3.876   2.568  0.00  0.00    +0.120 A 
ATOM     14  C   UNL     1      -3.548   4.642   2.604  0.00  0.00    +0.046 A 
ATOM     15  C   UNL     1      -2.417   4.216   1.933  0.00  0.00    +0.009 A 
BRANCH  13  16
ATOM     16  O   UNL     1      -5.817   4.293   3.227  0.00  0.00    -0.495 OA
ATOM     17  C   UNL     1      -6.971   3.453   3.146  0.00  0.00    +0.277 C 
ENDBRANCH  13  16
ENDBRANCH   9  10
ENDBRANCH   8   9
ENDBRANCH   3   4
BRANCH   3  19
ATOM     18  C   UNL     1      -1.986  -1.572  -1.367  0.00  0.00    +0.002 C 
ATOM     19  C   UNL     1      -0.952  -0.738  -0.608  0.00  0.00    -0.011 C 
ENDBRANCH   3  19
ENDBRANCH   1   3
BRANCH   1  20
ATOM     20  C   UNL     1      -0.398  -2.705   1.055  0.00  0.00    -0.034 C 
BRANCH  20  21
ATOM     21  C   UNL     1       0.938  -2.172   1.508  0.00  0.00    -0.027 A 
ATOM     22  C   UNL     1       1.582  -2.372   2.683  0.00  0.00    +0.009 A 
ATOM     23  C   UNL     1       2.814  -1.777   2.882  0.00  0.00    +0.008 A 
ATOM     24  C   UNL     1       3.341  -1.012   1.895  0.00  0.00    +0.045 A 
ATOM     25  S   UNL     1       2.084  -1.121   0.632  0.00  0.00    -0.103 S 
ENDBRANCH  20  21
ENDBRANCH   1  20
BRANCH   1  26
ATOM     26  C   UNL     1      -2.783  -2.451   1.387  0.00  0.00    -0.036 C 
BRANCH  26  27
ATOM     27  C   UNL     1      -2.936  -3.529   2.430  0.00  0.00    +0.001 A 
ATOM     28  C   UNL     1      -3.551  -3.249   3.605  0.00  0.00    +0.017 A 
ATOM     29  C   UNL     1      -3.688  -4.319   4.595  0.00  0.00    -0.001 A 
ATOM     30  C   UNL     1      -4.318  -4.093   5.823  0.00  0.00    +0.013 A 
ATOM     31  C   UNL     1      -4.425  -5.111   6.727  0.00  0.00    -0.047 A 
ATOM     32  C   UNL     1      -3.914  -6.370   6.438  0.00  0.00    -0.046 A 
ATOM     33  C   UNL     1      -3.289  -6.615   5.234  0.00  0.00    +0.030 A 
ATOM     34  C   UNL     1      -3.168  -5.593   4.298  0.00  0.00    +0.049 A 
ATOM     35  N   UNL     1      -2.549  -5.811   3.086  0.00  0.00    -0.322 N 
ATOM     36  H   UNL     1      -2.192  -6.690   2.883  0.00  0.00    +0.169 HD
ATOM     37  C   UNL     1      -2.433  -4.824   2.181  0.00  0.00    +0.251 A 
ATOM     38  O   UNL     1      -1.879  -5.052   1.120  0.00  0.00    -0.268 OA
ATOM     39  C   UNL     1      -4.043  -7.478   7.451  0.00  0.00    +0.044 C 
ATOM     40  C   UNL     1      -5.104  -4.867   8.050  0.00  0.00    +0.044 C 
ENDBRANCH  26  27
ENDBRANCH   1  26
TORSDOF 10
