REMARK  Name = ZINC40173511
REMARK  11 active torsions:
REMARK  status: ('A' for Active; 'I' for Inactive)
REMARK    1  A    between atoms: C_1  and  C_2
REMARK    2  A    between atoms: C_2  and  C_3
REMARK    3  A    between atoms: C_3  and  C_5
REMARK    4  A    between atoms: C_3  and  N_23
REMARK    5  A    between atoms: N_7  and  C_8
REMARK    6  A    between atoms: C_9  and  C_20
REMARK    7  A    between atoms: C_10  and  C_13
REMARK    8  A    between atoms: C_16  and  C_19
REMARK    9  A    between atoms: C_27  and  S_28
REMARK   10  A    between atoms: S_28  and  C_29
REMARK   11  A    between atoms: C_29  and  C_30
REMARK                            x       y       z     vdW  Elec       q    Type
REMARK                         _______ _______ _______ _____ _____    ______ ____
ROOT
ATOM      1  C   UNL     1       2.208  -0.296  -1.092  0.00  0.00    +0.241 C 
ATOM      2  O   UNL     1       3.021  -1.196  -1.124  0.00  0.00    -0.273 OA
ATOM      3  N   UNL     1       2.620   0.980  -0.963  0.00  0.00    -0.278 N 
ATOM      4  H   UNL     1       1.977   1.704  -1.010  0.00  0.00    +0.155 HD
ENDROOT
BRANCH   3   5
ATOM      5  C   UNL     1       3.963   1.258  -0.762  0.00  0.00    +0.085 A 
ATOM      6  C   UNL     1       4.559   2.498  -0.604  0.00  0.00    +0.073 A 
ATOM      7  C   UNL     1       5.997   2.508  -0.407  0.00  0.00    +0.003 A 
ATOM      8  C   UNL     1       6.593   1.287  -0.401  0.00  0.00    +0.056 A 
ATOM      9  S   UNL     1       5.233   0.168  -0.650  0.00  0.00    -0.081 S 
BRANCH   7  10
ATOM     10  C   UNL     1       6.763   3.764  -0.224  0.00  0.00    -0.017 A 
ATOM     11  C   UNL     1       6.590   4.824  -1.113  0.00  0.00    +0.009 A 
ATOM     12  C   UNL     1       7.306   5.991  -0.938  0.00  0.00    +0.004 A 
ATOM     13  C   UNL     1       8.194   6.110   0.117  0.00  0.00    -0.050 A 
ATOM     14  C   UNL     1       8.370   5.061   1.001  0.00  0.00    +0.004 A 
ATOM     15  C   UNL     1       7.655   3.891   0.840  0.00  0.00    +0.009 A 
ATOM     16  C   UNL     1       8.973   7.386   0.301  0.00  0.00    +0.044 C 
ENDBRANCH   7  10
BRANCH   6  17
ATOM     17  C   UNL     1       3.777   3.737  -0.634  0.00  0.00    +0.244 C 
ATOM     18  O   UNL     1       3.310   4.187   0.396  0.00  0.00    -0.270 OA
ATOM     19  N   UNL     1       3.576   4.378  -1.802  0.00  0.00    -0.325 N 
ATOM     20  H   UNL     1       3.948   4.019  -2.623  0.00  0.00    +0.145 HD
ATOM     21  H   UNL     1       3.058   5.198  -1.822  0.00  0.00    +0.145 HD
ENDBRANCH   6  17
ENDBRANCH   3   5
BRANCH   1  22
ATOM     22  C   UNL     1       0.737  -0.607  -1.198  0.00  0.00    +0.178 C 
BRANCH  22  23
ATOM     23  N   UNL     1       0.545  -2.059  -1.233  0.00  0.00    -0.279 N 
ATOM     24  C   UNL     1       0.916  -2.942  -0.260  0.00  0.00    +0.216 A 
ATOM     25  N   UNL     1       0.578  -4.145  -0.653  0.00  0.00    -0.113 NA
ATOM     26  N   UNL     1      -0.026  -4.035  -1.913  0.00  0.00    -0.121 NA
ATOM     27  C   UNL     1      -0.041  -2.767  -2.244  0.00  0.00    +0.194 A 
ATOM     28  N   UNL     1       1.543  -2.621   0.938  0.00  0.00    -0.328 N 
ATOM     29  H   UNL     1       1.754  -1.696   1.142  0.00  0.00    +0.145 HD
ATOM     30  H   UNL     1       1.768  -3.321   1.570  0.00  0.00    +0.145 HD
BRANCH  27  31
ATOM     31  S   UNL     1      -0.700  -2.094  -3.734  0.00  0.00    -0.071 S 
BRANCH  31  32
ATOM     32  C   UNL     1      -1.320  -3.542  -4.633  0.00  0.00    +0.195 C 
BRANCH  32  33
ATOM     33  C   UNL     1      -1.904  -3.111  -5.914  0.00  0.00    +0.074 C 
ATOM     34  N   UNL     1      -2.355  -2.779  -6.902  0.00  0.00    -0.196 NA
ENDBRANCH  32  33
ENDBRANCH  31  32
ENDBRANCH  27  31
ENDBRANCH  22  23
BRANCH  22  36
ATOM     35  C   UNL     1      -1.502  -0.218  -0.160  0.00  0.00    +0.006 C 
ATOM     36  C   UNL     1       0.005  -0.025   0.014  0.00  0.00    +0.031 C 
ENDBRANCH  22  36
ENDBRANCH   1  22
TORSDOF 9
