REMARK  Name = ZINC12496907
REMARK  13 active torsions:
REMARK  status: ('A' for Active; 'I' for Inactive)
REMARK    1  A    between atoms: C_1  and  O_2
REMARK    2  A    between atoms: O_2  and  C_3
REMARK    3  A    between atoms: C_6  and  C_11
REMARK    4  A    between atoms: C_7  and  O_9
REMARK    5  A    between atoms: O_9  and  C_10
REMARK    6  A    between atoms: N_19  and  C_22
REMARK    7  A    between atoms: C_29  and  C_30
REMARK    8  A    between atoms: C_29  and  C_34
REMARK    9  A    between atoms: C_30  and  C_31
REMARK   10  A    between atoms: C_31  and  S_32
REMARK   11  A    between atoms: S_32  and  C_33
REMARK   12  A    between atoms: C_34  and  O_36
REMARK   13  A    between atoms: O_36  and  C_37
REMARK                            x       y       z     vdW  Elec       q    Type
REMARK                         _______ _______ _______ _____ _____    ______ ____
ROOT
ATOM      1  C   UNL     1      -4.844   2.788   0.266  0.00  0.00    -0.023 C 
ATOM      2  C   UNL     1      -3.427   2.389   0.251  0.00  0.00    +0.077 C 
ATOM      3  C   UNL     1      -2.745   3.637  -0.440  0.00  0.00    +0.086 C 
ATOM      4  C   UNL     1      -1.327   3.222  -0.134  0.00  0.00    +0.229 C 
ATOM      5  O   UNL     1      -0.393   3.948   0.133  0.00  0.00    -0.275 OA
ATOM      6  N   UNL     1      -1.314   1.859  -0.221  0.00  0.00    -0.210 N 
ATOM      7  C   UNL     1      -2.572   1.312  -0.179  0.00  0.00    +0.229 C 
ATOM      8  O   UNL     1      -2.893   0.174  -0.446  0.00  0.00    -0.275 OA
ATOM      9  C   UNL     1      -3.396   4.723   0.418  0.00  0.00    +0.044 C 
ATOM     10  N   UNL     1      -4.757   4.210   0.725  0.00  0.00    +0.395 N 
ATOM     11  H   UNL     1      -4.924   4.257   1.737  0.00  0.00    -0.083 HD
ATOM     12  H   UNL     1      -5.460   4.775   0.235  0.00  0.00    -0.083 HD
ENDROOT
BRANCH   6  13
ATOM     13  C   UNL     1      -0.140   1.100  -0.334  0.00  0.00    +0.044 A 
ATOM     14  C   UNL     1       1.096   1.732  -0.374  0.00  0.00    +0.027 A 
ATOM     15  C   UNL     1       2.250   0.983  -0.490  0.00  0.00    +0.040 A 
ATOM     16  C   UNL     1       2.176  -0.398  -0.568  0.00  0.00    +0.124 A 
ATOM     17  C   UNL     1       0.944  -1.030  -0.529  0.00  0.00    +0.040 A 
ATOM     18  C   UNL     1      -0.212  -0.284  -0.412  0.00  0.00    +0.027 A 
ATOM     19  F   UNL     1       3.306  -1.129  -0.682  0.00  0.00    -0.205 F 
ENDBRANCH   6  13
BRANCH   1  23
ATOM     20  C   UNL     1      -7.069   0.403   3.033  0.00  0.00    +0.124 A 
ATOM     21  C   UNL     1      -5.683   0.430   3.093  0.00  0.00    +0.046 A 
ATOM     22  C   UNL     1      -4.967   1.198   2.195  0.00  0.00    +0.009 A 
ATOM     23  C   UNL     1      -5.629   1.948   1.241  0.00  0.00    -0.019 A 
ATOM     24  C   UNL     1      -7.014   1.923   1.177  0.00  0.00    +0.125 A 
ATOM     25  C   UNL     1      -7.735   1.150   2.074  0.00  0.00    +0.091 A 
BRANCH  20  27
ATOM     26  C   UNL     1      -7.021  -1.100   4.875  0.00  0.00    +0.277 C 
ATOM     27  O   UNL     1      -7.773  -0.356   3.914  0.00  0.00    -0.495 OA
ENDBRANCH  20  27
BRANCH  24  28
ATOM     28  O   UNL     1      -7.665   2.657   0.236  0.00  0.00    -0.495 OA
ATOM     29  C   UNL     1      -9.092   2.585   0.229  0.00  0.00    +0.277 C 
ENDBRANCH  24  28
ENDBRANCH   1  23
BRANCH   9  30
ATOM     30  C   UNL     1      -3.482   6.014  -0.354  0.00  0.00    +0.297 C 
ATOM     31  O   UNL     1      -2.708   6.232  -1.256  0.00  0.00    -0.252 OA
BRANCH  30  32
ATOM     32  O   UNL     1      -4.419   6.923  -0.039  0.00  0.00    -0.469 OA
ATOM     33  C   UNL     1      -4.443   8.144  -0.825  0.00  0.00    +0.280 C 
ENDBRANCH  30  32
ENDBRANCH   9  30
BRANCH   9  34
ATOM     34  C   UNL     1      -2.600   4.928   1.708  0.00  0.00    +0.010 C 
BRANCH  34  35
ATOM     35  C   UNL     1      -3.333   5.926   2.607  0.00  0.00    +0.068 C 
BRANCH  35  36
ATOM     36  S   UNL     1      -2.389   6.169   4.136  0.00  0.00    -0.164 S 
ATOM     37  C   UNL     1      -3.379   7.362   5.078  0.00  0.00    +0.084 C 
ENDBRANCH  35  36
ENDBRANCH  34  35
ENDBRANCH   9  34
TORSDOF 9
