REMARK  Name = ZINC09016138
REMARK  6 active torsions:
REMARK  status: ('A' for Active; 'I' for Inactive)
REMARK    1  A    between atoms: C_1  and  C_2
REMARK    2  A    between atoms: C_8  and  C_43
REMARK    3  A    between atoms: C_13  and  C_35
REMARK    4  A    between atoms: C_15  and  C_27
REMARK    5  A    between atoms: C_27  and  C_29
REMARK    6  A    between atoms: C_35  and  C_37
REMARK                            x       y       z     vdW  Elec       q    Type
REMARK                         _______ _______ _______ _____ _____    ______ ____
ROOT
ATOM      1  C   UNL     1      -0.018   1.503   0.010  0.00  0.00    +0.044 C 
ATOM      2  C   UNL     1       0.002  -0.004   0.002  0.00  0.00    -0.050 A 
ATOM      3  C   UNL     1       0.006  -0.683  -1.205  0.00  0.00    +0.005 A 
ATOM      4  C   UNL     1       0.012  -2.067  -1.229  0.00  0.00    +0.024 A 
ATOM      5  C   UNL     1       0.020  -2.768  -0.043  0.00  0.00    +0.038 A 
ATOM      6  C   UNL     1       0.038  -2.084   1.190  0.00  0.00    -0.001 A 
ATOM      7  C   UNL     1       0.023  -0.694   1.199  0.00  0.00    +0.013 A 
ATOM      8  C   UNL     1       0.104  -2.873   2.435  0.00  0.00    -0.044 C 
ATOM      9  C   UNL     1      -0.203  -4.167   2.444  0.00  0.00    +0.000 C 
ATOM     10  C   UNL     1      -0.632  -4.858   1.178  0.00  0.00    +0.118 C 
ATOM     11  N   UNL     1      -0.002  -4.154   0.037  0.00  0.00    -0.311 N 
ATOM     12  C   UNL     1       0.596  -5.155  -0.850  0.00  0.00    +0.157 C 
ATOM     13  C   UNL     1       1.024  -6.294   0.119  0.00  0.00    +0.110 C 
ATOM     14  C   UNL     1      -0.156  -6.308   1.133  0.00  0.00    +0.108 C 
ATOM     15  C   UNL     1       0.259  -6.816   2.471  0.00  0.00    -0.008 A 
ATOM     16  C   UNL     1       1.204  -6.375   3.371  0.00  0.00    +0.006 A 
ATOM     17  C   UNL     1       1.337  -7.095   4.553  0.00  0.00    +0.000 A 
ATOM     18  C   UNL     1       0.554  -8.202   4.811  0.00  0.00    +0.002 A 
ATOM     19  C   UNL     1      -0.399  -8.653   3.912  0.00  0.00    +0.023 A 
ATOM     20  C   UNL     1      -0.543  -7.939   2.721  0.00  0.00    +0.038 A 
ATOM     21  N   UNL     1      -1.406  -8.160   1.662  0.00  0.00    -0.284 N 
ATOM     22  C   UNL     1      -1.249  -7.242   0.681  0.00  0.00    +0.231 C 
ATOM     23  O   UNL     1      -1.868  -7.183  -0.360  0.00  0.00    -0.274 OA
ATOM     24  C   UNL     1       0.526  -2.202   3.717  0.00  0.00    +0.044 C 
ATOM     25  H   UNL     1      -2.047  -8.886   1.627  0.00  0.00    +0.155 HD
ENDROOT
BRANCH  13  26
ATOM     26  C   UNL     1       1.123  -7.611  -0.607  0.00  0.00    +0.170 C 
ATOM     27  O   UNL     1       0.146  -8.324  -0.705  0.00  0.00    -0.292 OA
BRANCH  26  28
ATOM     28  C   UNL     1       2.403  -8.033  -1.197  0.00  0.00    +0.018 A 
ATOM     29  C   UNL     1       3.533  -7.216  -1.082  0.00  0.00    +0.011 A 
ATOM     30  C   UNL     1       4.729  -7.618  -1.637  0.00  0.00    +0.001 A 
ATOM     31  C   UNL     1       4.814  -8.826  -2.307  0.00  0.00    +0.000 A 
ATOM     32  C   UNL     1       3.701  -9.639  -2.426  0.00  0.00    +0.001 A 
ATOM     33  C   UNL     1       2.498  -9.254  -1.871  0.00  0.00    +0.011 A 
ENDBRANCH  26  28
ENDBRANCH  13  26
BRANCH  12  34
ATOM     34  C   UNL     1      -0.420  -5.655  -1.845  0.00  0.00    +0.184 C 
ATOM     35  O   UNL     1      -1.597  -5.417  -1.681  0.00  0.00    -0.290 OA
BRANCH  34  36
ATOM     36  C   UNL     1       0.018  -6.433  -3.015  0.00  0.00    +0.019 A 
ATOM     37  C   UNL     1       1.374  -6.715  -3.205  0.00  0.00    +0.011 A 
ATOM     38  C   UNL     1       1.776  -7.445  -4.303  0.00  0.00    +0.001 A 
ATOM     39  C   UNL     1       0.841  -7.897  -5.218  0.00  0.00    +0.000 A 
ATOM     40  C   UNL     1      -0.503  -7.622  -5.038  0.00  0.00    +0.001 A 
ATOM     41  C   UNL     1      -0.922  -6.899  -3.941  0.00  0.00    +0.011 A 
ENDBRANCH  34  36
ENDBRANCH  12  34
TORSDOF 4
