REMARK  Name = ZINC61889391
REMARK  6 active torsions:
REMARK  status: ('A' for Active; 'I' for Inactive)
REMARK    1  A    between atoms: C_1  and  C_2
REMARK    2  A    between atoms: C_2  and  C_3
REMARK    3  A    between atoms: C_2  and  C_4
REMARK    4  A    between atoms: C_2  and  N_5
REMARK    5  A    between atoms: N_8  and  C_9
REMARK    6  A    between atoms: C_14  and  C_16
REMARK                            x       y       z     vdW  Elec       q    Type
REMARK                         _______ _______ _______ _____ _____    ______ ____
ROOT
ATOM      1  N   UNL     1       0.688  -0.476  -1.203  0.00  0.00    -0.295 N 
ATOM      2  C   UNL     1       1.972  -0.132  -1.427  0.00  0.00    +0.300 C 
ATOM      3  O   UNL     1       2.561   0.570  -0.628  0.00  0.00    -0.253 OA
ATOM      4  N   UNL     1       2.602  -0.567  -2.536  0.00  0.00    -0.295 N 
ATOM      5  H   UNL     1       0.218  -1.037  -1.840  0.00  0.00    +0.151 HD
ATOM      6  H   UNL     1       2.132  -1.127  -3.173  0.00  0.00    +0.151 HD
ENDROOT
BRANCH   4   7
ATOM      7  C   UNL     1       3.998  -0.193  -2.779  0.00  0.00    +0.091 C 
ATOM      8  C   UNL     1       4.061   1.160  -3.517  0.00  0.00    +0.023 C 
ATOM      9  C   UNL     1       5.250   1.003  -4.497  0.00  0.00    +0.003 C 
ATOM     10  C   UNL     1       5.115  -0.467  -4.965  0.00  0.00    +0.020 C 
ATOM     11  C   UNL     1       4.668  -1.228  -3.699  0.00  0.00    +0.112 C 
BRANCH  11  12
ATOM     12  C   UNL     1       3.706  -2.283  -4.057  0.00  0.00    +0.068 C 
ATOM     13  N   UNL     1       2.963  -3.096  -4.334  0.00  0.00    -0.196 NA
ENDBRANCH  11  12
ENDBRANCH   4   7
BRANCH   1  15
ATOM     14  C   UNL     1      -0.019   1.526   0.010  0.00  0.00    +0.031 C 
ATOM     15  C   UNL     1       0.002  -0.004   0.002  0.00  0.00    +0.028 C 
ATOM     16  C   UNL     1       0.742  -0.511   1.242  0.00  0.00    +0.031 C 
ATOM     17  C   UNL     1      -1.433  -0.534   0.013  0.00  0.00    +0.031 C 
ENDBRANCH   1  15
TORSDOF 3
