REMARK  Name = ZINC40111029
REMARK  11 active torsions:
REMARK  status: ('A' for Active; 'I' for Inactive)
REMARK    1  A    between atoms: C_3  and  S_29
REMARK    2  A    between atoms: C_6  and  C_7
REMARK    3  A    between atoms: C_7  and  C_9
REMARK    4  A    between atoms: N_13  and  C_22
REMARK    5  A    between atoms: C_14  and  C_16
REMARK    6  A    between atoms: C_22  and  C_23
REMARK    7  A    between atoms: C_23  and  O_24
REMARK    8  A    between atoms: O_24  and  C_25
REMARK    9  A    between atoms: C_25  and  C_26
REMARK   10  A    between atoms: C_26  and  O_27
REMARK   11  A    between atoms: S_29  and  N_32
REMARK                            x       y       z     vdW  Elec       q    Type
REMARK                         _______ _______ _______ _____ _____    ______ ____
ROOT
ATOM      1  C   UNL     1      -1.066  -2.751  -0.663  0.00  0.00    +0.076 C 
ATOM      2  C   UNL     1      -1.946  -3.756  -0.885  0.00  0.00    +0.249 C 
ATOM      3  C   UNL     1      -1.326  -5.039  -0.491  0.00  0.00    +0.288 C 
ATOM      4  O   UNL     1      -1.863  -6.126  -0.570  0.00  0.00    -0.266 OA
ATOM      5  N   UNL     1      -0.079  -4.825  -0.033  0.00  0.00    -0.281 N 
ATOM      6  C   UNL     1       0.188  -3.384  -0.108  0.00  0.00    +0.145 C 
ATOM      7  O   UNL     1      -3.193  -3.609  -1.386  0.00  0.00    -0.282 OA
ENDROOT
BRANCH   6   8
ATOM      8  C   UNL     1       1.353  -3.117  -1.026  0.00  0.00    -0.020 A 
ATOM      9  C   UNL     1       1.510  -3.835  -2.201  0.00  0.00    +0.025 A 
ATOM     10  C   UNL     1       2.590  -3.563  -3.018  0.00  0.00    +0.111 A 
ATOM     11  N   UNL     1       3.467  -2.634  -2.690  0.00  0.00    -0.263 NA
ATOM     12  C   UNL     1       3.350  -1.931  -1.580  0.00  0.00    +0.111 A 
ATOM     13  C   UNL     1       2.292  -2.144  -0.717  0.00  0.00    +0.025 A 
ENDBRANCH   6   8
BRANCH   1  14
ATOM     14  C   UNL     1      -1.286  -1.324  -0.919  0.00  0.00    +0.195 C 
ATOM     15  O   UNL     1      -1.422  -0.925  -2.060  0.00  0.00    -0.287 OA
BRANCH  14  21
ATOM     16  C   UNL     1      -1.429   1.001  -0.034  0.00  0.00    +0.013 A 
ATOM     17  C   UNL     1      -1.481   1.885   1.024  0.00  0.00    +0.029 A 
ATOM     18  C   UNL     1      -1.449   1.414   2.325  0.00  0.00    +0.106 A 
ATOM     19  C   UNL     1      -1.364   0.056   2.574  0.00  0.00    +0.029 A 
ATOM     20  C   UNL     1      -1.311  -0.839   1.526  0.00  0.00    +0.013 A 
ATOM     21  C   UNL     1      -1.343  -0.371   0.210  0.00  0.00    +0.022 A 
BRANCH  18  22
ATOM     22  S   UNL     1      -1.516   2.550   3.670  0.00  0.00    +0.061 S 
ATOM     23  O   UNL     1      -0.921   1.897   4.783  0.00  0.00    -0.153 OA
ATOM     24  O   UNL     1      -1.042   3.795   3.175  0.00  0.00    -0.153 OA
BRANCH  22  25
ATOM     25  N   UNL     1      -3.114   2.768   4.048  0.00  0.00    -0.177 NA
ATOM     26  C   UNL     1      -3.899   3.826   3.397  0.00  0.00    +0.109 C 
ATOM     27  C   UNL     1      -5.157   3.202   2.786  0.00  0.00    +0.017 C 
ATOM     28  C   UNL     1      -5.916   2.430   3.868  0.00  0.00    +0.003 C 
ATOM     29  C   UNL     1      -5.032   1.304   4.409  0.00  0.00    +0.017 C 
ATOM     30  C   UNL     1      -3.774   1.904   5.035  0.00  0.00    +0.109 C 
ENDBRANCH  22  25
ENDBRANCH  18  22
ENDBRANCH  14  21
ENDBRANCH   1  14
BRANCH   5  31
ATOM     31  C   UNL     1       0.850  -5.850   0.450  0.00  0.00    +0.137 C 
BRANCH  31  32
ATOM     32  C   UNL     1       0.631  -6.071   1.948  0.00  0.00    +0.179 C 
BRANCH  32  33
ATOM     33  O   UNL     1      -0.670  -6.620   2.164  0.00  0.00    -0.376 OA
BRANCH  33  34
ATOM     34  C   UNL     1      -1.019  -6.765   3.542  0.00  0.00    +0.187 C 
BRANCH  34  35
ATOM     35  C   UNL     1      -2.373  -7.468   3.655  0.00  0.00    +0.184 C 
BRANCH  35  36
ATOM     36  O   UNL     1      -2.259  -8.803   3.157  0.00  0.00    -0.393 OA
ATOM     37  H   UNL     1      -3.082  -9.309   3.198  0.00  0.00    +0.209 HD
ENDBRANCH  35  36
ENDBRANCH  34  35
ENDBRANCH  33  34
ENDBRANCH  32  33
ENDBRANCH  31  32
ENDBRANCH   5  31
TORSDOF 11
