REMARK  Name = ZINC10249571
REMARK  9 active torsions:
REMARK  status: ('A' for Active; 'I' for Inactive)
REMARK    1  A    between atoms: C_1  and  C_2
REMARK    2  A    between atoms: C_2  and  N_61
REMARK    3  A    between atoms: N_12  and  C_13
REMARK    4  A    between atoms: C_13  and  C_14
REMARK    5  A    between atoms: C_14  and  C_16
REMARK    6  A    between atoms: C_14  and  C_17
REMARK    7  A    between atoms: C_17  and  S_18
REMARK    8  A    between atoms: S_18  and  C_19
REMARK    9  A    between atoms: N_32  and  C_33
REMARK                            x       y       z     vdW  Elec       q    Type
REMARK                         _______ _______ _______ _____ _____    ______ ____
ROOT
ATOM      1  C   UNL     1       0.768   1.467  -0.229  0.00  0.00    -0.060 C 
ATOM      2  C   UNL     1       0.074   1.939  -1.509  0.00  0.00    +0.089 C 
ATOM      3  N   UNL     1      -0.823   3.059  -1.193  0.00  0.00    -0.304 N 
ATOM      4  C   UNL     1      -1.837   2.657  -0.209  0.00  0.00    +0.089 C 
ATOM      5  C   UNL     1      -1.143   2.185   1.071  0.00  0.00    -0.060 C 
ATOM      6  C   UNL     1      -1.412   3.557  -2.333  0.00  0.00    +0.201 A 
ATOM      7  N   UNL     1      -1.789   2.838  -3.370  0.00  0.00    -0.196 NA
ATOM      8  C   UNL     1      -2.326   3.628  -4.301  0.00  0.00    +0.170 A 
ATOM      9  C   UNL     1      -2.276   4.933  -3.823  0.00  0.00    +0.153 A 
ATOM     10  N   UNL     1      -1.690   4.867  -2.566  0.00  0.00    -0.306 N 
ATOM     11  C   UNL     1      -2.778   5.976  -4.620  0.00  0.00    +0.280 A 
ATOM     12  O   UNL     1      -2.745   7.128  -4.221  0.00  0.00    -0.265 OA
ATOM     13  N   UNL     1      -3.298   5.690  -5.832  0.00  0.00    -0.273 N 
ATOM     14  H   UNL     1      -3.656   6.430  -6.402  0.00  0.00    +0.173 HD
ATOM     15  C   UNL     1      -3.341   4.425  -6.285  0.00  0.00    +0.331 A 
ATOM     16  O   UNL     1      -3.816   4.204  -7.383  0.00  0.00    -0.246 OA
ATOM     17  N   UNL     1      -2.871   3.397  -5.554  0.00  0.00    -0.280 N 
ATOM     18  C   UNL     1      -2.937   2.032  -6.083  0.00  0.00    +0.155 C 
ATOM     19  N   UNL     1      -0.261   1.045   0.743  0.00  0.00    +0.382 N 
ATOM     20  H   UNL     1      -0.826   0.295   0.327  0.00  0.00    -0.082 HD
ENDROOT
BRANCH  19  22
ATOM     21  C   UNL     1      -0.677   0.361   3.061  0.00  0.00    -0.017 C 
ATOM     22  C   UNL     1       0.384   0.534   1.972  0.00  0.00    -0.082 C 
ENDBRANCH  19  22
BRANCH  10  23
ATOM     23  C   UNL     1      -1.422   5.991  -1.665  0.00  0.00    +0.129 C 
BRANCH  23  24
ATOM     24  C   UNL     1      -0.086   6.637  -2.040  0.00  0.00    +0.016 C 
ATOM     25  C   UNL     1       1.049   5.641  -1.793  0.00  0.00    +0.010 C 
BRANCH  24  26
ATOM     26  C   UNL     1       0.134   7.885  -1.182  0.00  0.00    +0.079 C 
BRANCH  26  27
ATOM     27  S   UNL     1       1.643   8.733  -1.726  0.00  0.00    -0.125 S 
BRANCH  27  28
ATOM     28  C   UNL     1       1.756  10.129  -0.656  0.00  0.00    +0.008 A 
ATOM     29  C   UNL     1       0.786  10.341   0.316  0.00  0.00    +0.016 A 
ATOM     30  C   UNL     1       0.880  11.433   1.156  0.00  0.00    +0.021 A 
ATOM     31  C   UNL     1       1.934  12.321   1.023  0.00  0.00    +0.041 A 
ATOM     32  C   UNL     1       2.898  12.115   0.052  0.00  0.00    +0.021 A 
ATOM     33  C   UNL     1       2.812  11.022  -0.787  0.00  0.00    +0.016 A 
ATOM     34 CL   UNL     1       2.046  13.696   2.077  0.00  0.00    -0.084 Cl
ENDBRANCH  27  28
ENDBRANCH  26  27
ENDBRANCH  24  26
ENDBRANCH  23  24
ENDBRANCH  10  23
TORSDOF 6
