REMARK  Name = ZINC64407844
REMARK  6 active torsions:
REMARK  status: ('A' for Active; 'I' for Inactive)
REMARK    1  A    between atoms: C_1  and  C_2
REMARK    2  A    between atoms: C_2  and  C_3
REMARK    3  A    between atoms: C_2  and  C_4
REMARK    4  A    between atoms: C_12  and  N_21
REMARK    5  A    between atoms: C_14  and  C_16
REMARK    6  A    between atoms: C_22  and  C_24
REMARK                            x       y       z     vdW  Elec       q    Type
REMARK                         _______ _______ _______ _____ _____    ______ ____
ROOT
ATOM      1  C   UNL     1       0.731  -0.503   1.223  0.00  0.00    +0.034 C 
ATOM      2  N   UNL     1       1.309   0.320   2.046  0.00  0.00    -0.221 NA
ATOM      3  C   UNL     1       1.966  -0.099   3.143  0.00  0.00    +0.245 C 
ATOM      4  N   UNL     1       2.102  -1.355   3.509  0.00  0.00    -0.143 NA
ATOM      5  C   UNL     1       1.579  -2.357   2.795  0.00  0.00    +0.245 C 
ATOM      6  O   UNL     1       1.708  -3.516   3.139  0.00  0.00    -0.273 OA
ATOM      7  C   UNL     1       0.811  -1.985   1.540  0.00  0.00    +0.149 C 
ATOM      8  N   UNL     1       2.542   0.862   3.945  0.00  0.00    -0.185 N 
ATOM      9  C   UNL     1       3.251   0.633   5.092  0.00  0.00    +0.132 A 
ATOM     10  C   UNL     1       3.645   1.837   5.579  0.00  0.00    +0.074 A 
ATOM     11  C   UNL     1       3.163   2.835   4.705  0.00  0.00    +0.102 A 
ATOM     12  N   UNL     1       2.509   2.245   3.726  0.00  0.00    -0.162 NA
ENDROOT
BRANCH  11  13
ATOM     13  C   UNL     1       3.364   4.291   4.859  0.00  0.00    +0.039 A 
ATOM     14  C   UNL     1       2.924   5.312   4.059  0.00  0.00    +0.018 A 
ATOM     15  C   UNL     1       3.237   6.608   4.406  0.00  0.00    +0.008 A 
ATOM     16  C   UNL     1       3.971   6.833   5.527  0.00  0.00    +0.046 A 
ATOM     17  S   UNL     1       4.237   5.178   6.140  0.00  0.00    -0.095 S 
ENDBRANCH  11  13
BRANCH   9  18
ATOM     18  N   UNL     1       3.520  -0.609   5.658  0.00  0.00    -0.266 N 
ATOM     19  C   UNL     1       4.235  -0.690   6.797  0.00  0.00    +0.249 C 
ATOM     20  O   UNL     1       4.646   0.322   7.331  0.00  0.00    -0.270 OA
ATOM     21  H   UNL     1       3.192  -1.417   5.232  0.00  0.00    +0.157 HD
BRANCH  19  22
ATOM     22  C   UNL     1       4.520  -2.009   7.397  0.00  0.00    +0.040 A 
ATOM     23  C   UNL     1       4.055  -3.174   6.783  0.00  0.00    +0.016 A 
ATOM     24  C   UNL     1       4.323  -4.403   7.347  0.00  0.00    +0.042 A 
ATOM     25  C   UNL     1       5.054  -4.485   8.522  0.00  0.00    +0.158 A 
ATOM     26  C   UNL     1       5.519  -3.332   9.138  0.00  0.00    +0.159 A 
ATOM     27  C   UNL     1       5.261  -2.096   8.578  0.00  0.00    +0.054 A 
ATOM     28  F   UNL     1       6.230  -3.418  10.283  0.00  0.00    -0.202 F 
ATOM     29  F   UNL     1       5.314  -5.693   9.070  0.00  0.00    -0.202 F 
ENDBRANCH  19  22
ENDBRANCH   9  18
BRANCH   1  31
ATOM     30  C   UNL     1      -0.019   1.526   0.010  0.00  0.00    +0.013 C 
ATOM     31  C   UNL     1       0.002  -0.004   0.002  0.00  0.00    +0.028 C 
ATOM     32  C   UNL     1       0.718  -0.497  -1.257  0.00  0.00    +0.013 C 
ENDBRANCH   1  31
TORSDOF 4
