REMARK  Name = ZINC33032005
REMARK  4 active torsions:
REMARK  status: ('A' for Active; 'I' for Inactive)
REMARK    1  A    between atoms: C_13  and  C_15
REMARK    2  A    between atoms: C_15  and  C_16
REMARK    3  A    between atoms: C_16  and  C_17
REMARK    4  A    between atoms: C_17  and  N_18
REMARK                            x       y       z     vdW  Elec       q    Type
REMARK                         _______ _______ _______ _____ _____    ______ ____
ROOT
ATOM      1  C   UNL     1      -5.616   5.224  -3.353  0.00  0.00    +0.031 C 
ENDROOT
BRANCH   1   2
ATOM      2  C   UNL     1      -4.959   4.051  -2.623  0.00  0.00    +0.098 C 
BRANCH   2  15
ATOM      3  C   UNL     1       1.220  -0.660  -0.013  0.00  0.00    +0.005 A 
ATOM      4  C   UNL     1       2.382   0.100  -0.020  0.00  0.00    +0.018 A 
ATOM      5  C   UNL     1       2.289   1.477  -0.012  0.00  0.00    +0.084 A 
ATOM      6  N   UNL     1       1.114   2.076   0.003  0.00  0.00    -0.350 N 
ATOM      7  C   UNL     1      -0.017   1.387   0.010  0.00  0.00    +0.099 A 
ATOM      8  C   UNL     1       0.002  -0.004   0.002  0.00  0.00    +0.042 A 
ATOM      9  N   UNL     1      -1.233   2.059   0.019  0.00  0.00    -0.314 N 
ATOM     10  C   UNL     1      -2.073   1.644  -1.112  0.00  0.00    +0.125 C 
ATOM     11  C   UNL     1      -3.466   2.267  -0.966  0.00  0.00    +0.126 C 
ATOM     12  N   UNL     1      -3.313   3.721  -0.806  0.00  0.00    -0.298 N 
ATOM     13  C   UNL     1      -2.381   4.214   0.219  0.00  0.00    +0.126 C 
ATOM     14  C   UNL     1      -1.031   3.514   0.026  0.00  0.00    +0.125 C 
ATOM     15  C   UNL     1      -4.009   4.579  -1.578  0.00  0.00    +0.216 C 
ATOM     16  O   UNL     1      -3.871   5.775  -1.433  0.00  0.00    -0.276 OA
ATOM     17  H   UNL     1       1.056   3.175   0.009  0.00  0.00    +0.166 HD
ENDBRANCH   2  15
ENDBRANCH   1   2
BRANCH   1  18
ATOM     18  C   UNL     1      -6.580   4.689  -4.413  0.00  0.00    +0.126 C 
BRANCH  18  19
ATOM     19  N   UNL     1      -7.209   5.812  -5.113  0.00  0.00    -0.305 N 
ATOM     20  C   UNL     1      -8.406   6.344  -4.633  0.00  0.00    +0.070 A 
ATOM     21  C   UNL     1      -8.987   5.809  -3.489  0.00  0.00    +0.043 A 
ATOM     22  C   UNL     1     -10.169   6.334  -3.004  0.00  0.00    +0.020 A 
ATOM     23  C   UNL     1     -10.778   7.396  -3.652  0.00  0.00    +0.017 A 
ATOM     24  C   UNL     1     -10.207   7.936  -4.786  0.00  0.00    +0.029 A 
ATOM     25  C   UNL     1      -9.018   7.416  -5.281  0.00  0.00    +0.070 A 
ATOM     26  N   UNL     1      -8.442   7.967  -6.431  0.00  0.00    -0.310 N 
ATOM     27  C   UNL     1      -8.822   8.987  -7.241  0.00  0.00    +0.092 A 
ATOM     28  C   UNL     1      -7.907   9.126  -8.232  0.00  0.00    +0.020 A 
ATOM     29  C   UNL     1      -6.916   8.159  -8.041  0.00  0.00    +0.033 A 
ATOM     30  C   UNL     1      -7.261   7.443  -6.915  0.00  0.00    +0.112 A 
ATOM     31  C   UNL     1      -6.630   6.321  -6.218  0.00  0.00    +0.276 A 
ATOM     32  O   UNL     1      -5.587   5.850  -6.635  0.00  0.00    -0.265 OA
ATOM     33 BR   UNL     1     -10.959   5.598  -1.451  0.00  0.00    -0.050 Br
ENDBRANCH  18  19
ENDBRANCH   1  18
TORSDOF 4
