REMARK  Name = ZINC62628377
REMARK  10 active torsions:
REMARK  status: ('A' for Active; 'I' for Inactive)
REMARK    1  A    between atoms: C_1  and  C_2
REMARK    2  A    between atoms: C_2  and  O_3
REMARK    3  A    between atoms: O_3  and  C_4
REMARK    4  A    between atoms: C_7  and  C_25
REMARK    5  A    between atoms: C_9  and  C_10
REMARK    6  A    between atoms: N_12  and  C_13
REMARK    7  A    between atoms: C_13  and  C_14
REMARK    8  A    between atoms: N_18  and  C_20
REMARK    9  A    between atoms: C_20  and  C_21
REMARK   10  A    between atoms: C_25  and  N_26
REMARK                            x       y       z     vdW  Elec       q    Type
REMARK                         _______ _______ _______ _____ _____    ______ ____
ROOT
ATOM      1  C   UNL     1       0.777  -1.808  -1.336  0.00  0.00    +0.133 A 
ATOM      2  C   UNL     1       0.243  -2.668  -0.388  0.00  0.00    +0.047 A 
ATOM      3  C   UNL     1       0.352  -4.034  -0.554  0.00  0.00    +0.009 A 
ATOM      4  C   UNL     1       0.993  -4.556  -1.666  0.00  0.00    -0.029 A 
ATOM      5  C   UNL     1       1.528  -3.716  -2.618  0.00  0.00    +0.022 A 
ATOM      6  C   UNL     1       1.420  -2.332  -2.465  0.00  0.00    +0.079 A 
ENDROOT
BRANCH   6   7
ATOM      7  C   UNL     1       1.986  -1.427  -3.484  0.00  0.00    +0.248 C 
ATOM      8  O   UNL     1       1.894  -0.222  -3.345  0.00  0.00    -0.270 OA
ATOM      9  N   UNL     1       2.603  -1.935  -4.568  0.00  0.00    -0.311 N 
ATOM     10  H   UNL     1       2.676  -2.896  -4.679  0.00  0.00    +0.149 HD
BRANCH   9  11
ATOM     11  C   UNL     1       3.165  -1.036  -5.580  0.00  0.00    +0.106 C 
BRANCH  11  12
ATOM     12  C   UNL     1       3.805  -1.862  -6.697  0.00  0.00    -0.012 C 
ATOM     13  C   UNL     1       5.088  -2.576  -6.196  0.00  0.00    -0.016 C 
ATOM     14  C   UNL     1       5.915  -2.751  -7.487  0.00  0.00    -0.078 C 
ATOM     15  N   UNL     1       5.436  -1.746  -8.453  0.00  0.00    +0.386 N 
ATOM     16  C   UNL     1       4.371  -0.946  -7.811  0.00  0.00    -0.074 C 
ATOM     17  H   UNL     1       5.067  -2.209  -9.270  0.00  0.00    -0.081 HD
BRANCH  15  18
ATOM     18  C   UNL     1       6.547  -0.867  -8.844  0.00  0.00    +0.036 C 
BRANCH  18  19
ATOM     19  C   UNL     1       7.582  -1.674  -9.630  0.00  0.00    +0.376 C 
ATOM     20  F   UNL     1       6.985  -2.209 -10.776  0.00  0.00    -0.173 F 
ATOM     21  F   UNL     1       8.640  -0.837 -10.002  0.00  0.00    -0.173 F 
ATOM     22  F   UNL     1       8.069  -2.713  -8.830  0.00  0.00    -0.173 F 
ENDBRANCH  18  19
ENDBRANCH  15  18
ENDBRANCH  11  12
ENDBRANCH   9  11
ENDBRANCH   6   7
BRANCH   1  23
ATOM     23  O   UNL     1       0.671  -0.465  -1.174  0.00  0.00    -0.491 OA
BRANCH  23  25
ATOM     24  C   UNL     1      -0.019   1.526   0.010  0.00  0.00    +0.048 C 
ATOM     25  C   UNL     1       0.002  -0.004   0.002  0.00  0.00    +0.226 C 
ENDBRANCH  23  25
ENDBRANCH   1  23
BRANCH   4  26
ATOM     26  C   UNL     1       1.105  -6.050  -1.834  0.00  0.00    +0.152 C 
BRANCH  26  27
ATOM     27  N   UNL     1      -0.058  -6.546  -2.574  0.00  0.00    -0.230 N 
ATOM     28  C   UNL     1      -1.208  -6.948  -2.003  0.00  0.00    +0.254 C 
ATOM     29  O   UNL     1      -1.443  -6.957  -0.812  0.00  0.00    -0.270 OA
ATOM     30  C   UNL     1      -2.138  -7.377  -3.069  0.00  0.00    +0.049 A 
ATOM     31  C   UNL     1      -3.431  -7.874  -3.083  0.00  0.00    +0.014 A 
ATOM     32  C   UNL     1      -4.034  -8.187  -4.291  0.00  0.00    +0.001 A 
ATOM     33  C   UNL     1      -3.354  -8.008  -5.481  0.00  0.00    +0.001 A 
ATOM     34  C   UNL     1      -2.060  -7.513  -5.482  0.00  0.00    +0.014 A 
ATOM     35  C   UNL     1      -1.444  -7.194  -4.282  0.00  0.00    +0.049 A 
ATOM     36  C   UNL     1      -0.118  -6.656  -3.913  0.00  0.00    +0.254 C 
ATOM     37  O   UNL     1       0.769  -6.363  -4.689  0.00  0.00    -0.270 OA
ENDBRANCH  26  27
ENDBRANCH   4  26
TORSDOF 9
