REMARK  Name = ZINC08441898
REMARK  16 active torsions:
REMARK  status: ('A' for Active; 'I' for Inactive)
REMARK    1  A    between atoms: C_1  and  C_2
REMARK    2  A    between atoms: C_2  and  C_3
REMARK    3  A    between atoms: C_3  and  O_4
REMARK    4  A    between atoms: O_4  and  C_5
REMARK    5  A    between atoms: C_8  and  C_14
REMARK    6  A    between atoms: C_10  and  O_11
REMARK    7  A    between atoms: O_11  and  C_12
REMARK    8  A    between atoms: C_12  and  C_13
REMARK    9  A    between atoms: C_23  and  C_31
REMARK   10  A    between atoms: C_25  and  C_26
REMARK   11  A    between atoms: C_25  and  C_28
REMARK   12  A    between atoms: C_33  and  O_35
REMARK   13  A    between atoms: O_35  and  C_36
REMARK   14  A    between atoms: C_36  and  C_37
REMARK   15  A    between atoms: C_36  and  C_38
REMARK   16  A    between atoms: C_36  and  C_39
REMARK                            x       y       z     vdW  Elec       q    Type
REMARK                         _______ _______ _______ _____ _____    ______ ____
ROOT
ATOM      1  C   UNL     1       1.052   3.247   1.086  0.00  0.00    +0.067 C 
ATOM      2  C   UNL     1       1.361   1.923   0.385  0.00  0.00    +0.044 C 
ATOM      3  C   UNL     1       2.585   1.250   0.964  0.00  0.00    +0.120 C 
ATOM      4  N   UNL     1       2.214   0.118   1.819  0.00  0.00    -0.263 N 
ATOM      5  C   UNL     1       1.323  -0.902   1.237  0.00  0.00    +0.138 C 
ATOM      6  C   UNL     1       0.085  -0.189   0.756  0.00  0.00    -0.007 C 
ATOM      7  C   UNL     1       0.120   1.080   0.399  0.00  0.00    -0.045 C 
ATOM      8  C   UNL     1      -1.152   1.757   0.030  0.00  0.00    +0.164 C 
ATOM      9  C   UNL     1      -1.199   3.112  -0.005  0.00  0.00    +0.065 C 
ATOM     10  C   UNL     1      -0.020   3.990   0.289  0.00  0.00    +0.188 C 
ATOM     11  N   UNL     1      -2.385   3.710  -0.325  0.00  0.00    -0.304 NA
ATOM     12  C   UNL     1       2.669   0.014   3.083  0.00  0.00    +0.404 C 
ATOM     13  O   UNL     1       3.402   0.869   3.538  0.00  0.00    -0.226 OA
ATOM     14  H   UNL     1      -2.448   4.678  -0.357  0.00  0.00    +0.186 HD
ENDROOT
BRANCH   1  18
ATOM     15  C   UNL     1       4.600   5.626   1.285  0.00  0.00    +0.162 A 
ATOM     16  C   UNL     1       3.777   5.510   2.394  0.00  0.00    +0.050 A 
ATOM     17  C   UNL     1       2.631   4.740   2.326  0.00  0.00    +0.008 A 
ATOM     18  C   UNL     1       2.303   4.085   1.154  0.00  0.00    -0.037 A 
ATOM     19  C   UNL     1       3.122   4.192   0.046  0.00  0.00    +0.053 A 
ATOM     20  C   UNL     1       4.270   4.966   0.105  0.00  0.00    +0.162 A 
BRANCH  15  21
ATOM     21  O   UNL     1       5.728   6.384   1.350  0.00  0.00    -0.488 OA
BRANCH  21  22
ATOM     22  C   UNL     1       6.003   7.032   2.593  0.00  0.00    +0.229 C 
BRANCH  22  24
ATOM     23  C   UNL     1       7.597   8.527   3.805  0.00  0.00    +0.007 C 
ATOM     24  C   UNL     1       7.302   7.832   2.474  0.00  0.00    +0.038 C 
ENDBRANCH  22  24
ENDBRANCH  21  22
ENDBRANCH  15  21
BRANCH  20  25
ATOM     25  O   UNL     1       5.075   5.077  -0.986  0.00  0.00    -0.489 OA
BRANCH  25  26
ATOM     26  C   UNL     1       4.673   4.372  -2.162  0.00  0.00    +0.226 C 
ATOM     27  C   UNL     1       5.694   4.615  -3.275  0.00  0.00    +0.048 C 
ENDBRANCH  25  26
ENDBRANCH  20  25
ENDBRANCH   1  18
BRANCH  10  28
ATOM     28  C   UNL     1      -0.471   5.158   1.063  0.00  0.00    +0.091 C 
ATOM     29  N   UNL     1      -0.820   6.059   1.661  0.00  0.00    -0.195 NA
ENDBRANCH  10  28
BRANCH  10  30
ATOM     30  C   UNL     1       0.561   4.453  -0.983  0.00  0.00    +0.091 C 
ATOM     31  N   UNL     1       1.009   4.810  -1.963  0.00  0.00    -0.195 NA
ENDBRANCH  10  30
BRANCH   8  32
ATOM     32  C   UNL     1      -2.317   0.986  -0.285  0.00  0.00    +0.076 C 
ATOM     33  N   UNL     1      -3.241   0.374  -0.535  0.00  0.00    -0.196 NA
ENDBRANCH   8  32
BRANCH  12  34
ATOM     34  O   UNL     1       2.310  -1.038   3.843  0.00  0.00    -0.445 OA
BRANCH  34  35
ATOM     35  C   UNL     1       2.838  -1.085   5.195  0.00  0.00    +0.107 C 
ATOM     36  C   UNL     1       2.377   0.154   5.966  0.00  0.00    +0.055 C 
ATOM     37  C   UNL     1       2.325  -2.343   5.899  0.00  0.00    +0.055 C 
ATOM     38  C   UNL     1       4.367  -1.116   5.146  0.00  0.00    +0.055 C 
ENDBRANCH  34  35
ENDBRANCH  12  34
TORSDOF 11
