REMARK  Name = ZINC12496869
REMARK  10 active torsions:
REMARK  status: ('A' for Active; 'I' for Inactive)
REMARK    1  A    between atoms: C_1  and  C_2
REMARK    2  A    between atoms: C_7  and  C_8
REMARK    3  A    between atoms: N_16  and  C_19
REMARK    4  A    between atoms: C_26  and  C_27
REMARK    5  A    between atoms: C_26  and  C_31
REMARK    6  A    between atoms: C_27  and  C_28
REMARK    7  A    between atoms: C_28  and  S_29
REMARK    8  A    between atoms: S_29  and  C_30
REMARK    9  A    between atoms: C_31  and  O_33
REMARK   10  A    between atoms: O_33  and  C_34
REMARK                            x       y       z     vdW  Elec       q    Type
REMARK                         _______ _______ _______ _____ _____    ______ ____
ROOT
ATOM      1  C   UNL     1      -5.901  -1.173   3.307  0.00  0.00    -0.026 C 
ATOM      2  C   UNL     1      -6.758   0.074   3.513  0.00  0.00    +0.077 C 
ATOM      3  C   UNL     1      -5.577   1.119   3.647  0.00  0.00    +0.086 C 
ATOM      4  C   UNL     1      -6.271   2.248   4.223  0.00  0.00    +0.229 C 
ATOM      5  O   UNL     1      -6.076   3.425   4.008  0.00  0.00    -0.275 OA
ATOM      6  N   UNL     1      -7.200   1.693   5.067  0.00  0.00    -0.210 N 
ATOM      7  C   UNL     1      -7.363   0.351   4.862  0.00  0.00    +0.229 C 
ATOM      8  O   UNL     1      -7.886  -0.447   5.609  0.00  0.00    -0.275 OA
ATOM      9  C   UNL     1      -4.766   0.791   2.458  0.00  0.00    +0.044 C 
ATOM     10  N   UNL     1      -4.728  -0.703   2.521  0.00  0.00    +0.395 N 
ATOM     11  H   UNL     1      -4.771  -1.091   1.571  0.00  0.00    -0.083 HD
ATOM     12  H   UNL     1      -3.861  -1.009   2.977  0.00  0.00    -0.083 HD
ENDROOT
BRANCH   1  19
ATOM     13  C   UNL     1      -7.629  -2.966   4.771  0.00  0.00    +0.044 C 
ATOM     14  C   UNL     1      -6.285  -2.586   5.336  0.00  0.00    -0.049 A 
ATOM     15  C   UNL     1      -5.879  -3.095   6.556  0.00  0.00    +0.003 A 
ATOM     16  C   UNL     1      -4.646  -2.747   7.074  0.00  0.00    +0.000 A 
ATOM     17  C   UNL     1      -3.818  -1.889   6.373  0.00  0.00    +0.000 A 
ATOM     18  C   UNL     1      -4.223  -1.383   5.152  0.00  0.00    +0.002 A 
ATOM     19  C   UNL     1      -5.458  -1.728   4.636  0.00  0.00    -0.058 A 
ENDBRANCH   1  19
BRANCH   6  20
ATOM     20  C   UNL     1      -7.906   2.422   6.035  0.00  0.00    +0.044 A 
ATOM     21  C   UNL     1      -7.676   3.783   6.184  0.00  0.00    +0.027 A 
ATOM     22  C   UNL     1      -8.376   4.501   7.134  0.00  0.00    +0.040 A 
ATOM     23  C   UNL     1      -9.298   3.862   7.946  0.00  0.00    +0.124 A 
ATOM     24  C   UNL     1      -9.524   2.503   7.803  0.00  0.00    +0.040 A 
ATOM     25  C   UNL     1      -8.830   1.783   6.850  0.00  0.00    +0.027 A 
ATOM     26  F   UNL     1      -9.977   4.565   8.878  0.00  0.00    -0.205 F 
ENDBRANCH   6  20
BRANCH   9  27
ATOM     27  C   UNL     1      -5.444   1.262   1.198  0.00  0.00    +0.297 C 
ATOM     28  O   UNL     1      -6.189   2.212   1.231  0.00  0.00    -0.252 OA
BRANCH  27  29
ATOM     29  O   UNL     1      -5.221   0.625   0.037  0.00  0.00    -0.469 OA
ATOM     30  C   UNL     1      -5.908   1.132  -1.137  0.00  0.00    +0.280 C 
ENDBRANCH  27  29
ENDBRANCH   9  27
BRANCH   9  31
ATOM     31  C   UNL     1      -3.361   1.387   2.575  0.00  0.00    +0.010 C 
BRANCH  31  32
ATOM     32  C   UNL     1      -2.527   0.966   1.363  0.00  0.00    +0.068 C 
BRANCH  32  33
ATOM     33  S   UNL     1      -0.862   1.671   1.500  0.00  0.00    -0.164 S 
ATOM     34  C   UNL     1      -0.013   1.086   0.008  0.00  0.00    +0.084 C 
ENDBRANCH  32  33
ENDBRANCH  31  32
ENDBRANCH   9  31
TORSDOF 7
