REMARK  Name = ZINC60221072
REMARK  9 active torsions:
REMARK  status: ('A' for Active; 'I' for Inactive)
REMARK    1  A    between atoms: C_1  and  C_2
REMARK    2  A    between atoms: C_7  and  C_9
REMARK    3  A    between atoms: C_7  and  C_10
REMARK    4  A    between atoms: N_13  and  C_17
REMARK    5  A    between atoms: C_17  and  C_18
REMARK    6  A    between atoms: N_20  and  C_21
REMARK    7  A    between atoms: C_24  and  C_27
REMARK    8  A    between atoms: C_27  and  C_28
REMARK    9  A    between atoms: C_28  and  N_29
REMARK                            x       y       z     vdW  Elec       q    Type
REMARK                         _______ _______ _______ _____ _____    ______ ____
ROOT
ATOM      1  C   UNL     1      -4.265  -3.979  -3.633  0.00  0.00    +0.235 C 
ATOM      2  O   UNL     1      -3.844  -2.895  -3.978  0.00  0.00    -0.274 OA
ATOM      3  N   UNL     1      -5.336  -4.514  -4.251  0.00  0.00    -0.284 N 
ATOM      4  H   UNL     1      -5.717  -5.345  -3.928  0.00  0.00    +0.155 HD
ENDROOT
BRANCH   3   5
ATOM      5  C   UNL     1      -5.898  -3.870  -5.359  0.00  0.00    +0.033 A 
ATOM      6  C   UNL     1      -7.271  -3.913  -5.566  0.00  0.00    +0.023 A 
ATOM      7  C   UNL     1      -7.822  -3.276  -6.661  0.00  0.00    +0.005 A 
ATOM      8  C   UNL     1      -7.010  -2.597  -7.550  0.00  0.00    -0.049 A 
ATOM      9  C   UNL     1      -5.643  -2.553  -7.347  0.00  0.00    +0.005 A 
ATOM     10  C   UNL     1      -5.085  -3.182  -6.251  0.00  0.00    +0.023 A 
BRANCH   8  11
ATOM     11  C   UNL     1      -7.615  -1.904  -8.743  0.00  0.00    +0.016 C 
BRANCH  11  12
ATOM     12  C   UNL     1      -7.975  -0.465  -8.369  0.00  0.00    -0.074 C 
BRANCH  12  13
ATOM     13  N   UNL     1      -8.448   0.248  -9.563  0.00  0.00    +0.381 N 
ATOM     14  C   UNL     1      -8.614   1.667  -9.240  0.00  0.00    -0.068 C 
ATOM     15  C   UNL     1      -8.740   2.483 -10.532  0.00  0.00    +0.050 C 
ATOM     16  S   UNL     1     -10.231   1.927 -11.415  0.00  0.00    -0.164 S 
ATOM     17  C   UNL     1     -10.031   0.118 -11.433  0.00  0.00    +0.050 C 
ATOM     18  C   UNL     1      -9.711  -0.345 -10.007  0.00  0.00    -0.068 C 
ATOM     19  H   UNL     1      -7.763   0.155 -10.297  0.00  0.00    -0.082 HD
ENDBRANCH  12  13
ENDBRANCH  11  12
ENDBRANCH   8  11
ENDBRANCH   3   5
BRANCH   1  20
ATOM     20  C   UNL     1      -3.589  -4.728  -2.513  0.00  0.00    +0.214 C 
BRANCH  20  32
ATOM     21  C   UNL     1       0.303   1.055  -1.226  0.00  0.00    +0.007 C 
ATOM     22  C   UNL     1       0.292  -0.454  -0.972  0.00  0.00    -0.011 C 
ATOM     23  C   UNL     1      -1.137  -0.985  -1.116  0.00  0.00    +0.038 C 
ATOM     24  C   UNL     1      -1.153  -2.485  -0.843  0.00  0.00    +0.113 C 
ATOM     25  C   UNL     1      -0.629  -2.784   0.558  0.00  0.00    +0.041 C 
ATOM     26  C   UNL     1       0.798  -2.246   0.696  0.00  0.00    -0.032 C 
ATOM     27  C   UNL     1       0.800  -0.737   0.443  0.00  0.00    +0.009 C 
ATOM     28  C   UNL     1       1.704  -2.936  -0.327  0.00  0.00    +0.011 C 
ATOM     29  C   UNL     1       1.315  -2.528   2.108  0.00  0.00    +0.011 C 
ATOM     30  C   UNL     1      -2.549  -3.038  -1.013  0.00  0.00    +0.247 C 
ATOM     31  O   UNL     1      -3.541  -2.733  -0.385  0.00  0.00    -0.273 OA
ATOM     32  N   UNL     1      -2.460  -3.941  -2.011  0.00  0.00    -0.215 N 
ATOM     33  C   UNL     1      -1.211  -4.030  -2.485  0.00  0.00    +0.310 C 
ATOM     34  O   UNL     1      -0.882  -4.775  -3.387  0.00  0.00    -0.252 OA
ATOM     35  N   UNL     1      -0.361  -3.200  -1.851  0.00  0.00    -0.285 N 
ATOM     36  H   UNL     1       0.587  -3.095  -2.026  0.00  0.00    +0.151 HD
ENDBRANCH  20  32
ENDBRANCH   1  20
TORSDOF 6
