REMARK  Name = ZINC33960470
REMARK  8 active torsions:
REMARK  status: ('A' for Active; 'I' for Inactive)
REMARK    1  A    between atoms: C_1  and  C_2
REMARK    2  A    between atoms: C_5  and  C_22
REMARK    3  A    between atoms: C_6  and  C_7
REMARK    4  A    between atoms: C_6  and  C_8
REMARK    5  A    between atoms: N_11  and  O_12
REMARK    6  A    between atoms: O_12  and  C_13
REMARK    7  A    between atoms: C_13  and  C_15
REMARK    8  A    between atoms: N_24  and  C_25
REMARK                            x       y       z     vdW  Elec       q    Type
REMARK                         _______ _______ _______ _____ _____    ______ ____
ROOT
ATOM      1  C   UNL     1      -0.057   1.525   0.035  0.00  0.00    +0.018 C 
ATOM      2  C   UNL     1      -0.028  -0.004   0.021  0.00  0.00    +0.015 C 
ATOM      3  C   UNL     1       0.714  -0.660  -1.184  0.00  0.00    +0.014 C 
ATOM      4  C   UNL     1       1.042  -2.093  -0.706  0.00  0.00    +0.018 C 
ATOM      5  C   UNL     1       0.459  -2.165   0.739  0.00  0.00    +0.058 C 
ATOM      6  C   UNL     1       0.707  -0.693   1.225  0.00  0.00    -0.010 C 
ATOM      7  C   UNL     1       2.196  -0.344   1.266  0.00  0.00    +0.013 C 
ATOM      8  C   UNL     1       0.018  -0.404   2.560  0.00  0.00    +0.013 C 
ATOM      9  C   UNL     1      -1.087  -2.132   0.532  0.00  0.00    +0.071 C 
ATOM     10  C   UNL     1      -1.395  -0.700   0.081  0.00  0.00    +0.066 C 
ATOM     11  N   UNL     1      -2.536  -0.195  -0.203  0.00  0.00    -0.083 NA
ENDROOT
BRANCH   5  12
ATOM     12  C   UNL     1       1.002  -3.262   1.619  0.00  0.00    +0.224 C 
ATOM     13  O   UNL     1       1.580  -2.983   2.648  0.00  0.00    -0.275 OA
ATOM     14  N   UNL     1       0.845  -4.552   1.262  0.00  0.00    -0.284 N 
ATOM     15  H   UNL     1       0.326  -4.777   0.474  0.00  0.00    +0.155 HD
BRANCH  14  16
ATOM     16  C   UNL     1       1.429  -5.566   2.029  0.00  0.00    +0.053 A 
ATOM     17  C   UNL     1       1.525  -5.429   3.408  0.00  0.00    +0.025 A 
ATOM     18  C   UNL     1       2.102  -6.431   4.162  0.00  0.00    +0.003 A 
ATOM     19  C   UNL     1       2.585  -7.572   3.548  0.00  0.00    +0.021 A 
ATOM     20  C   UNL     1       2.491  -7.714   2.174  0.00  0.00    +0.061 A 
ATOM     21  C   UNL     1       1.909  -6.715   1.413  0.00  0.00    +0.080 A 
ATOM     22 CL   UNL     1       1.785  -6.896  -0.309  0.00  0.00    -0.080 Cl
ATOM     23 CL   UNL     1       3.099  -9.147   1.407  0.00  0.00    -0.082 Cl
ENDBRANCH  14  16
ENDBRANCH   5  12
BRANCH  11  24
ATOM     24  O   UNL     1      -3.707  -0.984  -0.092  0.00  0.00    -0.312 OA
BRANCH  24  25
ATOM     25  C   UNL     1      -4.839  -0.332  -0.420  0.00  0.00    +0.366 C 
ATOM     26  O   UNL     1      -4.791   0.830  -0.773  0.00  0.00    -0.243 OA
BRANCH  25  27
ATOM     27  C   UNL     1      -6.139  -1.030  -0.352  0.00  0.00    +0.061 A 
ATOM     28  C   UNL     1      -6.198  -2.364   0.058  0.00  0.00    +0.016 A 
ATOM     29  C   UNL     1      -7.414  -3.010   0.121  0.00  0.00    +0.021 A 
ATOM     30  C   UNL     1      -8.576  -2.338  -0.223  0.00  0.00    +0.041 A 
ATOM     31  C   UNL     1      -8.525  -1.016  -0.630  0.00  0.00    +0.021 A 
ATOM     32  C   UNL     1      -7.315  -0.357  -0.692  0.00  0.00    +0.016 A 
ATOM     33 CL   UNL     1     -10.104  -3.159  -0.142  0.00  0.00    -0.084 Cl
ENDBRANCH  25  27
ENDBRANCH  24  25
ENDBRANCH  11  24
TORSDOF 5
