REMARK  Name = ZINC40702105
REMARK  6 active torsions:
REMARK  status: ('A' for Active; 'I' for Inactive)
REMARK    1  A    between atoms: C_1  and  C_2
REMARK    2  A    between atoms: C_2  and  N_3
REMARK    3  A    between atoms: N_3  and  C_4
REMARK    4  A    between atoms: C_15  and  N_31
REMARK    5  A    between atoms: C_16  and  N_20
REMARK    6  A    between atoms: N_20  and  C_21
REMARK                            x       y       z     vdW  Elec       q    Type
REMARK                         _______ _______ _______ _____ _____    ______ ____
ROOT
ATOM      1  N   UNL     1      -1.278  -0.557   0.103  0.00  0.00    -0.283 N 
ATOM      2  C   UNL     1      -1.875  -0.758   1.343  0.00  0.00    +0.151 A 
ATOM      3  C   UNL     1      -1.191  -0.441   2.518  0.00  0.00    +0.104 A 
ATOM      4  C   UNL     1      -1.838  -0.662   3.736  0.00  0.00    +0.126 A 
ATOM      5  N   UNL     1      -3.071  -1.163   3.730  0.00  0.00    -0.333 N 
ATOM      6  C   UNL     1      -3.680  -1.448   2.597  0.00  0.00    +0.200 A 
ATOM      7  N   UNL     1      -3.108  -1.250   1.427  0.00  0.00    -0.220 NA
ATOM      8  H   UNL     1      -3.527  -1.320   4.571  0.00  0.00    +0.168 HD
ENDROOT
BRANCH   1   9
ATOM      9  C   UNL     1      -0.629  -1.612  -0.537  0.00  0.00    +0.043 A 
ATOM     10  C   UNL     1       0.712  -1.843  -0.314  0.00  0.00    +0.024 A 
ATOM     11  C   UNL     1       1.368  -2.893  -0.948  0.00  0.00    +0.002 A 
ATOM     12  C   UNL     1       0.707  -3.720  -1.806  0.00  0.00    +0.008 A 
ATOM     13  C   UNL     1      -0.660  -3.519  -2.061  0.00  0.00    -0.016 A 
ATOM     14  C   UNL     1      -1.341  -2.457  -1.416  0.00  0.00    +0.003 A 
ATOM     15  C   UNL     1      -2.707  -2.260  -1.669  0.00  0.00    +0.010 A 
ATOM     16  C   UNL     1      -3.362  -3.094  -2.523  0.00  0.00    +0.001 A 
ATOM     17  C   UNL     1      -2.695  -4.143  -3.152  0.00  0.00    +0.001 A 
ATOM     18  C   UNL     1      -1.367  -4.356  -2.941  0.00  0.00    +0.008 A 
ENDBRANCH   1   9
BRANCH   3  19
ATOM     19  N   UNL     1       0.109   0.085   2.477  0.00  0.00    -0.353 N 
ATOM     20  H   UNL     1       0.516   0.308   1.625  0.00  0.00    +0.143 HD
ATOM     21  H   UNL     1       0.601   0.227   3.301  0.00  0.00    +0.143 HD
ENDBRANCH   3  19
BRANCH   1  23
ATOM     22  C   UNL     1      -2.526   0.825  -1.482  0.00  0.00    +0.025 C 
ATOM     23  C   UNL     1      -1.330   0.763  -0.530  0.00  0.00    +0.109 C 
ENDBRANCH   1  23
BRANCH   4  24
ATOM     24  N   UNL     1      -1.203  -0.364   4.937  0.00  0.00    -0.299 N 
ATOM     25  H   UNL     1      -0.283  -0.055   4.936  0.00  0.00    +0.154 HD
BRANCH  24  26
ATOM     26  C   UNL     1      -1.887  -0.509   6.141  0.00  0.00    +0.042 A 
ATOM     27  C   UNL     1      -2.338   0.602   6.825  0.00  0.00    +0.024 A 
ATOM     28  C   UNL     1      -3.021   0.464   8.028  0.00  0.00    +0.004 A 
ATOM     29  C   UNL     1      -3.265  -0.765   8.564  0.00  0.00    +0.028 A 
ATOM     30  C   UNL     1      -2.823  -1.922   7.901  0.00  0.00    +0.073 A 
ATOM     31  C   UNL     1      -2.131  -1.793   6.671  0.00  0.00    +0.022 A 
ATOM     32  C   UNL     1      -1.695  -2.953   6.008  0.00  0.00    +0.013 A 
ATOM     33  C   UNL     1      -1.967  -4.164   6.581  0.00  0.00    +0.020 A 
ATOM     34  C   UNL     1      -2.657  -4.222   7.789  0.00  0.00    +0.111 A 
ATOM     35  N   UNL     1      -3.052  -3.137   8.410  0.00  0.00    -0.255 NA
ENDBRANCH  24  26
ENDBRANCH   4  24
TORSDOF 5
