REMARK  Name = ZINC37604754
REMARK  9 active torsions:
REMARK  status: ('A' for Active; 'I' for Inactive)
REMARK    1  A    between atoms: C_1  and  C_2
REMARK    2  A    between atoms: C_2  and  C_3
REMARK    3  A    between atoms: C_11  and  O_23
REMARK    4  A    between atoms: C_14  and  C_16
REMARK    5  A    between atoms: O_23  and  C_24
REMARK    6  A    between atoms: C_24  and  C_25
REMARK    7  A    between atoms: C_28  and  C_30
REMARK    8  A    between atoms: N_32  and  C_33
REMARK    9  A    between atoms: C_33  and  C_34
REMARK                            x       y       z     vdW  Elec       q    Type
REMARK                         _______ _______ _______ _____ _____    ______ ____
ROOT
ATOM      1  C   UNL     1      -1.880  -0.491  -0.944  0.00  0.00    +0.216 C 
ATOM      2  O   UNL     1      -2.898   0.157  -0.829  0.00  0.00    -0.276 OA
ATOM      3  N   UNL     1      -1.854  -1.781  -0.554  0.00  0.00    -0.290 N 
ATOM      4  C   UNL     1      -0.673  -2.628  -0.790  0.00  0.00    +0.113 C 
ATOM      5  C   UNL     1      -0.101  -3.025   0.570  0.00  0.00    +0.054 C 
ATOM      6  C   UNL     1      -1.190  -3.513   1.488  0.00  0.00    -0.040 A 
ATOM      7  C   UNL     1      -0.813  -4.296   2.574  0.00  0.00    +0.007 A 
ATOM      8  C   UNL     1      -1.756  -4.769   3.460  0.00  0.00    +0.046 A 
ATOM      9  C   UNL     1      -3.096  -4.461   3.271  0.00  0.00    +0.121 A 
ATOM     10  C   UNL     1      -3.472  -3.684   2.188  0.00  0.00    +0.051 A 
ATOM     11  C   UNL     1      -2.520  -3.215   1.294  0.00  0.00    -0.016 A 
ATOM     12  C   UNL     1      -2.998  -2.395   0.127  0.00  0.00    +0.137 C 
ENDROOT
BRANCH  12  13
ATOM     13  C   UNL     1      -3.926  -1.315   0.621  0.00  0.00    -0.022 A 
ATOM     14  C   UNL     1      -3.470  -0.370   1.520  0.00  0.00    +0.008 A 
ATOM     15  C   UNL     1      -4.320   0.621   1.973  0.00  0.00    +0.038 A 
ATOM     16  C   UNL     1      -5.630   0.666   1.526  0.00  0.00    +0.123 A 
ATOM     17  C   UNL     1      -6.086  -0.281   0.625  0.00  0.00    +0.038 A 
ATOM     18  C   UNL     1      -5.232  -1.268   0.170  0.00  0.00    +0.008 A 
ATOM     19  F   UNL     1      -6.462   1.634   1.968  0.00  0.00    -0.205 F 
ENDBRANCH  12  13
BRANCH   1  21
ATOM     20  C   UNL     1      -0.940   1.605  -1.880  0.00  0.00    +0.013 C 
ATOM     21  C   UNL     1      -0.643   0.147  -1.522  0.00  0.00    +0.092 C 
ENDBRANCH   1  21
BRANCH   9  22
ATOM     22  O   UNL     1      -4.032  -4.919   4.142  0.00  0.00    -0.484 OA
BRANCH  22  23
ATOM     23  C   UNL     1      -3.568  -5.714   5.235  0.00  0.00    +0.303 C 
BRANCH  23  24
ATOM     24  C   UNL     1      -4.740  -6.128   6.088  0.00  0.00    +0.143 A 
ATOM     25  C   UNL     1      -5.470  -7.253   5.928  0.00  0.00    +0.049 A 
ATOM     26  C   UNL     1      -6.456  -7.251   6.928  0.00  0.00    +0.055 A 
ATOM     27  C   UNL     1      -6.275  -6.109   7.655  0.00  0.00    +0.190 A 
ATOM     28  O   UNL     1      -5.225  -5.444   7.132  0.00  0.00    -0.452 OA
BRANCH  27  29
ATOM     29  C   UNL     1      -7.079  -5.684   8.806  0.00  0.00    +0.280 C 
ATOM     30  O   UNL     1      -8.004  -6.375   9.190  0.00  0.00    -0.267 OA
ATOM     31  N   UNL     1      -6.792  -4.529   9.438  0.00  0.00    -0.302 N 
ATOM     32  H   UNL     1      -6.054  -3.979   9.131  0.00  0.00    +0.150 HD
BRANCH  31  33
ATOM     33  C   UNL     1      -7.595  -4.104  10.587  0.00  0.00    +0.179 C 
BRANCH  33  34
ATOM     34  C   UNL     1      -7.072  -2.790  11.107  0.00  0.00    +0.122 A 
ATOM     35  C   UNL     1      -7.479  -1.570  10.712  0.00  0.00    +0.046 A 
ATOM     36  C   UNL     1      -6.728  -0.628  11.454  0.00  0.00    +0.041 A 
ATOM     37  C   UNL     1      -5.908  -1.329  12.257  0.00  0.00    +0.195 A 
ATOM     38  O   UNL     1      -6.124  -2.638  12.047  0.00  0.00    -0.466 OA
ENDBRANCH  33  34
ENDBRANCH  31  33
ENDBRANCH  27  29
ENDBRANCH  23  24
ENDBRANCH  22  23
ENDBRANCH   9  22
TORSDOF 8
