REMARK  Name = ZINC00390477
REMARK  5 active torsions:
REMARK  status: ('A' for Active; 'I' for Inactive)
REMARK    1  A    between atoms: C_1  and  C_2
REMARK    2  A    between atoms: C_2  and  C_26
REMARK    3  A    between atoms: C_6  and  C_17
REMARK    4  A    between atoms: C_11  and  C_15
REMARK    5  A    between atoms: C_11  and  C_16
REMARK                            x       y       z     vdW  Elec       q    Type
REMARK                         _______ _______ _______ _____ _____    ______ ____
ROOT
ATOM      1  C   UNL     1      -5.035   5.668  -0.703  0.00  0.00    +0.011 C 
ATOM      2  C   UNL     1      -6.145   4.776  -1.262  0.00  0.00    -0.023 C 
ATOM      3  C   UNL     1      -6.070   3.393  -0.611  0.00  0.00    +0.058 C 
ATOM      4  C   UNL     1      -4.744   2.752  -0.938  0.00  0.00    +0.016 C 
ATOM      5  C   UNL     1      -4.111   3.015  -2.100  0.00  0.00    +0.025 C 
ATOM      6  C   UNL     1      -2.794   2.356  -2.419  0.00  0.00    +0.107 C 
ATOM      7  C   UNL     1      -2.126   1.842  -1.171  0.00  0.00    +0.025 C 
ATOM      8  C   UNL     1      -2.844   1.633  -0.047  0.00  0.00    +0.016 C 
ATOM      9  N   UNL     1      -4.186   1.895  -0.029  0.00  0.00    -0.320 N 
ATOM     10  C   UNL     1      -2.190   1.107   1.207  0.00  0.00    +0.058 C 
ATOM     11  C   UNL     1      -0.734   1.582   1.266  0.00  0.00    -0.023 C 
ATOM     12  C   UNL     1      -0.013   1.086   0.008  0.00  0.00    +0.086 C 
ATOM     13  C   UNL     1      -0.744   1.586  -1.208  0.00  0.00    +0.162 C 
ATOM     14  O   UNL     1      -0.130   1.773  -2.240  0.00  0.00    -0.292 OA
ATOM     15  C   UNL     1      -0.052   1.008   2.509  0.00  0.00    +0.011 C 
ATOM     16  C   UNL     1      -0.693   3.111   1.312  0.00  0.00    +0.011 C 
ATOM     17  C   UNL     1      -4.657   3.910  -3.037  0.00  0.00    +0.162 C 
ATOM     18  O   UNL     1      -4.065   4.119  -4.077  0.00  0.00    -0.292 OA
ATOM     19  C   UNL     1      -5.961   4.612  -2.775  0.00  0.00    +0.086 C 
ATOM     20  C   UNL     1      -7.507   5.410  -0.976  0.00  0.00    +0.011 C 
ATOM     21  H   UNL     1      -4.818   1.407   0.728  0.00  0.00    +0.152 HD
ENDROOT
BRANCH   6  22
ATOM     22  C   UNL     1      -3.034   1.204  -3.361  0.00  0.00    +0.048 A 
ATOM     23  C   UNL     1      -3.351  -0.059  -3.020  0.00  0.00    +0.134 A 
ATOM     24  N   UNL     1      -3.480  -0.774  -4.148  0.00  0.00    -0.244 NA
ATOM     25  C   UNL     1      -3.254  -0.001  -5.175  0.00  0.00    +0.196 A 
ATOM     26  N   UNL     1      -2.978   1.243  -4.728  0.00  0.00    -0.347 N 
ATOM     27  H   UNL     1      -2.738   2.186  -5.242  0.00  0.00    +0.167 HD
ENDBRANCH   6  22
TORSDOF 1
