REMARK  Name = ZINC04292291
REMARK  11 active torsions:
REMARK  status: ('A' for Active; 'I' for Inactive)
REMARK    1  A    between atoms: C_1  and  C_2
REMARK    2  A    between atoms: C_3  and  C_26
REMARK    3  A    between atoms: C_4  and  C_20
REMARK    4  A    between atoms: C_11  and  S_15
REMARK    5  A    between atoms: S_15  and  C_16
REMARK    6  A    between atoms: C_16  and  C_17
REMARK    7  A    between atoms: C_17  and  C_18
REMARK    8  A    between atoms: C_17  and  C_19
REMARK    9  A    between atoms: C_26  and  O_28
REMARK   10  A    between atoms: O_28  and  C_29
REMARK   11  A    between atoms: C_29  and  C_30
REMARK                            x       y       z     vdW  Elec       q    Type
REMARK                         _______ _______ _______ _____ _____    ______ ____
ROOT
ATOM      1  C   UNL     1       0.902   0.216   4.739  0.00  0.00    +0.061 C 
ATOM      2  C   UNL     1      -0.280   1.151   4.742  0.00  0.00    +0.017 C 
ATOM      3  C   UNL     1      -0.651   1.746   3.597  0.00  0.00    +0.065 C 
ATOM      4  C   UNL     1      -1.809   2.700   3.534  0.00  0.00    +0.097 C 
ATOM      5  C   UNL     1      -2.683   2.563   4.750  0.00  0.00    +0.069 A 
ATOM      6  C   UNL     1      -3.977   3.097   4.752  0.00  0.00    +0.258 A 
ATOM      7  O   UNL     1      -4.414   3.670   3.766  0.00  0.00    -0.267 OA
ATOM      8  N   UNL     1      -4.732   2.967   5.862  0.00  0.00    -0.302 N 
ATOM      9  H   UNL     1      -5.659   3.340   5.882  0.00  0.00    +0.171 HD
ATOM     10  C   UNL     1      -4.233   2.328   6.957  0.00  0.00    +0.171 A 
ATOM     11  N   UNL     1      -3.016   1.823   6.961  0.00  0.00    -0.208 NA
ATOM     12  C   UNL     1      -2.225   1.919   5.887  0.00  0.00    +0.135 A 
ATOM     13  N   UNL     1      -0.953   1.377   5.911  0.00  0.00    -0.302 N 
ATOM     14  H   UNL     1      -0.537   1.155   6.758  0.00  0.00    +0.153 HD
ENDROOT
BRANCH   4  15
ATOM     15  C   UNL     1      -1.284   4.110   3.452  0.00  0.00    -0.017 A 
ATOM     16  C   UNL     1      -1.590   4.911   2.361  0.00  0.00    +0.007 A 
ATOM     17  C   UNL     1      -1.090   6.203   2.330  0.00  0.00    +0.020 A 
ATOM     18  C   UNL     1      -0.299   6.644   3.375  0.00  0.00    +0.111 A 
ATOM     19  N   UNL     1      -0.024   5.854   4.393  0.00  0.00    -0.263 NA
ATOM     20  C   UNL     1      -0.487   4.620   4.458  0.00  0.00    +0.115 A 
ENDBRANCH   4  15
BRANCH   3  21
ATOM     21  C   UNL     1       0.073   1.470   2.416  0.00  0.00    +0.338 C 
ATOM     22  O   UNL     1      -0.410   0.755   1.558  0.00  0.00    -0.245 OA
BRANCH  21  23
ATOM     23  O   UNL     1       1.302   2.000   2.239  0.00  0.00    -0.457 OA
BRANCH  23  24
ATOM     24  C   UNL     1       1.978   1.679   1.021  0.00  0.00    +0.259 C 
BRANCH  24  25
ATOM     25  C   UNL     1       3.324   2.355   1.001  0.00  0.00    +0.006 C 
ATOM     26  C   UNL     1       4.386   1.688   0.622  0.00  0.00    +0.007 C 
ENDBRANCH  24  25
ENDBRANCH  23  24
ENDBRANCH  21  23
ENDBRANCH   3  21
BRANCH  10  27
ATOM     27  S   UNL     1      -5.235   2.175   8.398  0.00  0.00    -0.088 S 
BRANCH  27  28
ATOM     28  C   UNL     1      -4.096   1.276   9.480  0.00  0.00    +0.080 C 
BRANCH  28  29
ATOM     29  C   UNL     1      -4.768   1.022  10.831  0.00  0.00    -0.007 C 
ATOM     30  C   UNL     1      -3.854   0.156  11.700  0.00  0.00    +0.008 C 
ATOM     31  C   UNL     1      -5.024   2.357  11.532  0.00  0.00    +0.008 C 
ENDBRANCH  28  29
ENDBRANCH  27  28
ENDBRANCH  10  27
TORSDOF 8
