REMARK  Name = ZINC38547582
REMARK  9 active torsions:
REMARK  status: ('A' for Active; 'I' for Inactive)
REMARK    1  A    between atoms: C_1  and  C_2
REMARK    2  A    between atoms: C_6  and  N_8
REMARK    3  A    between atoms: N_8  and  C_9
REMARK    4  A    between atoms: C_9  and  C_11
REMARK    5  A    between atoms: C_9  and  C_18
REMARK    6  A    between atoms: C_19  and  C_32
REMARK    7  A    between atoms: C_20  and  C_31
REMARK    8  A    between atoms: C_22  and  N_23
REMARK    9  A    between atoms: C_24  and  C_26
REMARK                            x       y       z     vdW  Elec       q    Type
REMARK                         _______ _______ _______ _____ _____    ______ ____
ROOT
ATOM      1  C   UNL     1       0.049  -4.117   2.476  0.00  0.00    +0.135 C 
ENDROOT
BRANCH   1   2
ATOM      2  C   UNL     1      -1.341  -4.698   2.411  0.00  0.00    -0.023 A 
ATOM      3  C   UNL     1      -2.388  -4.056   3.046  0.00  0.00    +0.008 A 
ATOM      4  C   UNL     1      -3.662  -4.587   2.987  0.00  0.00    +0.038 A 
ATOM      5  C   UNL     1      -3.890  -5.762   2.291  0.00  0.00    +0.123 A 
ATOM      6  C   UNL     1      -2.841  -6.404   1.655  0.00  0.00    +0.038 A 
ATOM      7  C   UNL     1      -1.568  -5.868   1.711  0.00  0.00    +0.008 A 
ATOM      8  F   UNL     1      -5.136  -6.283   2.233  0.00  0.00    -0.205 F 
ENDBRANCH   1   2
BRANCH   1   9
ATOM      9  C   UNL     1       0.766  -4.666   3.682  0.00  0.00    +0.009 A 
ATOM     10  C   UNL     1       1.767  -5.609   3.538  0.00  0.00    -0.033 A 
ATOM     11  C   UNL     1       2.392  -6.081   4.643  0.00  0.00    -0.008 A 
ATOM     12  S   UNL     1       1.567  -5.186   5.949  0.00  0.00    -0.078 S 
ATOM     13  C   UNL     1       0.445  -4.237   4.935  0.00  0.00    +0.078 A 
ATOM     14  C   UNL     1       3.499  -7.098   4.744  0.00  0.00    +0.052 C 
ATOM     15  C   UNL     1       2.157  -6.105   2.169  0.00  0.00    +0.045 C 
BRANCH  13  16
ATOM     16  N   UNL     1      -0.515  -3.300   5.325  0.00  0.00    -0.273 N 
ATOM     17  C   UNL     1      -0.760  -3.091   6.634  0.00  0.00    +0.284 C 
ATOM     18  O   UNL     1      -0.144  -3.719   7.476  0.00  0.00    -0.266 OA
ATOM     19  H   UNL     1      -1.005  -2.800   4.654  0.00  0.00    +0.156 HD
BRANCH  17  20
ATOM     20  C   UNL     1      -1.767  -2.108   7.043  0.00  0.00    +0.189 A 
ATOM     21  C   UNL     1      -2.108  -1.796   8.328  0.00  0.00    +0.054 A 
ATOM     22  C   UNL     1      -3.106  -0.812   8.253  0.00  0.00    +0.042 A 
ATOM     23  C   UNL     1      -3.328  -0.569   6.943  0.00  0.00    +0.196 A 
ATOM     24  O   UNL     1      -2.515  -1.349   6.217  0.00  0.00    -0.458 OA
ENDBRANCH  17  20
ENDBRANCH  13  16
ENDBRANCH   1   9
BRANCH   1  25
ATOM     25  N   UNL     1      -0.036  -2.658   2.580  0.00  0.00    -0.320 N 
ATOM     26  H   UNL     1       0.090  -2.225   3.438  0.00  0.00    +0.148 HD
BRANCH  25  32
ATOM     27  C   UNL     1      -0.695   1.680   0.665  0.00  0.00    +0.063 C 
ATOM     28  C   UNL     1      -0.619   0.184   0.498  0.00  0.00    +0.014 A 
ATOM     29  C   UNL     1      -0.808  -0.373  -0.751  0.00  0.00    +0.021 A 
ATOM     30  C   UNL     1      -0.737  -1.751  -0.899  0.00  0.00    +0.005 A 
ATOM     31  C   UNL     1      -0.477  -2.523   0.219  0.00  0.00    +0.041 A 
ATOM     32  C   UNL     1      -0.297  -1.895   1.448  0.00  0.00    +0.097 A 
ATOM     33  N   UNL     1      -0.367  -0.577   1.547  0.00  0.00    -0.347 N 
ATOM     34  H   UNL     1      -0.235  -0.160   2.413  0.00  0.00    +0.167 HD
ENDBRANCH  25  32
ENDBRANCH   1  25
TORSDOF 6
