REMARK  Name = ZINC40678896
REMARK  7 active torsions:
REMARK  status: ('A' for Active; 'I' for Inactive)
REMARK    1  A    between atoms: C_4  and  N_7
REMARK    2  A    between atoms: C_9  and  C_14
REMARK    3  A    between atoms: C_14  and  N_15
REMARK    4  A    between atoms: N_15  and  S_16
REMARK    5  A    between atoms: S_16  and  C_19
REMARK    6  A    between atoms: C_19  and  C_20
REMARK    7  A    between atoms: C_20  and  C_21
REMARK                            x       y       z     vdW  Elec       q    Type
REMARK                         _______ _______ _______ _____ _____    ______ ____
ROOT
ATOM      1  N   UNL     1       7.352  -3.525  -0.095  0.00  0.00    -0.191 NA
ATOM      2  H   UNL     1       7.668  -3.065  -0.889  0.00  0.00    +0.148 HD
ENDROOT
BRANCH   1   3
ATOM      3  S   UNL     1       8.402  -4.431   0.809  0.00  0.00    +0.030 S 
ATOM      4  O   UNL     1       9.657  -4.292   0.156  0.00  0.00    -0.158 OA
ATOM      5  O   UNL     1       8.224  -3.970   2.142  0.00  0.00    -0.158 OA
BRANCH   3   6
ATOM      6  C   UNL     1       7.803  -6.136   0.652  0.00  0.00    +0.189 C 
BRANCH   6   7
ATOM      7  C   UNL     1       8.707  -7.071   1.457  0.00  0.00    +0.062 C 
BRANCH   7   8
ATOM      8  C   UNL     1       8.209  -8.487   1.326  0.00  0.00    -0.011 A 
ATOM      9  C   UNL     1       7.362  -9.013   2.284  0.00  0.00    +0.006 A 
ATOM     10  C   UNL     1       6.904 -10.312   2.164  0.00  0.00    +0.000 A 
ATOM     11  C   UNL     1       7.294 -11.087   1.087  0.00  0.00    +0.003 A 
ATOM     12  C   UNL     1       8.141 -10.563   0.129  0.00  0.00    +0.038 A 
ATOM     13  C   UNL     1       8.595  -9.260   0.245  0.00  0.00    +0.127 A 
ATOM     14  F   UNL     1       9.419  -8.746  -0.694  0.00  0.00    -0.205 F 
ENDBRANCH   7   8
ENDBRANCH   6   7
ENDBRANCH   3   6
ENDBRANCH   1   3
BRANCH   1  15
ATOM     15  C   UNL     1       5.946  -3.418   0.303  0.00  0.00    +0.151 C 
BRANCH  15  18
ATOM     16  N   UNL     1       3.622  -0.651  -0.037  0.00  0.00    -0.234 N 
ATOM     17  C   UNL     1       3.801  -2.116  -0.053  0.00  0.00    +0.163 C 
ATOM     18  C   UNL     1       5.290  -2.259  -0.450  0.00  0.00    +0.211 C 
ATOM     19  O   UNL     1       5.836  -0.995  -0.027  0.00  0.00    -0.444 OA
ATOM     20  C   UNL     1       4.845  -0.088  -0.048  0.00  0.00    +0.408 C 
ATOM     21  O   UNL     1       5.032   1.113  -0.070  0.00  0.00    -0.226 OA
BRANCH  16  25
ATOM     22  C   UNL     1      -0.017   1.379   0.010  0.00  0.00    +0.000 A 
ATOM     23  C   UNL     1       1.170   2.089   0.002  0.00  0.00    +0.002 A 
ATOM     24  C   UNL     1       2.377   1.419  -0.013  0.00  0.00    +0.023 A 
ATOM     25  C   UNL     1       2.400   0.031  -0.021  0.00  0.00    +0.040 A 
ATOM     26  C   UNL     1       1.207  -0.680  -0.013  0.00  0.00    +0.023 A 
ATOM     27  C   UNL     1       0.002  -0.004   0.002  0.00  0.00    +0.002 A 
ENDBRANCH  16  25
ENDBRANCH  15  18
ENDBRANCH   1  15
TORSDOF 7
