REMARK  Name = ZINC15319891
REMARK  6 active torsions:
REMARK  status: ('A' for Active; 'I' for Inactive)
REMARK    1  A    between atoms: C_1  and  C_2
REMARK    2  A    between atoms: N_10  and  C_13
REMARK    3  A    between atoms: C_16  and  N_19
REMARK    4  A    between atoms: C_20  and  C_22
REMARK    5  A    between atoms: N_31  and  C_34
REMARK    6  A    between atoms: C_34  and  C_35
REMARK                            x       y       z     vdW  Elec       q    Type
REMARK                         _______ _______ _______ _____ _____    ______ ____
ROOT
ATOM      1  C   UNL     1      -0.022   1.567  -0.009  0.00  0.00    +0.025 C 
ATOM      2  C   UNL     1       0.005   0.037  -0.016  0.00  0.00    +0.064 C 
ATOM      3  C   UNL     1      -1.391  -0.537   0.204  0.00  0.00    +0.107 C 
ATOM      4  C   UNL     1      -1.536  -0.151   1.722  0.00  0.00    +0.123 C 
ATOM      5  C   UNL     1      -2.954  -0.301   1.937  0.00  0.00    +0.233 C 
ATOM      6  O   UNL     1      -3.514  -0.654   2.953  0.00  0.00    -0.274 OA
ATOM      7  N   UNL     1      -3.533   0.045   0.740  0.00  0.00    -0.210 N 
ATOM      8  C   UNL     1      -2.613   0.174  -0.285  0.00  0.00    +0.232 C 
ATOM      9  O   UNL     1      -2.756   0.743  -1.346  0.00  0.00    -0.274 OA
ATOM     10  C   UNL     1      -0.238  -0.431   2.328  0.00  0.00    +0.136 C 
ATOM     11  N   UNL     1       0.738  -0.496   1.187  0.00  0.00    -0.296 NA
ATOM     12  C   UNL     1       0.239   0.614   3.305  0.00  0.00    +0.004 A 
ATOM     13  C   UNL     1       0.416   1.976   3.213  0.00  0.00    +0.008 A 
ATOM     14  C   UNL     1       0.883   2.688   4.304  0.00  0.00    +0.000 A 
ATOM     15  C   UNL     1       1.170   2.027   5.485  0.00  0.00    +0.002 A 
ATOM     16  C   UNL     1       0.994   0.663   5.581  0.00  0.00    +0.024 A 
ATOM     17  C   UNL     1       0.523  -0.061   4.487  0.00  0.00    +0.042 A 
ATOM     18  N   UNL     1       0.266  -1.425   4.338  0.00  0.00    -0.268 N 
ATOM     19  C   UNL     1      -0.182  -1.726   3.106  0.00  0.00    +0.245 C 
ATOM     20  O   UNL     1      -0.484  -2.827   2.698  0.00  0.00    -0.273 OA
ATOM     21  H   UNL     1       1.043  -1.445   1.033  0.00  0.00    +0.123 HD
ENDROOT
BRANCH   7  22
ATOM     22  C   UNL     1      -4.912   0.235   0.567  0.00  0.00    +0.044 A 
ATOM     23  C   UNL     1      -5.774   0.079   1.644  0.00  0.00    +0.026 A 
ATOM     24  C   UNL     1      -7.131   0.266   1.475  0.00  0.00    +0.025 A 
ATOM     25  C   UNL     1      -7.634   0.610   0.227  0.00  0.00    +0.033 A 
ATOM     26  C   UNL     1      -6.772   0.766  -0.850  0.00  0.00    +0.025 A 
ATOM     27  C   UNL     1      -5.414   0.585  -0.679  0.00  0.00    +0.026 A 
BRANCH  25  28
ATOM     28  N   UNL     1      -9.011   0.799   0.055  0.00  0.00    -0.286 N 
ATOM     29  C   UNL     1      -9.600   0.445  -1.104  0.00  0.00    +0.214 C 
ATOM     30  O   UNL     1      -8.959  -0.126  -1.961  0.00  0.00    -0.276 OA
ATOM     31  C   UNL     1     -11.056   0.758  -1.336  0.00  0.00    +0.109 C 
ATOM     32  H   UNL     1      -9.540   1.186   0.770  0.00  0.00    +0.155 HD
ENDBRANCH  25  28
ENDBRANCH   7  22
BRANCH  18  33
ATOM     33  C   UNL     1       0.463  -2.414   5.400  0.00  0.00    +0.125 C 
BRANCH  33  34
ATOM     34  C   UNL     1      -0.825  -2.552   6.214  0.00  0.00    +0.099 C 
ATOM     35 BR   UNL     1      -0.561  -3.880   7.639  0.00  0.00    -0.090 Br
ENDBRANCH  33  34
ENDBRANCH  18  33
TORSDOF 4
