REMARK  Name = ZINC20000168
REMARK  13 active torsions:
REMARK  status: ('A' for Active; 'I' for Inactive)
REMARK    1  A    between atoms: C_1  and  C_2
REMARK    2  A    between atoms: C_2  and  N_3
REMARK    3  A    between atoms: N_3  and  C_4
REMARK    4  A    between atoms: N_3  and  C_6
REMARK    5  A    between atoms: C_4  and  C_5
REMARK    6  A    between atoms: C_6  and  C_8
REMARK    7  A    between atoms: C_6  and  C_24
REMARK    8  A    between atoms: C_8  and  N_9
REMARK    9  A    between atoms: N_9  and  S_10
REMARK   10  A    between atoms: S_10  and  C_13
REMARK   11  A    between atoms: C_16  and  O_22
REMARK   12  A    between atoms: C_17  and  N_19
REMARK   13  A    between atoms: O_22  and  C_23
REMARK                            x       y       z     vdW  Elec       q    Type
REMARK                         _______ _______ _______ _____ _____    ______ ____
ROOT
ATOM      1  N   UNL     1       4.175   3.771   2.697  0.00  0.00    -0.191 NA
ATOM      2  H   UNL     1       5.069   3.784   2.057  0.00  0.00    +0.148 HD
ENDROOT
BRANCH   1   3
ATOM      3  S   UNL     1       4.355   3.872   4.340  0.00  0.00    +0.058 S 
ATOM      4  O   UNL     1       5.724   4.166   4.581  0.00  0.00    -0.153 OA
ATOM      5  O   UNL     1       3.303   4.700   4.814  0.00  0.00    -0.153 OA
BRANCH   3   6
ATOM      6  C   UNL     1       4.064   2.262   4.995  0.00  0.00    +0.108 A 
ATOM      7  C   UNL     1       2.785   1.891   5.370  0.00  0.00    +0.032 A 
ATOM      8  C   UNL     1       2.553   0.627   5.878  0.00  0.00    +0.050 A 
ATOM      9  C   UNL     1       3.606  -0.265   6.024  0.00  0.00    +0.150 A 
ATOM     10  C   UNL     1       4.888   0.113   5.654  0.00  0.00    +0.169 A 
ATOM     11  C   UNL     1       5.114   1.375   5.140  0.00  0.00    +0.065 A 
BRANCH  10  12
ATOM     12  N   UNL     1       6.013  -0.837   5.807  0.00  0.00    +0.060 N 
ATOM     13  O   UNL     1       7.139  -0.505   5.481  0.00  0.00    -0.126 OA
ATOM     14  O   UNL     1       5.813  -1.950   6.260  0.00  0.00    -0.126 OA
ENDBRANCH  10  12
BRANCH   9  15
ATOM     15  O   UNL     1       3.381  -1.506   6.529  0.00  0.00    -0.493 OA
ATOM     16  C   UNL     1       2.036  -1.826   6.890  0.00  0.00    +0.277 C 
ENDBRANCH   9  15
ENDBRANCH   3   6
ENDBRANCH   1   3
BRANCH   1  17
ATOM     17  C   UNL     1       2.866   3.451   2.122  0.00  0.00    +0.095 C 
BRANCH  17  18
ATOM     18  C   UNL     1       2.846   3.851   0.645  0.00  0.00    -0.021 C 
BRANCH  18  19
ATOM     19  C   UNL     1       1.486   3.563   0.065  0.00  0.00    -0.041 A 
ATOM     20  C   UNL     1       1.309   2.483  -0.780  0.00  0.00    +0.003 A 
ATOM     21  C   UNL     1       0.062   2.219  -1.313  0.00  0.00    +0.000 A 
ATOM     22  C   UNL     1      -1.010   3.037  -1.005  0.00  0.00    +0.001 A 
ATOM     23  C   UNL     1      -0.836   4.113  -0.155  0.00  0.00    +0.020 A 
ATOM     24  C   UNL     1       0.413   4.378   0.379  0.00  0.00    +0.043 A 
ATOM     25 CL   UNL     1       0.633   5.733   1.441  0.00  0.00    -0.083 Cl
ENDBRANCH  18  19
BRANCH  18  26
ATOM     26  N   UNL     1       3.863   3.082  -0.084  0.00  0.00    +0.385 N 
ATOM     27  H   UNL     1       3.435   2.793  -1.056  0.00  0.00    -0.081 HD
BRANCH  26  29
ATOM     28  C   UNL     1       4.717   4.991  -1.358  0.00  0.00    -0.017 C 
ATOM     29  C   UNL     1       5.056   3.899  -0.342  0.00  0.00    -0.081 C 
ENDBRANCH  26  29
BRANCH  26  30
ATOM     30  C   UNL     1       4.213   1.852   0.639  0.00  0.00    -0.081 C 
ATOM     31  C   UNL     1       3.061   0.851   0.529  0.00  0.00    -0.017 C 
ENDBRANCH  26  30
ENDBRANCH  18  26
ENDBRANCH  17  18
ENDBRANCH   1  17
TORSDOF 10
