REMARK  Name = ZINC51267716
REMARK  10 active torsions:
REMARK  status: ('A' for Active; 'I' for Inactive)
REMARK    1  A    between atoms: C_1  and  C_2
REMARK    2  A    between atoms: C_2  and  C_3
REMARK    3  A    between atoms: C_3  and  C_4
REMARK    4  A    between atoms: C_4  and  N_5
REMARK    5  A    between atoms: C_6  and  C_8
REMARK    6  A    between atoms: N_17  and  C_18
REMARK    7  A    between atoms: C_20  and  C_26
REMARK    8  A    between atoms: C_20  and  C_27
REMARK    9  A    between atoms: C_22  and  C_24
REMARK   10  A    between atoms: C_22  and  C_25
REMARK                            x       y       z     vdW  Elec       q    Type
REMARK                         _______ _______ _______ _____ _____    ______ ____
ROOT
ATOM      1  C   UNL     1       2.730  -4.059  -3.872  0.00  0.00    +0.092 C 
ATOM      2  C   UNL     1       2.894  -5.578  -3.793  0.00  0.00    +0.016 C 
ATOM      3  C   UNL     1       3.521  -6.094  -5.090  0.00  0.00    +0.020 C 
ATOM      4  C   UNL     1       4.907  -5.467  -5.268  0.00  0.00    +0.109 C 
ATOM      5  N   UNL     1       4.777  -4.005  -5.200  0.00  0.00    -0.285 N 
ATOM      6  C   UNL     1       4.107  -3.408  -4.037  0.00  0.00    +0.122 C 
ATOM      7  C   UNL     1       5.262  -3.226  -6.187  0.00  0.00    +0.302 C 
ATOM      8  O   UNL     1       5.065  -2.026  -6.167  0.00  0.00    -0.253 OA
ATOM      9  N   UNL     1       5.966  -3.776  -7.196  0.00  0.00    -0.296 N 
ATOM     10  H   UNL     1       6.061  -4.740  -7.252  0.00  0.00    +0.151 HD
ENDROOT
BRANCH   9  11
ATOM     11  C   UNL     1       6.589  -2.917  -8.211  0.00  0.00    +0.072 C 
ATOM     12  C   UNL     1       5.574  -2.629  -9.318  0.00  0.00    +0.009 C 
ATOM     13  C   UNL     1       6.212  -1.745 -10.389  0.00  0.00    -0.072 C 
ATOM     14  N   UNL     1       7.450  -2.312 -10.902  0.00  0.00    +0.386 N 
ATOM     15  C   UNL     1       8.414  -2.814  -9.936  0.00  0.00    -0.072 C 
ATOM     16  C   UNL     1       7.778  -3.651  -8.830  0.00  0.00    +0.009 C 
ATOM     17  C   UNL     1       9.399  -3.733 -10.697  0.00  0.00    -0.010 C 
ATOM     18  C   UNL     1       9.243  -1.682  -9.323  0.00  0.00    -0.010 C 
ATOM     19  C   UNL     1       6.407  -0.326  -9.855  0.00  0.00    -0.010 C 
ATOM     20  C   UNL     1       5.214  -1.659 -11.567  0.00  0.00    -0.010 C 
ATOM     21  H   UNL     1       7.212  -3.072 -11.544  0.00  0.00    -0.084 HD
ATOM     22  H   UNL     1       7.911  -1.606 -11.481  0.00  0.00    -0.084 HD
ENDBRANCH   9  11
BRANCH   1  24
ATOM     23  N   UNL     1       1.841  -2.239  -2.452  0.00  0.00    -0.315 N 
ATOM     24  C   UNL     1       2.084  -3.556  -2.607  0.00  0.00    +0.218 C 
ATOM     25  O   UNL     1       1.783  -4.336  -1.729  0.00  0.00    -0.275 OA
ATOM     26  H   UNL     1       2.082  -1.616  -3.155  0.00  0.00    +0.149 HD
BRANCH  23  27
ATOM     27  C   UNL     1       1.212  -1.750  -1.222  0.00  0.00    +0.104 C 
BRANCH  27  28
ATOM     28  C   UNL     1       1.050  -0.231  -1.302  0.00  0.00    +0.018 C 
BRANCH  28  30
ATOM     29  C   UNL     1       0.232   1.799  -0.097  0.00  0.00    +0.004 C 
ATOM     30  C   UNL     1       0.394   0.280  -0.018  0.00  0.00    -0.002 C 
ENDBRANCH  28  30
ENDBRANCH  27  28
ENDBRANCH  23  27
ENDBRANCH   1  24
TORSDOF 5
