REMARK  Name = ZINC64045229
REMARK  6 active torsions:
REMARK  status: ('A' for Active; 'I' for Inactive)
REMARK    1  A    between atoms: C_6  and  C_11
REMARK    2  A    between atoms: C_15  and  N_17
REMARK    3  A    between atoms: C_18  and  C_20
REMARK    4  A    between atoms: C_27  and  C_29
REMARK    5  A    between atoms: C_29  and  C_30
REMARK    6  A    between atoms: C_30  and  N_31
REMARK                            x       y       z     vdW  Elec       q    Type
REMARK                         _______ _______ _______ _____ _____    ______ ____
ROOT
ATOM      1  N   UNL     1       5.067  -6.028   2.120  0.00  0.00    -0.285 N 
ATOM      2  C   UNL     1       5.618  -6.627   3.194  0.00  0.00    +0.222 C 
ATOM      3  O   UNL     1       5.622  -6.062   4.268  0.00  0.00    -0.275 OA
ATOM      4  H   UNL     1       4.995  -6.509   1.280  0.00  0.00    +0.155 HD
ENDROOT
BRANCH   2   5
ATOM      5  C   UNL     1       6.229  -7.997   3.062  0.00  0.00    +0.093 C 
ATOM      6  C   UNL     1       6.778  -8.445   4.419  0.00  0.00    +0.016 C 
ATOM      7  C   UNL     1       7.428  -9.823   4.279  0.00  0.00    +0.020 C 
ATOM      8  C   UNL     1       6.373 -10.838   3.825  0.00  0.00    +0.108 C 
ATOM      9  N   UNL     1       5.738 -10.342   2.596  0.00  0.00    -0.301 N 
ATOM     10  C   UNL     1       5.161  -8.991   2.594  0.00  0.00    +0.120 C 
ATOM     11  C   UNL     1       5.687 -11.112   1.492  0.00  0.00    +0.217 C 
ATOM     12  O   UNL     1       5.160 -10.691   0.483  0.00  0.00    -0.276 OA
BRANCH  11  13
ATOM     13  C   UNL     1       6.284 -12.496   1.509  0.00  0.00    +0.113 C 
BRANCH  13  14
ATOM     14  C   UNL     1       6.092 -13.151   0.140  0.00  0.00    +0.124 C 
BRANCH  14  15
ATOM     15  N   UNL     1       6.673 -14.500   0.157  0.00  0.00    -0.187 NA
ATOM     16  C   UNL     1       6.464 -15.187  -1.146  0.00  0.00    +0.117 C 
ATOM     17  C   UNL     1       7.594 -16.250  -1.125  0.00  0.00    +0.048 C 
ATOM     18  C   UNL     1       8.739 -15.507  -0.403  0.00  0.00    +0.187 C 
ATOM     19  O   UNL     1       8.131 -14.443   0.343  0.00  0.00    -0.297 OA
ENDBRANCH  14  15
ENDBRANCH  13  14
ENDBRANCH  11  13
ENDBRANCH   2   5
BRANCH   1  24
ATOM     20  C   UNL     1       3.033  -3.014   1.573  0.00  0.00    -0.020 A 
ATOM     21  C   UNL     1       3.674  -2.112   2.403  0.00  0.00    +0.006 A 
ATOM     22  C   UNL     1       4.775  -2.507   3.139  0.00  0.00    +0.002 A 
ATOM     23  C   UNL     1       5.240  -3.804   3.047  0.00  0.00    +0.023 A 
ATOM     24  C   UNL     1       4.599  -4.713   2.215  0.00  0.00    +0.034 A 
ATOM     25  C   UNL     1       3.489  -4.314   1.481  0.00  0.00    +0.029 A 
BRANCH  20  31
ATOM     26  C   UNL     1      -1.059   0.839   2.000  0.00  0.00    +0.001 A 
ATOM     27  C   UNL     1      -0.189   1.536   1.150  0.00  0.00    +0.002 A 
ATOM     28  C   UNL     1       0.854   0.945   0.529  0.00  0.00    +0.026 A 
ATOM     29  C   UNL     1       1.112  -0.440   0.720  0.00  0.00    +0.043 A 
ATOM     30  N   UNL     1       2.042  -1.229   0.239  0.00  0.00    -0.374 N 
ATOM     31  C   UNL     1       1.832  -2.579   0.773  0.00  0.00    +0.133 C 
ATOM     32  C   UNL     1       0.615  -2.488   1.665  0.00  0.00    +0.012 C 
ATOM     33  C   UNL     1       0.208  -1.199   1.613  0.00  0.00    -0.004 A 
ATOM     34  C   UNL     1      -0.902  -0.480   2.250  0.00  0.00    +0.010 A 
ATOM     35  H   UNL     1       2.750  -0.964  -0.369  0.00  0.00    +0.161 HD
ENDBRANCH  20  31
ENDBRANCH   1  24
TORSDOF 6
