REMARK  Name = ZINC12031048
REMARK  7 active torsions:
REMARK  status: ('A' for Active; 'I' for Inactive)
REMARK    1  A    between atoms: C_4  and  C_7
REMARK    2  A    between atoms: C_8  and  C_18
REMARK    3  A    between atoms: N_10  and  C_12
REMARK    4  A    between atoms: C_18  and  N_65
REMARK    5  A    between atoms: C_25  and  C_29
REMARK    6  A    between atoms: C_29  and  C_31
REMARK    7  A    between atoms: C_29  and  O_37
REMARK                            x       y       z     vdW  Elec       q    Type
REMARK                         _______ _______ _______ _____ _____    ______ ____
ROOT
ATOM      1  C   UNL     1      -2.619   5.530   2.292  0.00  0.00    -0.036 C 
ATOM      2  C   UNL     1      -2.974   5.546   3.763  0.00  0.00    +0.210 C 
ATOM      3  O   UNL     1      -3.758   6.702   4.084  0.00  0.00    -0.494 OA
ATOM      4  C   UNL     1      -5.098   6.571   3.883  0.00  0.00    +0.122 A 
ATOM      5  C   UNL     1      -5.966   6.539   4.965  0.00  0.00    +0.046 A 
ATOM      6  C   UNL     1      -7.322   6.382   4.749  0.00  0.00    +0.010 A 
ATOM      7  C   UNL     1      -7.812   6.256   3.462  0.00  0.00    -0.014 A 
ATOM      8  C   UNL     1      -6.947   6.296   2.383  0.00  0.00    +0.011 A 
ATOM      9  C   UNL     1      -5.595   6.464   2.598  0.00  0.00    -0.022 A 
ATOM     10  C   UNL     1      -4.643   6.566   1.421  0.00  0.00    -0.039 C 
ATOM     11  N   UNL     1      -3.796   5.349   1.417  0.00  0.00    +0.387 N 
ATOM     12  H   UNL     1      -4.350   4.560   1.769  0.00  0.00    -0.081 HD
ENDROOT
BRANCH  11  13
ATOM     13  C   UNL     1      -3.357   5.048   0.045  0.00  0.00    -0.039 C 
BRANCH  13  15
ATOM     14  C   UNL     1      -3.407   2.449   0.032  0.00  0.00    +0.094 A 
ATOM     15  C   UNL     1      -2.723   3.680   0.035  0.00  0.00    -0.018 A 
ATOM     16  C   UNL     1      -1.397   3.419   0.027  0.00  0.00    +0.116 A 
ATOM     17  N   UNL     1      -1.239   2.070   0.019  0.00  0.00    -0.239 N 
ATOM     18  N   UNL     1      -2.511   1.484   0.016  0.00  0.00    -0.166 NA
BRANCH  14  22
ATOM     19  C   UNL     1      -7.628   1.937   0.050  0.00  0.00    +0.000 A 
ATOM     20  C   UNL     1      -6.829   1.049  -0.647  0.00  0.00    +0.001 A 
ATOM     21  C   UNL     1      -5.459   1.210  -0.657  0.00  0.00    +0.010 A 
ATOM     22  C   UNL     1      -4.880   2.271   0.037  0.00  0.00    +0.002 A 
ATOM     23  C   UNL     1      -5.689   3.160   0.742  0.00  0.00    +0.010 A 
ATOM     24  C   UNL     1      -7.059   2.992   0.740  0.00  0.00    +0.001 A 
ENDBRANCH  14  22
BRANCH  17  25
ATOM     25  C   UNL     1      -0.017   1.384   0.010  0.00  0.00    +0.065 A 
ATOM     26  C   UNL     1       1.178   2.092   0.002  0.00  0.00    +0.028 A 
ATOM     27  C   UNL     1       2.381   1.413  -0.013  0.00  0.00    +0.002 A 
ATOM     28  C   UNL     1       2.396   0.031  -0.021  0.00  0.00    +0.000 A 
ATOM     29  C   UNL     1       1.208  -0.677  -0.013  0.00  0.00    +0.002 A 
ATOM     30  C   UNL     1       0.002  -0.004   0.002  0.00  0.00    +0.028 A 
ENDBRANCH  17  25
ENDBRANCH  13  15
ENDBRANCH  11  13
BRANCH   7  31
ATOM     31  C   UNL     1      -9.291   6.073   3.235  0.00  0.00    +0.176 C 
BRANCH  31  32
ATOM     32  C   UNL     1      -9.965   7.420   3.205  0.00  0.00    +0.003 A 
ATOM     33  C   UNL     1     -10.286   8.018   1.996  0.00  0.00    +0.009 A 
ATOM     34  C   UNL     1     -10.909   9.256   2.017  0.00  0.00    +0.020 A 
ATOM     35  C   UNL     1     -11.179   9.854   3.233  0.00  0.00    +0.111 A 
ATOM     36  N   UNL     1     -10.855   9.258   4.364  0.00  0.00    -0.263 NA
ATOM     37  C   UNL     1     -10.266   8.078   4.383  0.00  0.00    +0.117 A 
ENDBRANCH  31  32
BRANCH  31  38
ATOM     38  O   UNL     1      -9.842   5.288   4.295  0.00  0.00    -0.382 OA
ATOM     39  H   UNL     1      -9.735   5.680   5.172  0.00  0.00    +0.211 HD
ENDBRANCH  31  38
ENDBRANCH   7  31
TORSDOF 7
