REMARK  Name = ZINC01823776
REMARK  7 active torsions:
REMARK  status: ('A' for Active; 'I' for Inactive)
REMARK    1  A    between atoms: C_1  and  C_2
REMARK    2  A    between atoms: C_3  and  C_33
REMARK    3  A    between atoms: C_4  and  C_26
REMARK    4  A    between atoms: C_10  and  C_11
REMARK    5  A    between atoms: C_14  and  C_16
REMARK    6  A    between atoms: C_33  and  O_35
REMARK    7  A    between atoms: O_35  and  C_36
REMARK                            x       y       z     vdW  Elec       q    Type
REMARK                         _______ _______ _______ _____ _____    ______ ____
ROOT
ATOM      1  C   UNL     1      -0.202   1.542  -0.081  0.00  0.00    +0.066 C 
ATOM      2  C   UNL     1      -0.106   0.039  -0.045  0.00  0.00    +0.053 C 
ATOM      3  C   UNL     1      -1.247  -0.714  -0.024  0.00  0.00    +0.085 C 
ATOM      4  C   UNL     1      -1.109  -2.218   0.011  0.00  0.00    +0.163 C 
ATOM      5  N   UNL     1       0.274  -2.772   0.020  0.00  0.00    -0.275 N 
ATOM      6  C   UNL     1       0.612  -4.067   0.050  0.00  0.00    +0.268 A 
ATOM      7  O   UNL     1      -0.250  -4.927   0.072  0.00  0.00    -0.266 OA
ATOM      8  C   UNL     1       1.987  -4.427   0.054  0.00  0.00    +0.084 A 
ATOM      9  C   UNL     1       2.557  -5.668   0.081  0.00  0.00    +0.066 C 
ATOM     10  S   UNL     1       2.768  -2.821   0.014  0.00  0.00    -0.046 S 
ATOM     11  C   UNL     1       1.283  -1.836  -0.005  0.00  0.00    +0.178 A 
ATOM     12  N   UNL     1       1.087  -0.544  -0.040  0.00  0.00    -0.228 NA
ENDROOT
BRANCH   4  13
ATOM     13  C   UNL     1      -1.817  -2.720   1.243  0.00  0.00    -0.002 A 
ATOM     14  C   UNL     1      -3.025  -3.382   1.124  0.00  0.00    +0.007 A 
ATOM     15  C   UNL     1      -3.674  -3.843   2.254  0.00  0.00    +0.000 A 
ATOM     16  C   UNL     1      -3.117  -3.642   3.503  0.00  0.00    +0.001 A 
ATOM     17  C   UNL     1      -1.909  -2.981   3.623  0.00  0.00    +0.020 A 
ATOM     18  C   UNL     1      -1.256  -2.524   2.492  0.00  0.00    +0.046 A 
ATOM     19 CL   UNL     1       0.264  -1.699   2.641  0.00  0.00    -0.083 Cl
ENDBRANCH   4  13
BRANCH   9  20
ATOM     20  C   UNL     1       3.962  -5.799   0.080  0.00  0.00    +0.130 A 
ATOM     21  C   UNL     1       4.666  -6.990   0.100  0.00  0.00    +0.050 A 
ATOM     22  C   UNL     1       6.022  -6.658   0.089  0.00  0.00    +0.050 A 
ATOM     23  C   UNL     1       6.100  -5.284   0.064  0.00  0.00    +0.136 A 
ATOM     24  O   UNL     1       4.851  -4.784   0.053  0.00  0.00    -0.455 OA
BRANCH  23  25
ATOM     25  C   UNL     1       7.345  -4.491   0.046  0.00  0.00    +0.017 A 
ATOM     26  C   UNL     1       8.585  -5.134   0.049  0.00  0.00    +0.012 A 
ATOM     27  C   UNL     1       9.745  -4.388   0.032  0.00  0.00    +0.016 A 
ATOM     28  C   UNL     1       9.681  -3.004   0.012  0.00  0.00    +0.018 A 
ATOM     29  C   UNL     1       8.455  -2.361   0.009  0.00  0.00    +0.016 A 
ATOM     30  C   UNL     1       7.288  -3.095   0.020  0.00  0.00    +0.012 A 
ATOM     31 BR   UNL     1      11.276  -1.989  -0.010  0.00  0.00    -0.050 Br
ENDBRANCH  23  25
ENDBRANCH   9  20
BRANCH   3  32
ATOM     32  C   UNL     1      -2.513  -0.105  -0.035  0.00  0.00    +0.339 C 
ATOM     33  O   UNL     1      -2.607   1.107   0.043  0.00  0.00    -0.245 OA
BRANCH  32  34
ATOM     34  O   UNL     1      -3.626  -0.864  -0.130  0.00  0.00    -0.465 OA
ATOM     35  C   UNL     1      -4.880  -0.179  -0.135  0.00  0.00    +0.280 C 
ENDBRANCH  32  34
ENDBRANCH   3  32
TORSDOF 5
