REMARK  Name = ZINC35857123
REMARK  7 active torsions:
REMARK  status: ('A' for Active; 'I' for Inactive)
REMARK    1  A    between atoms: C_1  and  C_2
REMARK    2  A    between atoms: C_5  and  N_8
REMARK    3  A    between atoms: C_9  and  C_11
REMARK    4  A    between atoms: C_11  and  O_12
REMARK    5  A    between atoms: O_12  and  C_13
REMARK    6  A    between atoms: C_19  and  C_31
REMARK    7  A    between atoms: C_24  and  C_26
REMARK                            x       y       z     vdW  Elec       q    Type
REMARK                         _______ _______ _______ _____ _____    ______ ____
ROOT
ATOM      1  C   UNL     1      -0.565  -8.563   2.206  0.00  0.00    +0.122 A 
ATOM      2  C   UNL     1      -0.484  -9.496   1.181  0.00  0.00    +0.046 A 
ATOM      3  C   UNL     1      -0.113 -10.792   1.464  0.00  0.00    +0.007 A 
ATOM      4  C   UNL     1       0.186 -11.177   2.766  0.00  0.00    -0.040 A 
ATOM      5  C   UNL     1       0.116 -10.249   3.782  0.00  0.00    -0.016 A 
ATOM      6  C   UNL     1      -0.260  -8.944   3.502  0.00  0.00    +0.051 A 
ATOM      7  C   UNL     1       0.455 -10.592   5.211  0.00  0.00    +0.137 C 
ATOM      8  N   UNL     1       0.572 -12.046   5.357  0.00  0.00    -0.284 N 
ATOM      9  C   UNL     1       1.323 -12.771   4.318  0.00  0.00    +0.114 C 
ATOM     10  C   UNL     1       0.570 -12.615   2.998  0.00  0.00    +0.054 C 
ATOM     11  C   UNL     1       0.014 -12.694   6.399  0.00  0.00    +0.283 C 
ATOM     12  O   UNL     1       0.033 -13.910   6.440  0.00  0.00    -0.267 OA
ENDROOT
BRANCH   7  13
ATOM     13  C   UNL     1       1.764  -9.944   5.585  0.00  0.00    -0.022 A 
ATOM     14  C   UNL     1       2.890 -10.170   4.816  0.00  0.00    +0.008 A 
ATOM     15  C   UNL     1       4.091  -9.576   5.158  0.00  0.00    +0.038 A 
ATOM     16  C   UNL     1       4.165  -8.756   6.271  0.00  0.00    +0.123 A 
ATOM     17  C   UNL     1       3.036  -8.531   7.040  0.00  0.00    +0.038 A 
ATOM     18  C   UNL     1       1.835  -9.121   6.694  0.00  0.00    +0.008 A 
ATOM     19  F   UNL     1       5.338  -8.176   6.606  0.00  0.00    -0.205 F 
ENDBRANCH   7  13
BRANCH  11  20
ATOM     20  C   UNL     1      -0.616 -11.933   7.483  0.00  0.00    +0.189 A 
ATOM     21  C   UNL     1      -1.327 -12.458   8.524  0.00  0.00    +0.054 A 
ATOM     22  C   UNL     1      -1.742 -11.376   9.315  0.00  0.00    +0.042 A 
ATOM     23  C   UNL     1      -1.272 -10.252   8.730  0.00  0.00    +0.196 A 
ATOM     24  O   UNL     1      -0.590 -10.592   7.629  0.00  0.00    -0.458 OA
ENDBRANCH  11  20
BRANCH   1  25
ATOM     25  O   UNL     1      -0.935  -7.284   1.938  0.00  0.00    -0.483 OA
BRANCH  25  26
ATOM     26  C   UNL     1      -1.234  -6.966   0.578  0.00  0.00    +0.324 C 
BRANCH  26  28
ATOM     27  N   UNL     1      -1.949  -4.987  -0.722  0.00  0.00    -0.283 N 
ATOM     28  C   UNL     1      -1.623  -5.513   0.474  0.00  0.00    +0.255 C 
ATOM     29  O   UNL     1      -1.641  -4.819   1.468  0.00  0.00    -0.272 OA
ATOM     30  H   UNL     1      -2.009  -5.558  -1.504  0.00  0.00    +0.155 HD
BRANCH  27  35
ATOM     31  C   UNL     1      -2.977   0.573  -1.190  0.00  0.00    +0.044 C 
ATOM     32  C   UNL     1      -2.704  -0.904  -1.066  0.00  0.00    -0.050 A 
ATOM     33  C   UNL     1      -1.765  -1.358  -0.157  0.00  0.00    +0.005 A 
ATOM     34  C   UNL     1      -1.513  -2.711  -0.041  0.00  0.00    +0.023 A 
ATOM     35  C   UNL     1      -2.203  -3.615  -0.837  0.00  0.00    +0.034 A 
ATOM     36  C   UNL     1      -3.146  -3.156  -1.748  0.00  0.00    +0.023 A 
ATOM     37  C   UNL     1      -3.397  -1.802  -1.856  0.00  0.00    +0.005 A 
ENDBRANCH  27  35
ENDBRANCH  26  28
ENDBRANCH  25  26
ENDBRANCH   1  25
TORSDOF 6
