REMARK  Name = ZINC13661559
REMARK  2 active torsions:
REMARK  status: ('A' for Active; 'I' for Inactive)
REMARK    1  A    between atoms: C_5  and  C_7
REMARK    2  A    between atoms: C_13  and  C_15
REMARK                            x       y       z     vdW  Elec       q    Type
REMARK                         _______ _______ _______ _____ _____    ______ ____
ROOT
ATOM      1  C   UNL     1       5.110  -1.025  -0.358  0.00  0.00    +0.312 C 
ATOM      2  N   UNL     1       4.277   0.107   0.067  0.00  0.00    -0.205 N 
ATOM      3  C   UNL     1       4.871   1.442   0.299  0.00  0.00    +0.136 C 
ATOM      4  C   UNL     1       3.646   2.366   0.288  0.00  0.00    +0.090 C 
ATOM      5  C   UNL     1       2.474   1.408   0.341  0.00  0.00    +0.103 C 
ATOM      6  N   UNL     1       2.905   0.191   0.228  0.00  0.00    -0.181 NA
ATOM      7  C   UNL     1       5.783   1.711  -0.870  0.00  0.00    +0.018 A 
ATOM      8  C   UNL     1       6.215   3.003  -1.105  0.00  0.00    +0.024 A 
ATOM      9  C   UNL     1       7.064   3.274  -2.161  0.00  0.00    +0.018 A 
ATOM     10  C   UNL     1       7.486   2.244  -2.983  0.00  0.00    +0.019 A 
ATOM     11  C   UNL     1       7.054   0.956  -2.754  0.00  0.00    +0.047 A 
ATOM     12  C   UNL     1       6.188   0.675  -1.697  0.00  0.00    +0.129 A 
ATOM     13  O   UNL     1       5.769  -0.609  -1.560  0.00  0.00    -0.465 OA
ATOM     14 BR   UNL     1       7.648   5.044  -2.481  0.00  0.00    -0.050 Br
ENDROOT
BRANCH   1  19
ATOM     15  C   UNL     1       2.200  -3.175  -1.439  0.00  0.00    +0.001 A 
ATOM     16  C   UNL     1       2.663  -4.441  -1.133  0.00  0.00    +0.001 A 
ATOM     17  C   UNL     1       3.917  -4.603  -0.576  0.00  0.00    +0.020 A 
ATOM     18  C   UNL     1       4.713  -3.497  -0.330  0.00  0.00    +0.049 A 
ATOM     19  C   UNL     1       4.247  -2.230  -0.631  0.00  0.00    +0.031 A 
ATOM     20  C   UNL     1       2.992  -2.070  -1.188  0.00  0.00    +0.010 A 
ATOM     21 CL   UNL     1       6.292  -3.700   0.362  0.00  0.00    -0.083 Cl
ENDBRANCH   1  19
BRANCH   5  22
ATOM     22  C   UNL     1       1.067   1.797   0.491  0.00  0.00    +0.150 A 
ATOM     23  C   UNL     1       0.001   0.947   0.535  0.00  0.00    +0.051 A 
ATOM     24  C   UNL     1      -1.149   1.746   0.683  0.00  0.00    +0.042 A 
ATOM     25  C   UNL     1      -0.736   3.029   0.730  0.00  0.00    +0.196 A 
ATOM     26  O   UNL     1       0.602   3.056   0.611  0.00  0.00    -0.462 OA
ENDBRANCH   5  22
TORSDOF 2
