REMARK  Name = ZINC56661986
REMARK  7 active torsions:
REMARK  status: ('A' for Active; 'I' for Inactive)
REMARK    1  A    between atoms: C_1  and  C_2
REMARK    2  A    between atoms: C_7  and  N_8
REMARK    3  A    between atoms: N_11  and  C_12
REMARK    4  A    between atoms: C_12  and  C_14
REMARK    5  A    between atoms: C_12  and  C_15
REMARK    6  A    between atoms: C_15  and  C_16
REMARK    7  A    between atoms: C_19  and  O_22
REMARK                            x       y       z     vdW  Elec       q    Type
REMARK                         _______ _______ _______ _____ _____    ______ ____
ROOT
ATOM      1  N   UNL     1       0.025  -0.014   2.417  0.00  0.00    -0.269 N 
ATOM      2  C   UNL     1      -0.057  -0.694   3.578  0.00  0.00    +0.304 C 
ATOM      3  O   UNL     1      -0.040  -1.909   3.574  0.00  0.00    -0.253 OA
ATOM      4  N   UNL     1      -0.157  -0.025   4.744  0.00  0.00    -0.296 N 
ATOM      5  H   UNL     1       0.077   0.955   2.425  0.00  0.00    +0.156 HD
ATOM      6  H   UNL     1      -0.170   0.945   4.748  0.00  0.00    +0.151 HD
ENDROOT
BRANCH   1  13
ATOM      7  C   UNL     1      -1.265   1.183   0.181  0.00  0.00    +0.045 C 
ATOM      8  C   UNL     1      -0.584  -0.158   0.084  0.00  0.00    -0.029 A 
ATOM      9  C   UNL     1      -0.569  -0.841  -1.117  0.00  0.00    +0.006 A 
ATOM     10  C   UNL     1       0.055  -2.071  -1.207  0.00  0.00    +0.015 A 
ATOM     11  C   UNL     1       0.667  -2.622  -0.095  0.00  0.00    +0.020 A 
ATOM     12  C   UNL     1       0.656  -1.944   1.109  0.00  0.00    +0.039 A 
ATOM     13  C   UNL     1       0.034  -0.706   1.201  0.00  0.00    +0.039 A 
ATOM     14 BR   UNL     1       1.520  -4.305  -0.223  0.00  0.00    -0.050 Br
ENDBRANCH   1  13
BRANCH   4  15
ATOM     15  C   UNL     1      -0.245  -0.764   6.006  0.00  0.00    +0.076 C 
ATOM     16  C   UNL     1      -1.702  -1.149   6.271  0.00  0.00    +0.028 C 
BRANCH  15  17
ATOM     17  C   UNL     1       0.265   0.116   7.149  0.00  0.00    +0.057 C 
BRANCH  17  18
ATOM     18  C   UNL     1       1.733   0.394   6.952  0.00  0.00    -0.045 A 
ATOM     19  C   UNL     1       2.676  -0.462   7.491  0.00  0.00    +0.007 A 
ATOM     20  C   UNL     1       4.022  -0.209   7.312  0.00  0.00    +0.045 A 
ATOM     21  C   UNL     1       4.428   0.904   6.591  0.00  0.00    +0.117 A 
ATOM     22  C   UNL     1       3.480   1.761   6.051  0.00  0.00    +0.045 A 
ATOM     23  C   UNL     1       2.135   1.501   6.228  0.00  0.00    +0.007 A 
BRANCH  21  24
ATOM     24  O   UNL     1       5.752   1.155   6.414  0.00  0.00    -0.507 OA
ATOM     25  H   UNL     1       6.126   0.750   5.620  0.00  0.00    +0.292 HD
ENDBRANCH  21  24
ENDBRANCH  17  18
ENDBRANCH  15  17
ENDBRANCH   4  15
TORSDOF 5
