REMARK  Name = ZINC43553274
REMARK  11 active torsions:
REMARK  status: ('A' for Active; 'I' for Inactive)
REMARK    1  A    between atoms: C_1  and  C_2
REMARK    2  A    between atoms: C_10  and  C_30
REMARK    3  A    between atoms: C_11  and  C_13
REMARK    4  A    between atoms: C_13  and  C_14
REMARK    5  A    between atoms: N_16  and  C_17
REMARK    6  A    between atoms: N_16  and  C_18
REMARK    7  A    between atoms: C_18  and  C_19
REMARK    8  A    between atoms: C_23  and  O_29
REMARK    9  A    between atoms: C_25  and  C_26
REMARK   10  A    between atoms: C_25  and  C_27
REMARK   11  A    between atoms: C_27  and  O_28
REMARK                            x       y       z     vdW  Elec       q    Type
REMARK                         _______ _______ _______ _____ _____    ______ ____
ROOT
ATOM      1  C   UNL     1       0.216   1.608  -0.433  0.00  0.00    +0.073 C 
ATOM      2  C   UNL     1       0.105   0.112  -0.288  0.00  0.00    +0.076 A 
ATOM      3  N   UNL     1      -0.980  -0.618  -0.201  0.00  0.00    -0.249 NA
ATOM      4  C   UNL     1      -0.928  -1.934  -0.070  0.00  0.00    +0.056 A 
ATOM      5  C   UNL     1       0.321  -2.467  -0.042  0.00  0.00    +0.013 A 
ATOM      6  S   UNL     1       1.343  -1.027  -0.196  0.00  0.00    -0.077 S 
ATOM      7  C   UNL     1       0.702  -3.897   0.083  0.00  0.00    +0.049 C 
ATOM      8  C   UNL     1      -0.522  -4.819   0.248  0.00  0.00    +0.011 C 
ATOM      9  C   UNL     1      -1.731  -4.251  -0.484  0.00  0.00    -0.020 C 
ATOM     10  C   UNL     1      -2.112  -2.870   0.062  0.00  0.00    +0.053 C 
ATOM     11  C   UNL     1      -1.437  -4.207  -1.978  0.00  0.00    +0.010 C 
ATOM     12  C   UNL     1      -1.207  -5.629  -2.489  0.00  0.00    +0.032 C 
ATOM     13  C   UNL     1      -0.062  -6.314  -1.765  0.00  0.00    +0.123 C 
ATOM     14  C   UNL     1      -0.109  -6.203  -0.250  0.00  0.00    +0.021 C 
ATOM     15  C   UNL     1      -0.992  -7.313   0.335  0.00  0.00    +0.016 C 
ATOM     16  C   UNL     1      -2.982  -5.112  -0.254  0.00  0.00    +0.012 C 
ENDROOT
BRANCH  13  17
ATOM     17  O   UNL     1       1.188  -5.818  -2.259  0.00  0.00    -0.391 OA
ATOM     18  H   UNL     1       1.323  -5.966  -3.204  0.00  0.00    +0.210 HD
ENDBRANCH  13  17
BRANCH  10  19
ATOM     19  C   UNL     1      -3.323  -2.313  -0.679  0.00  0.00    +0.106 C 
BRANCH  19  20
ATOM     20  C   UNL     1      -3.792  -1.052   0.001  0.00  0.00    +0.217 C 
ATOM     21  O   UNL     1      -3.211  -0.641   0.983  0.00  0.00    -0.276 OA
ATOM     22  N   UNL     1      -4.856  -0.382  -0.483  0.00  0.00    -0.293 N 
ATOM     23  C   UNL     1      -5.558  -0.878  -1.669  0.00  0.00    +0.133 C 
BRANCH  22  24
ATOM     24  C   UNL     1      -5.311   0.844   0.177  0.00  0.00    +0.196 C 
BRANCH  24  25
ATOM     25  C   UNL     1      -4.623   2.004  -0.412  0.00  0.00    -0.086 C 
ATOM     26  C   UNL     1      -4.074   2.929  -0.883  0.00  0.00    +0.005 C 
ENDBRANCH  24  25
ENDBRANCH  22  24
ENDBRANCH  19  20
ENDBRANCH  10  19
BRANCH  14  27
ATOM     27  C   UNL     1       1.320  -6.502   0.275  0.00  0.00    +0.165 C 
BRANCH  27  28
ATOM     28  O   UNL     1       1.733  -7.793  -0.177  0.00  0.00    -0.394 OA
ATOM     29  H   UNL     1       2.620  -8.047   0.115  0.00  0.00    +0.209 HD
ENDBRANCH  27  28
ENDBRANCH  14  27
TORSDOF 7
