REMARK  Name = ZINC36027417
REMARK  9 active torsions:
REMARK  status: ('A' for Active; 'I' for Inactive)
REMARK    1  A    between atoms: C_1  and  C_2
REMARK    2  A    between atoms: C_2  and  C_3
REMARK    3  A    between atoms: C_3  and  C_5
REMARK    4  A    between atoms: C_3  and  C_6
REMARK    5  A    between atoms: N_10  and  C_31
REMARK    6  A    between atoms: N_15  and  S_18
REMARK    7  A    between atoms: S_18  and  C_21
REMARK    8  A    between atoms: C_25  and  C_27
REMARK    9  A    between atoms: C_31  and  C_32
REMARK                            x       y       z     vdW  Elec       q    Type
REMARK                         _______ _______ _______ _____ _____    ______ ____
ROOT
ATOM      1  C   UNL     1       1.292  -2.327  -2.038  0.00  0.00    +0.022 C 
ATOM      2  C   UNL     1       1.790  -2.633  -0.642  0.00  0.00    +0.201 C 
ATOM      3  O   UNL     1       1.341  -2.174   0.387  0.00  0.00    -0.277 OA
ATOM      4  N   UNL     1       2.817  -3.503  -0.735  0.00  0.00    -0.309 N 
ATOM      5  C   UNL     1       3.058  -3.827  -2.143  0.00  0.00    +0.006 C 
ATOM      6  N   UNL     1       2.382  -2.777  -2.938  0.00  0.00    +0.401 N 
ATOM      7  C   UNL     1       4.556  -3.816  -2.440  0.00  0.00    +0.023 C 
ATOM      8  C   UNL     1       5.252  -4.881  -1.586  0.00  0.00    +0.109 C 
ATOM      9  N   UNL     1       4.592  -6.174  -1.815  0.00  0.00    -0.177 NA
ATOM     10  C   UNL     1       3.138  -6.269  -1.628  0.00  0.00    +0.109 C 
ATOM     11  C   UNL     1       2.460  -5.192  -2.482  0.00  0.00    +0.023 C 
ATOM     12  H   UNL     1       2.004  -3.161  -3.791  0.00  0.00    -0.082 HD
ATOM     13  H   UNL     1       3.016  -2.018  -3.137  0.00  0.00    -0.082 HD
ENDROOT
BRANCH   9  14
ATOM     14  S   UNL     1       5.471  -7.500  -2.275  0.00  0.00    +0.061 S 
ATOM     15  O   UNL     1       4.569  -8.376  -2.937  0.00  0.00    -0.153 OA
ATOM     16  O   UNL     1       6.651  -7.009  -2.897  0.00  0.00    -0.153 OA
BRANCH  14  17
ATOM     17  C   UNL     1       5.983  -8.322  -0.803  0.00  0.00    +0.106 A 
ATOM     18  C   UNL     1       7.181  -7.984  -0.203  0.00  0.00    +0.028 A 
ATOM     19  C   UNL     1       7.582  -8.629   0.952  0.00  0.00    +0.002 A 
ATOM     20  C   UNL     1       6.785  -9.613   1.507  0.00  0.00    +0.012 A 
ATOM     21  C   UNL     1       5.586  -9.950   0.907  0.00  0.00    +0.057 A 
ATOM     22  C   UNL     1       5.183  -9.302  -0.245  0.00  0.00    +0.041 A 
BRANCH  21  23
ATOM     23  C   UNL     1       4.717 -11.022   1.512  0.00  0.00    +0.417 C 
ATOM     24  F   UNL     1       5.329 -11.524   2.666  0.00  0.00    -0.166 F 
ATOM     25  F   UNL     1       3.470 -10.480   1.845  0.00  0.00    -0.166 F 
ATOM     26  F   UNL     1       4.543 -12.058   0.588  0.00  0.00    -0.166 F 
ENDBRANCH  21  23
ENDBRANCH  14  17
ENDBRANCH   9  14
BRANCH   1  27
ATOM     27  C   UNL     1       1.053  -0.825  -2.201  0.00  0.00    -0.020 C 
ATOM     28  C   UNL     1       0.622  -0.530  -3.639  0.00  0.00    +0.006 C 
BRANCH  27  30
ATOM     29  C   UNL     1      -0.200   1.144  -1.310  0.00  0.00    +0.004 C 
ATOM     30  C   UNL     1      -0.047  -0.376  -1.236  0.00  0.00    -0.001 C 
ENDBRANCH  27  30
ENDBRANCH   1  27
BRANCH   4  31
ATOM     31  C   UNL     1       3.575  -4.041   0.398  0.00  0.00    +0.141 C 
BRANCH  31  32
ATOM     32  C   UNL     1       4.593  -3.026   0.849  0.00  0.00    -0.030 A 
ATOM     33  C   UNL     1       5.665  -2.713   0.034  0.00  0.00    +0.005 A 
ATOM     34  C   UNL     1       6.599  -1.782   0.447  0.00  0.00    +0.000 A 
ATOM     35  C   UNL     1       6.461  -1.162   1.675  0.00  0.00    +0.000 A 
ATOM     36  C   UNL     1       5.388  -1.474   2.490  0.00  0.00    +0.000 A 
ATOM     37  C   UNL     1       4.452  -2.402   2.074  0.00  0.00    +0.005 A 
ENDBRANCH  31  32
ENDBRANCH   4  31
TORSDOF 7
