REMARK  Name = ZINC44177545
REMARK  7 active torsions:
REMARK  status: ('A' for Active; 'I' for Inactive)
REMARK    1  A    between atoms: C_1  and  C_2
REMARK    2  A    between atoms: C_3  and  C_25
REMARK    3  A    between atoms: C_7  and  N_8
REMARK    4  A    between atoms: N_11  and  C_12
REMARK    5  A    between atoms: C_12  and  C_13
REMARK    6  A    between atoms: C_13  and  N_19
REMARK    7  A    between atoms: N_27  and  C_28
REMARK                            x       y       z     vdW  Elec       q    Type
REMARK                         _______ _______ _______ _____ _____    ______ ____
ROOT
ATOM      1  N   UNL     1      -1.715  -3.388   5.272  0.00  0.00    -0.269 N 
ATOM      2  C   UNL     1      -0.925  -2.388   4.834  0.00  0.00    +0.304 C 
ATOM      3  O   UNL     1      -0.248  -2.540   3.836  0.00  0.00    -0.253 OA
ATOM      4  N   UNL     1      -0.885  -1.219   5.504  0.00  0.00    -0.300 N 
ATOM      5  H   UNL     1      -2.202  -3.293   6.105  0.00  0.00    +0.156 HD
ATOM      6  H   UNL     1      -1.426  -1.097   6.300  0.00  0.00    +0.150 HD
ENDROOT
BRANCH   1  13
ATOM      7  C   UNL     1      -2.519  -5.760   6.619  0.00  0.00    +0.046 C 
ATOM      8  C   UNL     1      -2.222  -5.743   5.141  0.00  0.00    -0.017 A 
ATOM      9  C   UNL     1      -2.345  -6.912   4.390  0.00  0.00    +0.041 A 
ATOM     10  C   UNL     1      -2.068  -6.889   3.022  0.00  0.00    +0.013 A 
ATOM     11  C   UNL     1      -1.676  -5.712   2.417  0.00  0.00    +0.003 A 
ATOM     12  C   UNL     1      -1.555  -4.554   3.162  0.00  0.00    +0.023 A 
ATOM     13  C   UNL     1      -1.833  -4.565   4.523  0.00  0.00    +0.038 A 
BRANCH   9  14
ATOM     14  C   UNL     1      -2.765  -8.172   5.040  0.00  0.00    +0.244 C 
ATOM     15  O   UNL     1      -3.118  -8.167   6.204  0.00  0.00    -0.270 OA
ATOM     16  N   UNL     1      -2.756  -9.326   4.344  0.00  0.00    -0.314 N 
ATOM     17  C   UNL     1      -3.172 -10.574   4.989  0.00  0.00    +0.128 C 
ATOM     18  H   UNL     1      -2.474  -9.330   3.416  0.00  0.00    +0.149 HD
ENDBRANCH   9  14
ENDBRANCH   1  13
BRANCH   4  19
ATOM     19  C   UNL     1      -0.026  -0.132   5.028  0.00  0.00    +0.094 C 
BRANCH  19  20
ATOM     20  C   UNL     1      -0.074   1.029   6.024  0.00  0.00    -0.050 C 
ATOM     21  C   UNL     1       0.801   2.176   5.514  0.00  0.00    -0.010 C 
ATOM     22  C   UNL     1       2.244   1.689   5.365  0.00  0.00    -0.001 C 
ATOM     23  C   UNL     1       2.765   1.216   6.724  0.00  0.00    -0.000 C 
ATOM     24  C   UNL     1       1.891   0.070   7.234  0.00  0.00    -0.001 C 
ATOM     25  C   UNL     1       0.447   0.556   7.383  0.00  0.00    -0.010 C 
BRANCH  20  26
ATOM     26  N   UNL     1      -1.459   1.496   6.167  0.00  0.00    +0.384 N 
ATOM     27  C   UNL     1      -1.984   1.875   4.850  0.00  0.00    -0.078 C 
ATOM     28  C   UNL     1      -3.453   2.286   4.981  0.00  0.00    -0.019 C 
ATOM     29  C   UNL     1      -3.561   3.476   5.938  0.00  0.00    -0.004 C 
ATOM     30  C   UNL     1      -2.943   3.092   7.286  0.00  0.00    -0.019 C 
ATOM     31  C   UNL     1      -1.494   2.652   7.070  0.00  0.00    -0.078 C 
ATOM     32  H   UNL     1      -2.025   0.754   6.551  0.00  0.00    -0.081 HD
ENDBRANCH  20  26
ENDBRANCH  19  20
ENDBRANCH   4  19
TORSDOF 5
