REMARK  Name = ZINC03345285
REMARK  6 active torsions:
REMARK  status: ('A' for Active; 'I' for Inactive)
REMARK    1  A    between atoms: C_3  and  S_6
REMARK    2  A    between atoms: S_6  and  N_9
REMARK    3  A    between atoms: C_14  and  C_15
REMARK    4  A    between atoms: C_14  and  N_54
REMARK    5  A    between atoms: N_17  and  C_18
REMARK    6  A    between atoms: C_19  and  C_28
REMARK                            x       y       z     vdW  Elec       q    Type
REMARK                         _______ _______ _______ _____ _____    ______ ____
ROOT
ATOM      1  C   UNL     1      -1.216   2.728  -5.685  0.00  0.00    +0.019 C 
ENDROOT
BRANCH   1   7
ATOM      2  N   UNL     1      -1.799   3.183  -1.554  0.00  0.00    -0.180 NA
ATOM      3  C   UNL     1      -1.201   4.320  -2.270  0.00  0.00    +0.091 C 
ATOM      4  C   UNL     1      -0.624   3.803  -3.598  0.00  0.00    -0.061 C 
ATOM      5  C   UNL     1      -2.126   1.899  -3.600  0.00  0.00    -0.061 C 
ATOM      6  C   UNL     1      -2.759   2.334  -2.274  0.00  0.00    +0.091 C 
ATOM      7  N   UNL     1      -1.697   3.105  -4.340  0.00  0.00    +0.387 N 
ATOM      8  H   UNL     1      -2.499   3.738  -4.438  0.00  0.00    -0.081 HD
BRANCH   2   9
ATOM      9  S   UNL     1      -1.406   2.872   0.025  0.00  0.00    +0.067 S 
ATOM     10  O   UNL     1      -2.493   2.143   0.578  0.00  0.00    -0.152 OA
ATOM     11  O   UNL     1      -0.951   4.098   0.579  0.00  0.00    -0.152 OA
BRANCH   9  14
ATOM     12  C   UNL     1       2.220   1.048  -0.013  0.00  0.00    +0.010 A 
ATOM     13  C   UNL     1       1.300   2.079   0.001  0.00  0.00    +0.036 A 
ATOM     14  C   UNL     1      -0.022   1.781   0.012  0.00  0.00    +0.143 A 
ATOM     15  S   UNL     1       0.002  -0.004   0.002  0.00  0.00    -0.077 S 
ATOM     16  C   UNL     1       1.773  -0.232  -0.016  0.00  0.00    +0.047 A 
ENDBRANCH   9  14
ENDBRANCH   2   9
ENDBRANCH   1   7
BRANCH   1  17
ATOM     17  C   UNL     1      -0.994   3.982  -6.490  0.00  0.00    +0.201 C 
ATOM     18  O   UNL     1      -1.196   5.068  -5.989  0.00  0.00    -0.278 OA
ATOM     19  N   UNL     1      -0.571   3.897  -7.767  0.00  0.00    -0.281 N 
ATOM     20  H   UNL     1      -0.409   3.029  -8.168  0.00  0.00    +0.155 HD
BRANCH  19  21
ATOM     21  C   UNL     1      -0.366   5.052  -8.509  0.00  0.00    +0.090 A 
ATOM     22  C   UNL     1       0.068   5.169  -9.819  0.00  0.00    +0.084 A 
ATOM     23  C   UNL     1       0.196   6.508 -10.375  0.00  0.00    -0.018 A 
ATOM     24  C   UNL     1      -0.115   7.510  -9.523  0.00  0.00    -0.004 A 
ATOM     25  S   UNL     1      -0.584   6.699  -8.018  0.00  0.00    -0.077 S 
ATOM     26  C   UNL     1      -0.060   8.983  -9.783  0.00  0.00    +0.043 C 
ATOM     27  C   UNL     1      -0.769   9.289 -11.109  0.00  0.00    +0.005 C 
ATOM     28  C   UNL     1       0.255   9.200 -12.236  0.00  0.00    +0.001 C 
ATOM     29  C   UNL     1       1.300   8.134 -11.914  0.00  0.00    +0.005 C 
ATOM     30  C   UNL     1       0.645   6.761 -11.808  0.00  0.00    +0.037 C 
BRANCH  22  31
ATOM     31  C   UNL     1       0.376   4.010 -10.602  0.00  0.00    +0.102 C 
ATOM     32  N   UNL     1       0.620   3.091 -11.223  0.00  0.00    -0.191 NA
ENDBRANCH  22  31
ENDBRANCH  19  21
ENDBRANCH   1  17
TORSDOF 6
