REMARK  Name = ZINC03227077
REMARK  8 active torsions:
REMARK  status: ('A' for Active; 'I' for Inactive)
REMARK    1  A    between atoms: C_1  and  C_2
REMARK    2  A    between atoms: C_5  and  S_8
REMARK    3  A    between atoms: S_8  and  N_11
REMARK    4  A    between atoms: N_11  and  C_12
REMARK    5  A    between atoms: C_24  and  S_26
REMARK    6  A    between atoms: S_26  and  C_27
REMARK    7  A    between atoms: C_32  and  C_37
REMARK    8  A    between atoms: C_34  and  C_36
REMARK                            x       y       z     vdW  Elec       q    Type
REMARK                         _______ _______ _______ _____ _____    ______ ____
ROOT
ATOM      1  C   UNL     1      -0.018   1.505   0.010  0.00  0.00    +0.125 C 
ATOM      2  C   UNL     1       0.002  -0.004   0.002  0.00  0.00    -0.019 A 
ATOM      3  C   UNL     1      -0.954  -0.974   0.006  0.00  0.00    +0.006 A 
ATOM      4  C   UNL     1      -0.591  -2.322  -0.005  0.00  0.00    +0.001 A 
ATOM      5  C   UNL     1       0.713  -2.727  -0.020  0.00  0.00    +0.008 A 
ATOM      6  C   UNL     1       1.724  -1.753  -0.024  0.00  0.00    -0.017 A 
ATOM      7  C   UNL     1       1.335  -0.402  -0.013  0.00  0.00    -0.009 A 
ATOM      8  C   UNL     1       2.252   0.645  -0.016  0.00  0.00    -0.024 A 
ATOM      9  C   UNL     1       3.576   0.333  -0.030  0.00  0.00    +0.005 A 
ATOM     10  C   UNL     1       3.987  -1.002  -0.041  0.00  0.00    +0.001 A 
ATOM     11  C   UNL     1       3.100  -2.039  -0.038  0.00  0.00    +0.008 A 
ATOM     12  C   UNL     1       1.465   1.933  -0.002  0.00  0.00    +0.108 C 
ENDROOT
BRANCH   1  13
ATOM     13  N   UNL     1      -0.702   2.010  -1.183  0.00  0.00    -0.181 NA
ATOM     14  H   UNL     1      -0.217   2.101  -2.018  0.00  0.00    +0.149 HD
BRANCH  13  15
ATOM     15  S   UNL     1      -2.303   2.426  -1.106  0.00  0.00    +0.059 S 
ATOM     16  O   UNL     1      -2.663   2.898  -2.397  0.00  0.00    -0.153 OA
ATOM     17  O   UNL     1      -2.974   1.343  -0.477  0.00  0.00    -0.153 OA
BRANCH  15  22
ATOM     18  C   UNL     1      -2.744   7.139   2.636  0.00  0.00    +0.044 C 
ATOM     19  C   UNL     1      -2.634   5.962   1.701  0.00  0.00    -0.050 A 
ATOM     20  C   UNL     1      -2.434   6.169   0.349  0.00  0.00    +0.005 A 
ATOM     21  C   UNL     1      -2.333   5.089  -0.508  0.00  0.00    +0.029 A 
ATOM     22  C   UNL     1      -2.432   3.802  -0.013  0.00  0.00    +0.105 A 
ATOM     23  C   UNL     1      -2.638   3.595   1.338  0.00  0.00    +0.029 A 
ATOM     24  C   UNL     1      -2.734   4.675   2.196  0.00  0.00    +0.005 A 
ENDBRANCH  15  22
ENDBRANCH  13  15
ENDBRANCH   1  13
BRANCH  12  25
ATOM     25  S   UNL     1       1.855   2.891   1.489  0.00  0.00    -0.076 S 
BRANCH  25  26
ATOM     26  C   UNL     1       3.519   3.412   1.237  0.00  0.00    +0.198 A 
ATOM     27  N   UNL     1       4.270   3.146   0.193  0.00  0.00    -0.120 NA
ATOM     28  N   UNL     1       5.432   3.680   0.330  0.00  0.00    -0.108 NA
ATOM     29  C   UNL     1       5.495   4.325   1.480  0.00  0.00    +0.257 A 
ATOM     30  N   UNL     1       4.266   4.173   2.087  0.00  0.00    -0.259 N 
ATOM     31  C   UNL     1       4.034   4.734   3.311  0.00  0.00    +0.028 A 
ATOM     32  C   UNL     1       5.021   5.445   3.905  0.00  0.00    +0.044 A 
ATOM     33  C   UNL     1       6.259   5.584   3.255  0.00  0.00    +0.044 A 
ATOM     34  N   UNL     1       6.462   5.032   2.083  0.00  0.00    -0.216 NA
ATOM     35  C   UNL     1       7.363   6.374   3.910  0.00  0.00    +0.066 C 
ATOM     36  C   UNL     1       2.697   4.570   3.987  0.00  0.00    +0.064 C 
ENDBRANCH  25  26
ENDBRANCH  12  25
TORSDOF 5
