REMARK  Name = ZINC19506958
REMARK  3 active torsions:
REMARK  status: ('A' for Active; 'I' for Inactive)
REMARK    1  A    between atoms: C_1  and  C_2
REMARK    2  A    between atoms: C_14  and  C_19
REMARK    3  A    between atoms: N_20  and  O_21
REMARK                            x       y       z     vdW  Elec       q    Type
REMARK                         _______ _______ _______ _____ _____    ______ ____
ROOT
ATOM      1  C   UNL     1       5.720  -0.239   1.026  0.00  0.00    +0.028 C 
ATOM      2  C   UNL     1       5.264   0.401  -0.287  0.00  0.00    +0.078 C 
ATOM      3  C   UNL     1       4.861  -0.693  -1.285  0.00  0.00    +0.027 C 
ATOM      4  C   UNL     1       3.778  -1.565  -0.650  0.00  0.00    +0.039 C 
ATOM      5  C   UNL     1       2.660  -0.711  -0.114  0.00  0.00    -0.026 A 
ATOM      6  C   UNL     1       1.420  -1.288   0.103  0.00  0.00    +0.005 A 
ATOM      7  C   UNL     1       0.375  -0.532   0.597  0.00  0.00    +0.000 A 
ATOM      8  C   UNL     1       0.561   0.810   0.879  0.00  0.00    +0.002 A 
ATOM      9  C   UNL     1       1.793   1.393   0.665  0.00  0.00    +0.024 A 
ATOM     10  C   UNL     1       2.847   0.634   0.172  0.00  0.00    +0.039 A 
ATOM     11  N   UNL     1       4.087   1.246  -0.047  0.00  0.00    -0.282 N 
ATOM     12  C   UNL     1       4.203   2.628  -0.031  0.00  0.00    +0.136 A 
ATOM     13  C   UNL     1       3.925   3.365  -1.193  0.00  0.00    +0.058 A 
ATOM     14  C   UNL     1       4.054   4.755  -1.156  0.00  0.00    +0.016 A 
ATOM     15  C   UNL     1       4.442   5.349   0.034  0.00  0.00    +0.020 A 
ATOM     16  C   UNL     1       4.698   4.557   1.137  0.00  0.00    +0.113 A 
ATOM     17  N   UNL     1       4.575   3.244   1.079  0.00  0.00    -0.239 NA
ENDROOT
BRANCH  13  18
ATOM     18  C   UNL     1       3.509   2.681  -2.436  0.00  0.00    +0.166 C 
ATOM     19  N   UNL     1       3.303   1.395  -2.434  0.00  0.00    -0.071 NA
ATOM     20  N   UNL     1       3.337   3.408  -3.602  0.00  0.00    -0.340 N 
ATOM     21  H   UNL     1       3.027   2.899  -4.527  0.00  0.00    +0.144 HD
ATOM     22  H   UNL     1       3.510   4.494  -3.604  0.00  0.00    +0.144 HD
BRANCH  19  23
ATOM     23  O   UNL     1       2.803   0.756  -3.594  0.00  0.00    -0.408 OA
ATOM     24  H   UNL     1       2.629  -0.330  -3.593  0.00  0.00    +0.328 HD
ENDBRANCH  19  23
ENDBRANCH  13  18
TORSDOF 2
