REMARK  Name = ZINC12017571
REMARK  8 active torsions:
REMARK  status: ('A' for Active; 'I' for Inactive)
REMARK    1  A    between atoms: C_1  and  C_2
REMARK    2  A    between atoms: C_5  and  C_8
REMARK    3  A    between atoms: N_16  and  C_19
REMARK    4  A    between atoms: C_20  and  C_28
REMARK    5  A    between atoms: C_28  and  O_30
REMARK    6  A    between atoms: O_30  and  C_31
REMARK    7  A    between atoms: N_33  and  C_34
REMARK    8  A    between atoms: C_39  and  C_40
REMARK                            x       y       z     vdW  Elec       q    Type
REMARK                         _______ _______ _______ _____ _____    ______ ____
ROOT
ATOM      1  C   UNL     1       0.058  -4.355  -0.024  0.00  0.00    +0.157 C 
ATOM      2  C   UNL     1       1.473  -4.881   0.181  0.00  0.00    +0.145 C 
ATOM      3  C   UNL     1       1.088  -6.180   0.987  0.00  0.00    +0.249 C 
ATOM      4  C   UNL     1       2.294  -6.973   0.852  0.00  0.00    +0.259 C 
ATOM      5  O   UNL     1       2.760  -7.746   1.661  0.00  0.00    -0.272 OA
ATOM      6  N   UNL     1       2.797  -6.661  -0.384  0.00  0.00    -0.201 N 
ATOM      7  C   UNL     1       2.209  -5.545  -0.940  0.00  0.00    +0.235 C 
ATOM      8  O   UNL     1       2.267  -5.176  -2.093  0.00  0.00    -0.274 OA
ATOM      9  O   UNL     1       0.230  -5.704   1.938  0.00  0.00    -0.257 OA
ATOM     10  N   UNL     1      -0.677  -4.843   1.179  0.00  0.00    -0.243 N 
ENDROOT
BRANCH   6  11
ATOM     11  C   UNL     1       3.804  -7.386  -1.011  0.00  0.00    +0.096 A 
ATOM     12  C   UNL     1       3.668  -8.433  -1.908  0.00  0.00    +0.091 A 
ATOM     13  C   UNL     1       4.888  -9.029  -2.424  0.00  0.00    -0.021 A 
ATOM     14  C   UNL     1       6.021  -8.468  -1.948  0.00  0.00    -0.004 A 
ATOM     15  S   UNL     1       5.465  -7.189  -0.859  0.00  0.00    -0.077 S 
ATOM     16  C   UNL     1       7.428  -8.855  -2.284  0.00  0.00    +0.043 C 
ATOM     17  C   UNL     1       7.398 -10.233  -2.963  0.00  0.00    +0.005 C 
ATOM     18  C   UNL     1       6.324 -10.226  -4.053  0.00  0.00    +0.005 C 
ATOM     19  C   UNL     1       4.934 -10.182  -3.415  0.00  0.00    +0.037 C 
BRANCH  12  20
ATOM     20  C   UNL     1       2.348  -8.920  -2.319  0.00  0.00    +0.342 C 
ATOM     21  O   UNL     1       1.797  -8.437  -3.289  0.00  0.00    -0.245 OA
BRANCH  20  22
ATOM     22  O   UNL     1       1.745  -9.904  -1.621  0.00  0.00    -0.464 OA
ATOM     23  C   UNL     1       0.460 -10.330  -2.078  0.00  0.00    +0.280 C 
ENDBRANCH  20  22
ENDBRANCH  12  20
ENDBRANCH   6  11
BRANCH   1  28
ATOM     24  C   UNL     1       0.039   1.420  -0.214  0.00  0.00    +0.044 C 
ATOM     25  C   UNL     1       0.044  -0.086  -0.164  0.00  0.00    -0.050 A 
ATOM     26  C   UNL     1      -0.176  -0.816  -1.317  0.00  0.00    +0.004 A 
ATOM     27  C   UNL     1      -0.172  -2.197  -1.272  0.00  0.00    +0.006 A 
ATOM     28  C   UNL     1       0.054  -2.849  -0.074  0.00  0.00    -0.022 A 
ATOM     29  C   UNL     1       0.276  -2.119   1.079  0.00  0.00    +0.006 A 
ATOM     30  C   UNL     1       0.275  -0.737   1.033  0.00  0.00    +0.004 A 
ENDBRANCH   1  28
BRANCH  10  31
ATOM     31  C   UNL     1      -1.993  -4.523   1.522  0.00  0.00    +0.068 A 
ATOM     32  C   UNL     1      -2.267  -3.347   2.209  0.00  0.00    +0.028 A 
ATOM     33  C   UNL     1      -3.569  -3.034   2.547  0.00  0.00    +0.002 A 
ATOM     34  C   UNL     1      -4.599  -3.890   2.202  0.00  0.00    +0.000 A 
ATOM     35  C   UNL     1      -4.330  -5.061   1.519  0.00  0.00    +0.005 A 
ATOM     36  C   UNL     1      -3.030  -5.378   1.173  0.00  0.00    -0.025 A 
ATOM     37  C   UNL     1      -2.739  -6.651   0.422  0.00  0.00    +0.046 C 
ENDBRANCH  10  31
TORSDOF 5
