REMARK  Name = ZINC24842941
REMARK  6 active torsions:
REMARK  status: ('A' for Active; 'I' for Inactive)
REMARK    1  A    between atoms: N_9  and  C_12
REMARK    2  A    between atoms: C_12  and  C_13
REMARK    3  A    between atoms: C_13  and  C_14
REMARK    4  A    between atoms: C_14  and  O_15
REMARK    5  A    between atoms: O_15  and  C_16
REMARK    6  A    between atoms: C_16  and  C_18
REMARK                            x       y       z     vdW  Elec       q    Type
REMARK                         _______ _______ _______ _____ _____    ______ ____
ROOT
ATOM      1  C   UNL     1       4.752  -5.165  -1.515  0.00  0.00    +0.234 C 
ENDROOT
BRANCH   1   2
ATOM      2  C   UNL     1       3.959  -3.857  -1.501  0.00  0.00    +0.060 C 
BRANCH   2   3
ATOM      3  C   UNL     1       3.709  -3.428  -0.053  0.00  0.00    +0.120 C 
BRANCH   3  12
ATOM      4  C   UNL     1      -0.017   1.382   0.010  0.00  0.00    +0.001 A 
ATOM      5  C   UNL     1       1.165   2.099   0.002  0.00  0.00    +0.001 A 
ATOM      6  C   UNL     1       2.385   1.442  -0.013  0.00  0.00    +0.014 A 
ATOM      7  C   UNL     1       2.420   0.056  -0.021  0.00  0.00    +0.049 A 
ATOM      8  C   UNL     1       1.215  -0.675  -0.013  0.00  0.00    +0.049 A 
ATOM      9  C   UNL     1       0.002  -0.004   0.002  0.00  0.00    +0.014 A 
ATOM     10  C   UNL     1       1.606  -2.100  -0.025  0.00  0.00    +0.254 C 
ATOM     11  O   UNL     1       0.843  -3.045  -0.023  0.00  0.00    -0.270 OA
ATOM     12  N   UNL     1       2.949  -2.175  -0.039  0.00  0.00    -0.234 N 
ATOM     13  C   UNL     1       3.503  -0.949  -0.038  0.00  0.00    +0.254 C 
ATOM     14  O   UNL     1       4.693  -0.709  -0.049  0.00  0.00    -0.270 OA
ENDBRANCH   3  12
ENDBRANCH   2   3
ENDBRANCH   1   2
BRANCH   1  15
ATOM     15  O   UNL     1       4.986  -5.565  -2.867  0.00  0.00    -0.461 OA
BRANCH  15  16
ATOM     16  C   UNL     1       5.677  -6.707  -3.057  0.00  0.00    +0.346 C 
ATOM     17  O   UNL     1       6.071  -7.345  -2.100  0.00  0.00    -0.244 OA
BRANCH  16  18
ATOM     18  C   UNL     1       5.954  -7.179  -4.418  0.00  0.00    +0.097 A 
ATOM     19  C   UNL     1       6.624  -8.298  -4.808  0.00  0.00    +0.034 A 
ATOM     20  C   UNL     1       6.785  -8.578  -6.176  0.00  0.00    +0.025 A 
ATOM     21  C   UNL     1       7.447  -9.684  -6.775  0.00  0.00    +0.132 A 
ATOM     22  C   UNL     1       7.513  -9.803  -8.138  0.00  0.00    +0.039 A 
ATOM     23  C   UNL     1       6.940  -8.854  -8.977  0.00  0.00    +0.004 A 
ATOM     24  C   UNL     1       6.289  -7.767  -8.431  0.00  0.00    +0.016 A 
ATOM     25  C   UNL     1       6.214  -7.633  -7.061  0.00  0.00    +0.023 A 
ATOM     26  S   UNL     1       5.490  -6.433  -5.971  0.00  0.00    -0.082 S 
ATOM     27  F   UNL     1       8.016 -10.627  -5.992  0.00  0.00    -0.205 F 
ENDBRANCH  16  18
ENDBRANCH  15  16
ENDBRANCH   1  15
TORSDOF 6
