REMARK  Name = ZINC35912523
REMARK  10 active torsions:
REMARK  status: ('A' for Active; 'I' for Inactive)
REMARK    1  A    between atoms: C_1  and  C_2
REMARK    2  A    between atoms: C_2  and  C_3
REMARK    3  A    between atoms: C_6  and  N_9
REMARK    4  A    between atoms: C_10  and  C_16
REMARK    5  A    between atoms: C_19  and  N_22
REMARK    6  A    between atoms: N_22  and  S_23
REMARK    7  A    between atoms: S_23  and  C_26
REMARK    8  A    between atoms: C_27  and  C_34
REMARK    9  A    between atoms: C_29  and  C_33
REMARK   10  A    between atoms: C_31  and  C_32
REMARK                            x       y       z     vdW  Elec       q    Type
REMARK                         _______ _______ _______ _____ _____    ______ ____
ROOT
ATOM      1  C   UNL     1      -4.259  -2.322  -3.170  0.00  0.00    -0.017 A 
ATOM      2  C   UNL     1      -4.106  -1.306  -2.245  0.00  0.00    +0.008 A 
ATOM      3  C   UNL     1      -4.452  -0.011  -2.575  0.00  0.00    +0.025 A 
ATOM      4  C   UNL     1      -4.954   0.271  -3.839  0.00  0.00    +0.048 A 
ATOM      5  C   UNL     1      -5.107  -0.752  -4.766  0.00  0.00    +0.025 A 
ATOM      6  C   UNL     1      -4.754  -2.044  -4.431  0.00  0.00    +0.008 A 
ENDROOT
BRANCH   1   8
ATOM      7  N   UNL     1      -2.788  -3.752  -1.816  0.00  0.00    -0.254 N 
ATOM      8  C   UNL     1      -3.881  -3.735  -2.806  0.00  0.00    +0.170 C 
ATOM      9  S   UNL     1      -5.234  -4.563  -1.865  0.00  0.00    -0.124 S 
ATOM     10  C   UNL     1      -4.149  -5.378  -0.615  0.00  0.00    +0.167 C 
ATOM     11  C   UNL     1      -2.887  -4.541  -0.754  0.00  0.00    +0.231 C 
ATOM     12  O   UNL     1      -2.006  -4.590   0.078  0.00  0.00    -0.274 OA
BRANCH   7  16
ATOM     13  C   UNL     1       0.582  -1.362  -2.355  0.00  0.00    -0.048 A 
ATOM     14  C   UNL     1      -0.199  -1.208  -1.224  0.00  0.00    +0.005 A 
ATOM     15  C   UNL     1      -1.317  -1.999  -1.042  0.00  0.00    +0.024 A 
ATOM     16  C   UNL     1      -1.656  -2.949  -1.997  0.00  0.00    +0.038 A 
ATOM     17  C   UNL     1      -0.870  -3.100  -3.131  0.00  0.00    +0.024 A 
ATOM     18  C   UNL     1       0.244  -2.304  -3.309  0.00  0.00    +0.005 A 
BRANCH  13  20
ATOM     19  C   UNL     1       1.408   0.777  -3.299  0.00  0.00    +0.009 C 
ATOM     20  C   UNL     1       1.801  -0.498  -2.550  0.00  0.00    +0.032 C 
ENDBRANCH  13  20
ENDBRANCH   7  16
ENDBRANCH   1   8
BRANCH   4  21
ATOM     21  N   UNL     1      -5.306   1.580  -4.177  0.00  0.00    -0.216 N 
ATOM     22  H   UNL     1      -5.839   2.112  -3.565  0.00  0.00    +0.174 HD
BRANCH  21  23
ATOM     23  S   UNL     1      -4.812   2.224  -5.620  0.00  0.00    +0.073 S 
ATOM     24  O   UNL     1      -5.294   3.560  -5.655  0.00  0.00    -0.150 OA
ATOM     25  O   UNL     1      -3.433   1.908  -5.755  0.00  0.00    -0.150 OA
BRANCH  23  26
ATOM     26  C   UNL     1      -5.656   1.350  -6.896  0.00  0.00    +0.114 A 
ATOM     27  C   UNL     1      -7.019   1.513  -7.060  0.00  0.00    -0.023 A 
ATOM     28  C   UNL     1      -7.681   0.827  -8.062  0.00  0.00    +0.008 A 
ATOM     29  C   UNL     1      -6.981  -0.020  -8.899  0.00  0.00    -0.050 A 
ATOM     30  C   UNL     1      -5.617  -0.182  -8.735  0.00  0.00    +0.008 A 
ATOM     31  C   UNL     1      -4.954   0.506  -7.737  0.00  0.00    -0.023 A 
ATOM     32  C   UNL     1      -3.468   0.334  -7.562  0.00  0.00    +0.046 C 
ATOM     33  C   UNL     1      -7.703  -0.769  -9.990  0.00  0.00    +0.044 C 
ATOM     34  C   UNL     1      -7.783   2.437  -6.148  0.00  0.00    +0.046 C 
ENDBRANCH  23  26
ENDBRANCH  21  23
ENDBRANCH   4  21
TORSDOF 6
