REMARK  Name = ZINC08722326
REMARK  6 active torsions:
REMARK  status: ('A' for Active; 'I' for Inactive)
REMARK    1  A    between atoms: C_1  and  C_2
REMARK    2  A    between atoms: C_14  and  C_17
REMARK    3  A    between atoms: C_20  and  O_23
REMARK    4  A    between atoms: O_23  and  C_24
REMARK    5  A    between atoms: C_24  and  C_26
REMARK    6  A    between atoms: C_27  and  C_28
REMARK                            x       y       z     vdW  Elec       q    Type
REMARK                         _______ _______ _______ _____ _____    ______ ____
ROOT
ATOM      1  C   UNL     1      -3.984   1.692   8.436  0.00  0.00    +0.008 C 
ATOM      2  C   UNL     1      -3.995   1.231   6.977  0.00  0.00    -0.009 C 
ATOM      3  C   UNL     1      -2.665   0.548   6.644  0.00  0.00    +0.008 C 
ATOM      4  C   UNL     1      -2.759  -0.133   5.278  0.00  0.00    +0.037 C 
ATOM      5  C   UNL     1      -3.252   0.884   4.255  0.00  0.00    -0.023 A 
ATOM      6  C   UNL     1      -3.875   2.016   4.649  0.00  0.00    -0.004 A 
ATOM      7  S   UNL     1      -4.260   2.874   3.144  0.00  0.00    -0.078 S 
ATOM      8  C   UNL     1      -3.611   1.754   2.024  0.00  0.00    +0.080 A 
ATOM      9  C   UNL     1      -3.093   0.720   2.818  0.00  0.00    +0.068 A 
ATOM     10  C   UNL     1      -2.441  -0.415   2.126  0.00  0.00    +0.248 C 
ATOM     11  O   UNL     1      -2.068  -1.400   2.736  0.00  0.00    -0.270 OA
ATOM     12  N   UNL     1      -2.278  -0.313   0.790  0.00  0.00    -0.289 N 
ATOM     13  C   UNL     1      -2.482   0.926   0.047  0.00  0.00    +0.190 C 
ATOM     14  N   UNL     1      -3.546   1.746   0.654  0.00  0.00    -0.316 N 
ATOM     15  C   UNL     1      -4.172   2.444   6.052  0.00  0.00    +0.046 C 
ATOM     16  H   UNL     1      -2.011  -1.105   0.298  0.00  0.00    +0.151 HD
ATOM     17  H   UNL     1      -4.169   2.255   0.112  0.00  0.00    +0.149 HD
ENDROOT
BRANCH  13  18
ATOM     18  C   UNL     1      -1.197   1.713   0.037  0.00  0.00    -0.009 A 
ATOM     19  C   UNL     1       0.016   1.055   0.122  0.00  0.00    +0.010 A 
ATOM     20  C   UNL     1       1.196   1.773   0.108  0.00  0.00    +0.047 A 
ATOM     21  C   UNL     1       1.162   3.157   0.014  0.00  0.00    +0.132 A 
ATOM     22  C   UNL     1      -0.056   3.816  -0.066  0.00  0.00    +0.047 A 
ATOM     23  C   UNL     1      -1.233   3.092  -0.051  0.00  0.00    +0.010 A 
BRANCH  21  24
ATOM     24  O   UNL     1       2.322   3.867  -0.000  0.00  0.00    -0.423 OA
BRANCH  24  25
ATOM     25  C   UNL     1       3.114   3.765  -1.089  0.00  0.00    +0.337 C 
ATOM     26  O   UNL     1       2.734   3.138  -2.061  0.00  0.00    -0.245 OA
BRANCH  25  27
ATOM     27  C   UNL     1       4.383   4.385  -1.100  0.00  0.00    +0.095 C 
ATOM     28  C   UNL     1       5.179   4.283  -2.195  0.00  0.00    +0.053 C 
BRANCH  28  29
ATOM     29  C   UNL     1       6.450   4.905  -2.205  0.00  0.00    +0.128 A 
ATOM     30  C   UNL     1       7.358   4.882  -3.245  0.00  0.00    +0.049 A 
ATOM     31  C   UNL     1       8.470   5.623  -2.819  0.00  0.00    +0.042 A 
ATOM     32  C   UNL     1       8.206   6.059  -1.567  0.00  0.00    +0.195 A 
ATOM     33  O   UNL     1       6.989   5.630  -1.203  0.00  0.00    -0.464 OA
ENDBRANCH  28  29
ENDBRANCH  25  27
ENDBRANCH  24  25
ENDBRANCH  21  24
ENDBRANCH  13  18
TORSDOF 5
