REMARK  Name = ZINC22449189
REMARK  3 active torsions:
REMARK  status: ('A' for Active; 'I' for Inactive)
REMARK    1  A    between atoms: C_1  and  C_2
REMARK    2  A    between atoms: C_3  and  C_16
REMARK    3  A    between atoms: C_16  and  C_17
REMARK                            x       y       z     vdW  Elec       q    Type
REMARK                         _______ _______ _______ _____ _____    ______ ____
ROOT
ATOM      1  C   UNL     1       0.693   3.638  -1.139  0.00  0.00    +0.066 C 
ATOM      2  C   UNL     1      -0.398   2.806  -1.761  0.00  0.00    +0.050 A 
ATOM      3  C   UNL     1      -0.589   1.518  -1.353  0.00  0.00    +0.042 A 
ATOM      4  C   UNL     1      -1.609   0.759  -1.953  0.00  0.00    +0.256 A 
ATOM      5  O   UNL     1      -1.805  -0.397  -1.616  0.00  0.00    -0.267 OA
ATOM      6  N   UNL     1      -2.373   1.336  -2.905  0.00  0.00    -0.295 N 
ATOM      7  H   UNL     1      -3.183   0.765  -3.382  0.00  0.00    +0.172 HD
ATOM      8  C   UNL     1      -2.136   2.625  -3.271  0.00  0.00    +0.198 A 
ATOM      9  N   UNL     1      -1.174   3.328  -2.708  0.00  0.00    -0.221 NA
ATOM     10  N   UNL     1      -2.911   3.202  -4.241  0.00  0.00    -0.301 N 
ATOM     11  C   UNL     1      -2.979   2.351  -5.436  0.00  0.00    +0.108 C 
ATOM     12  C   UNL     1      -3.965   2.954  -6.439  0.00  0.00    +0.019 C 
ATOM     13  C   UNL     1      -3.502   4.363  -6.818  0.00  0.00    +0.003 C 
ATOM     14  C   UNL     1      -3.394   5.215  -5.551  0.00  0.00    +0.019 C 
ATOM     15  C   UNL     1      -2.424   4.546  -4.574  0.00  0.00    +0.108 C 
ENDROOT
BRANCH   3  16
ATOM     16  C   UNL     1       0.284   0.916  -0.282  0.00  0.00    +0.077 C 
BRANCH  16  17
ATOM     17  C   UNL     1       1.434   0.183  -0.924  0.00  0.00    -0.043 A 
ATOM     18  C   UNL     1       1.278  -1.132  -1.323  0.00  0.00    +0.005 A 
ATOM     19  C   UNL     1       2.330  -1.803  -1.916  0.00  0.00    +0.020 A 
ATOM     20  C   UNL     1       3.543  -1.163  -2.102  0.00  0.00    +0.041 A 
ATOM     21  C   UNL     1       3.700   0.151  -1.697  0.00  0.00    +0.020 A 
ATOM     22  C   UNL     1       2.645   0.823  -1.109  0.00  0.00    +0.005 A 
ATOM     23 CL   UNL     1       4.867  -2.008  -2.841  0.00  0.00    -0.084 Cl
ENDBRANCH  16  17
ENDBRANCH   3  16
TORSDOF 2
