REMARK  Name = ZINC52118930
REMARK  2 active torsions:
REMARK  status: ('A' for Active; 'I' for Inactive)
REMARK    1  A    between atoms: N_10  and  C_13
REMARK    2  A    between atoms: C_18  and  N_19
REMARK                            x       y       z     vdW  Elec       q    Type
REMARK                         _______ _______ _______ _____ _____    ______ ____
ROOT
ATOM      1  C   UNL     1       2.370   1.437   0.014  0.00  0.00    +0.005 A 
ATOM      2  C   UNL     1       1.127   2.057   0.003  0.00  0.00    +0.018 A 
ATOM      3  C   UNL     1      -0.015   1.282  -0.017  0.00  0.00    +0.084 A 
ATOM      4  N   UNL     1       0.061  -0.036  -0.024  0.00  0.00    -0.350 N 
ATOM      5  C   UNL     1       1.227  -0.664  -0.014  0.00  0.00    +0.099 A 
ATOM      6  C   UNL     1       2.418   0.054   0.005  0.00  0.00    +0.042 A 
ATOM      7  N   UNL     1       1.260  -2.054  -0.022  0.00  0.00    -0.314 N 
ATOM      8  C   UNL     1       2.538  -2.770  -0.142  0.00  0.00    +0.125 C 
ATOM      9  C   UNL     1       2.671  -3.737   1.041  0.00  0.00    +0.124 C 
ATOM     10  N   UNL     1       1.430  -4.516   1.153  0.00  0.00    -0.325 N 
ATOM     11  C   UNL     1       0.152  -3.799   1.273  0.00  0.00    +0.124 C 
ATOM     12  C   UNL     1       0.020  -2.833   0.096  0.00  0.00    +0.125 C 
ATOM     13  H   UNL     1      -0.757  -0.557  -0.038  0.00  0.00    +0.166 HD
ENDROOT
BRANCH  10  14
ATOM     14  C   UNL     1       1.464  -5.915   1.145  0.00  0.00    +0.053 A 
ATOM     15  C   UNL     1       1.585  -6.615   2.336  0.00  0.00    +0.063 A 
ATOM     16  C   UNL     1       1.618  -7.999   2.325  0.00  0.00    +0.125 A 
ATOM     17  C   UNL     1       1.530  -8.687   1.127  0.00  0.00    +0.040 A 
ATOM     18  C   UNL     1       1.409  -7.995  -0.064  0.00  0.00    +0.027 A 
ATOM     19  C   UNL     1       1.369  -6.610  -0.061  0.00  0.00    +0.046 A 
ATOM     20  F   UNL     1       1.736  -8.679   3.486  0.00  0.00    -0.205 F 
BRANCH  19  21
ATOM     21  N   UNL     1       1.241  -5.908  -1.267  0.00  0.00    -0.357 N 
ATOM     22  H   UNL     1       1.217  -4.938  -1.264  0.00  0.00    +0.142 HD
ATOM     23  H   UNL     1       1.175  -6.392  -2.105  0.00  0.00    +0.142 HD
ENDBRANCH  19  21
ENDBRANCH  10  14
TORSDOF 2
