REMARK  Name = ZINC40569510
REMARK  11 active torsions:
REMARK  status: ('A' for Active; 'I' for Inactive)
REMARK    1  A    between atoms: C_1  and  C_2
REMARK    2  A    between atoms: C_2  and  C_3
REMARK    3  A    between atoms: C_3  and  C_4
REMARK    4  A    between atoms: N_10  and  C_11
REMARK    5  A    between atoms: C_11  and  C_12
REMARK    6  A    between atoms: C_12  and  N_13
REMARK    7  A    between atoms: N_13  and  C_14
REMARK    8  A    between atoms: N_13  and  C_15
REMARK    9  A    between atoms: C_16  and  C_24
REMARK   10  A    between atoms: C_18  and  C_22
REMARK   11  A    between atoms: C_19  and  N_21
REMARK                            x       y       z     vdW  Elec       q    Type
REMARK                         _______ _______ _______ _____ _____    ______ ____
ROOT
ATOM      1  C   UNL     1       0.623  -2.007  -1.318  0.00  0.00    +0.025 A 
ATOM      2  C   UNL     1      -0.333  -2.585  -2.076  0.00  0.00    +0.068 A 
ATOM      3  C   UNL     1      -0.386  -3.991  -2.184  0.00  0.00    +0.141 A 
ATOM      4  C   UNL     1       0.547  -4.748  -1.508  0.00  0.00    +0.072 A 
ATOM      5  C   UNL     1       1.520  -4.104  -0.734  0.00  0.00    +0.259 A 
ATOM      6  O   UNL     1       2.353  -4.762  -0.130  0.00  0.00    -0.267 OA
ATOM      7  N   UNL     1       1.542  -2.760  -0.659  0.00  0.00    -0.314 N 
ATOM      8  C   UNL     1       0.529  -6.249  -1.597  0.00  0.00    +0.103 C 
ATOM      9  C   UNL     1      -0.795  -6.720  -2.131  0.00  0.00    +0.098 C 
ATOM     10  C   UNL     1      -1.640  -5.871  -2.762  0.00  0.00    +0.199 C 
ATOM     11  O   UNL     1      -1.340  -4.572  -2.941  0.00  0.00    -0.441 OA
ENDROOT
BRANCH   8  12
ATOM     12  C   UNL     1       1.629  -6.709  -2.519  0.00  0.00    -0.034 A 
ATOM     13  C   UNL     1       1.646  -6.290  -3.836  0.00  0.00    +0.004 A 
ATOM     14  C   UNL     1       2.655  -6.712  -4.682  0.00  0.00    +0.000 A 
ATOM     15  C   UNL     1       3.647  -7.551  -4.210  0.00  0.00    +0.000 A 
ATOM     16  C   UNL     1       3.630  -7.969  -2.893  0.00  0.00    +0.000 A 
ATOM     17  C   UNL     1       2.623  -7.544  -2.046  0.00  0.00    +0.004 A 
ENDBRANCH   8  12
BRANCH  10  18
ATOM     18  N   UNL     1      -2.837  -6.349  -3.233  0.00  0.00    -0.328 N 
ATOM     19  H   UNL     1      -3.067  -7.284  -3.112  0.00  0.00    +0.145 HD
ATOM     20  H   UNL     1      -3.453  -5.753  -3.687  0.00  0.00    +0.145 HD
ENDBRANCH  10  18
BRANCH   9  21
ATOM     21  C   UNL     1      -1.169  -8.093  -1.971  0.00  0.00    +0.101 C 
ATOM     22  N   UNL     1      -1.466  -9.182  -1.844  0.00  0.00    -0.191 NA
ENDBRANCH   9  21
BRANCH   1  23
ATOM     23  C   UNL     1       0.675  -0.505  -1.206  0.00  0.00    +0.053 C 
BRANCH  23  25
ATOM     24  C   UNL     1       1.569   1.584  -2.246  0.00  0.00    +0.004 C 
ATOM     25  C   UNL     1       1.609   0.055  -2.281  0.00  0.00    +0.003 C 
ENDBRANCH  23  25
ENDBRANCH   1  23
BRANCH   7  26
ATOM     26  C   UNL     1       2.569  -2.099   0.150  0.00  0.00    +0.106 C 
BRANCH  26  27
ATOM     27  C   UNL     1       2.092  -2.003   1.601  0.00  0.00    -0.058 C 
BRANCH  27  28
ATOM     28  N   UNL     1       3.169  -1.454   2.435  0.00  0.00    +0.377 N 
ATOM     29  C   UNL     1       3.448  -0.071   2.026  0.00  0.00    -0.097 C 
ATOM     30  C   UNL     1       2.755  -1.473   3.844  0.00  0.00    -0.097 C 
ATOM     31  H   UNL     1       4.002  -2.013   2.321  0.00  0.00    -0.083 HD
ENDBRANCH  27  28
ENDBRANCH  26  27
ENDBRANCH   7  26
TORSDOF 8
