REMARK  Name = ZINC19236996
REMARK  8 active torsions:
REMARK  status: ('A' for Active; 'I' for Inactive)
REMARK    1  A    between atoms: C_1  and  C_2
REMARK    2  A    between atoms: C_7  and  C_8
REMARK    3  A    between atoms: N_16  and  C_19
REMARK    4  A    between atoms: C_28  and  C_30
REMARK    5  A    between atoms: C_28  and  C_37
REMARK    6  A    between atoms: C_30  and  C_31
REMARK    7  A    between atoms: C_37  and  O_39
REMARK    8  A    between atoms: O_39  and  C_40
REMARK                            x       y       z     vdW  Elec       q    Type
REMARK                         _______ _______ _______ _____ _____    ______ ____
ROOT
ATOM      1  C   UNL     1       0.030   0.097   2.442  0.00  0.00    +0.098 C 
ATOM      2  C   UNL     1      -1.410   0.484   2.837  0.00  0.00    +0.111 C 
ATOM      3  C   UNL     1      -1.475   0.263   4.372  0.00  0.00    +0.121 C 
ATOM      4  C   UNL     1      -2.464  -0.871   4.520  0.00  0.00    +0.232 C 
ATOM      5  O   UNL     1      -2.812  -1.365   5.572  0.00  0.00    -0.274 OA
ATOM      6  N   UNL     1      -2.896  -1.245   3.310  0.00  0.00    -0.210 N 
ATOM      7  C   UNL     1      -2.371  -0.542   2.280  0.00  0.00    +0.232 C 
ATOM      8  O   UNL     1      -2.621  -0.702   1.104  0.00  0.00    -0.274 OA
ATOM      9  C   UNL     1      -0.063  -0.221   4.763  0.00  0.00    +0.133 C 
ATOM     10  N   UNL     1       0.482  -0.828   3.513  0.00  0.00    -0.293 NA
ATOM     11  H   UNL     1       0.119  -1.758   3.364  0.00  0.00    +0.124 HD
ENDROOT
BRANCH   6  12
ATOM     12  C   UNL     1      -3.825  -2.280   3.122  0.00  0.00    +0.048 A 
ATOM     13  C   UNL     1      -3.432  -3.462   2.511  0.00  0.00    +0.028 A 
ATOM     14  C   UNL     1      -4.346  -4.483   2.326  0.00  0.00    +0.051 A 
ATOM     15  C   UNL     1      -5.656  -4.328   2.749  0.00  0.00    +0.166 A 
ATOM     16  C   UNL     1      -6.053  -3.141   3.361  0.00  0.00    +0.168 A 
ATOM     17  C   UNL     1      -5.135  -2.122   3.551  0.00  0.00    +0.073 A 
ATOM     18  O   UNL     1      -7.377  -3.237   3.681  0.00  0.00    -0.453 OA
ATOM     19  C   UNL     1      -7.885  -4.330   2.892  0.00  0.00    +0.466 C 
ATOM     20  O   UNL     1      -6.732  -5.167   2.685  0.00  0.00    -0.453 OA
ENDBRANCH   6  12
BRANCH   1  27
ATOM     21  C   UNL     1       0.233   1.639   0.007  0.00  0.00    +0.044 C 
ATOM     22  C   UNL     1       0.137   0.137  -0.058  0.00  0.00    -0.046 A 
ATOM     23  C   UNL     1       0.151  -0.504  -1.283  0.00  0.00    +0.003 A 
ATOM     24  C   UNL     1       0.062  -1.882  -1.343  0.00  0.00    +0.000 A 
ATOM     25  C   UNL     1      -0.040  -2.620  -0.178  0.00  0.00    +0.000 A 
ATOM     26  C   UNL     1      -0.053  -1.979   1.046  0.00  0.00    +0.005 A 
ATOM     27  C   UNL     1       0.040  -0.601   1.107  0.00  0.00    -0.027 A 
ENDBRANCH   1  27
BRANCH   9  28
ATOM     28  C   UNL     1      -0.147  -1.267   5.844  0.00  0.00    +0.328 C 
ATOM     29  O   UNL     1      -0.092  -0.940   7.006  0.00  0.00    -0.249 OA
BRANCH  28  30
ATOM     30  O   UNL     1      -0.282  -2.561   5.516  0.00  0.00    -0.467 OA
ATOM     31  C   UNL     1      -0.356  -3.499   6.593  0.00  0.00    +0.280 C 
ENDBRANCH  28  30
ENDBRANCH   9  28
BRANCH   9  32
ATOM     32  C   UNL     1       0.795   0.959   5.225  0.00  0.00    +0.069 C 
BRANCH  32  33
ATOM     33  C   UNL     1       2.202   0.485   5.484  0.00  0.00    -0.045 A 
ATOM     34  C   UNL     1       2.557   0.026   6.739  0.00  0.00    +0.004 A 
ATOM     35  C   UNL     1       3.848  -0.409   6.976  0.00  0.00    +0.000 A 
ATOM     36  C   UNL     1       4.783  -0.385   5.959  0.00  0.00    +0.000 A 
ATOM     37  C   UNL     1       4.428   0.073   4.704  0.00  0.00    +0.000 A 
ATOM     38  C   UNL     1       3.136   0.503   4.465  0.00  0.00    +0.004 A 
ENDBRANCH  32  33
ENDBRANCH   9  32
TORSDOF 6
