REMARK  Name = ZINC23858578
REMARK  7 active torsions:
REMARK  status: ('A' for Active; 'I' for Inactive)
REMARK    1  A    between atoms: C_1  and  N_2
REMARK    2  A    between atoms: C_10  and  C_12
REMARK    3  A    between atoms: C_12  and  C_14
REMARK    4  A    between atoms: C_12  and  N_28
REMARK    5  A    between atoms: C_14  and  N_15
REMARK    6  A    between atoms: C_16  and  C_18
REMARK    7  A    between atoms: C_23  and  N_24
REMARK                            x       y       z     vdW  Elec       q    Type
REMARK                         _______ _______ _______ _____ _____    ______ ____
ROOT
ATOM      1  C   UNL     1      -0.667   1.016   2.241  0.00  0.00    -0.020 C 
ENDROOT
BRANCH   1  11
ATOM      2  C   UNL     1       5.547   0.077   2.891  0.00  0.00    +0.129 C 
ATOM      3  N   UNL     1       4.627  -1.010   2.533  0.00  0.00    -0.333 N 
ATOM      4  C   UNL     1       4.805  -2.163   3.418  0.00  0.00    +0.105 C 
ATOM      5  C   UNL     1       3.804  -3.252   3.014  0.00  0.00    +0.024 C 
ATOM      6  C   UNL     1       2.399  -2.749   3.355  0.00  0.00    +0.038 C 
ATOM      7  C   UNL     1       2.229  -1.337   2.855  0.00  0.00    -0.026 A 
ATOM      8  C   UNL     1       3.310  -0.555   2.485  0.00  0.00    +0.033 A 
ATOM      9  C   UNL     1       3.090   0.749   2.039  0.00  0.00    +0.023 A 
ATOM     10  C   UNL     1       1.810   1.252   1.956  0.00  0.00    +0.004 A 
ATOM     11  C   UNL     1       0.734   0.467   2.328  0.00  0.00    -0.059 A 
ATOM     12  C   UNL     1       0.945  -0.823   2.773  0.00  0.00    +0.007 A 
ENDBRANCH   1  11
BRANCH   1  13
ATOM     13  N   UNL     1      -0.700   2.366   2.821  0.00  0.00    +0.385 N 
ATOM     14  C   UNL     1      -2.086   2.899   2.849  0.00  0.00    -0.078 C 
ATOM     15  C   UNL     1      -2.014   4.018   3.918  0.00  0.00    -0.020 C 
ATOM     16  C   UNL     1      -1.058   3.423   4.977  0.00  0.00    -0.020 C 
ATOM     17  C   UNL     1      -0.245   2.350   4.228  0.00  0.00    -0.078 C 
ATOM     18  H   UNL     1      -0.039   2.979   2.190  0.00  0.00    -0.081 HD
ENDBRANCH   1  13
BRANCH   1  19
ATOM     19  C   UNL     1      -1.100   1.079   0.776  0.00  0.00    +0.094 C 
BRANCH  19  20
ATOM     20  N   UNL     1      -2.507   1.483   0.699  0.00  0.00    -0.313 N 
ATOM     21  C   UNL     1      -3.070   1.738  -0.498  0.00  0.00    +0.246 C 
ATOM     22  O   UNL     1      -2.412   1.635  -1.514  0.00  0.00    -0.270 OA
ATOM     23  H   UNL     1      -3.103   1.577   1.619  0.00  0.00    +0.149 HD
BRANCH  21  24
ATOM     24  C   UNL     1      -4.490   2.145  -0.575  0.00  0.00    +0.068 A 
ATOM     25  C   UNL     1      -5.212   2.394   0.593  0.00  0.00    +0.035 A 
ATOM     26  C   UNL     1      -6.535   2.778   0.514  0.00  0.00    +0.042 A 
ATOM     27  C   UNL     1      -7.149   2.908  -0.721  0.00  0.00    +0.022 A 
ATOM     28  C   UNL     1      -6.439   2.658  -1.882  0.00  0.00    +0.035 A 
ATOM     29  C   UNL     1      -5.114   2.277  -1.816  0.00  0.00    +0.138 A 
ATOM     30 CL   UNL     1      -7.434   3.095   1.965  0.00  0.00    -0.084 Cl
BRANCH  29  31
ATOM     31  N   UNL     1      -4.357   2.010  -3.059  0.00  0.00    +0.057 N 
ATOM     32  O   UNL     1      -4.372   2.821  -3.968  0.00  0.00    -0.126 OA
ATOM     33  O   UNL     1      -3.719   0.978  -3.174  0.00  0.00    -0.126 OA
ENDBRANCH  29  31
ENDBRANCH  21  24
ENDBRANCH  19  20
ENDBRANCH   1  19
TORSDOF 6
