REMARK  Name = ZINC39711528
REMARK  10 active torsions:
REMARK  status: ('A' for Active; 'I' for Inactive)
REMARK    1  A    between atoms: C_1  and  C_2
REMARK    2  A    between atoms: C_2  and  O_3
REMARK    3  A    between atoms: O_3  and  C_4
REMARK    4  A    between atoms: C_11  and  C_16
REMARK    5  A    between atoms: C_16  and  C_18
REMARK    6  A    between atoms: C_16  and  N_28
REMARK    7  A    between atoms: N_23  and  C_24
REMARK    8  A    between atoms: C_24  and  C_25
REMARK    9  A    between atoms: C_24  and  C_26
REMARK   10  A    between atoms: C_24  and  C_27
REMARK                            x       y       z     vdW  Elec       q    Type
REMARK                         _______ _______ _______ _____ _____    ______ ____
ROOT
ATOM      1  C   UNL     1      -5.056  -6.071  -1.796  0.00  0.00    +0.131 C 
ENDROOT
BRANCH   1   9
ATOM      2  C   UNL     1      -3.810  -0.756   0.275  0.00  0.00    +0.121 A 
ATOM      3  C   UNL     1      -2.483  -0.846  -0.163  0.00  0.00    +0.047 A 
ATOM      4  C   UNL     1      -1.930  -2.011  -0.587  0.00  0.00    +0.027 A 
ATOM      5  C   UNL     1      -2.686  -3.198  -0.604  0.00  0.00    +0.041 A 
ATOM      6  N   UNL     1      -2.131  -4.335  -1.023  0.00  0.00    -0.284 N 
ATOM      7  C   UNL     1      -2.782  -5.485  -1.065  0.00  0.00    +0.226 C 
ATOM      8  O   UNL     1      -2.221  -6.491  -1.457  0.00  0.00    -0.275 OA
ATOM      9  C   UNL     1      -4.227  -5.545  -0.623  0.00  0.00    +0.122 C 
ATOM     10  C   UNL     1      -4.864  -4.255  -0.145  0.00  0.00    -0.003 C 
ATOM     11  C   UNL     1      -4.086  -3.135  -0.149  0.00  0.00    -0.003 A 
ATOM     12  C   UNL     1      -4.621  -1.850   0.302  0.00  0.00    +0.055 A 
ATOM     13  H   UNL     1      -1.205  -4.318  -1.312  0.00  0.00    +0.155 HD
BRANCH   2  14
ATOM     14  O   UNL     1      -4.296   0.445   0.686  0.00  0.00    -0.492 OA
BRANCH  14  16
ATOM     15  C   UNL     1      -4.122   2.813   1.134  0.00  0.00    +0.048 C 
ATOM     16  C   UNL     1      -3.402   1.558   0.637  0.00  0.00    +0.225 C 
ENDBRANCH  14  16
ENDBRANCH   2  14
ENDBRANCH   1   9
BRANCH   1  17
ATOM     17  N   UNL     1      -6.455  -5.676  -1.621  0.00  0.00    -0.322 N 
ATOM     18  C   UNL     1      -7.197  -5.045  -2.721  0.00  0.00    +0.106 C 
ATOM     19  C   UNL     1      -7.976  -3.857  -2.141  0.00  0.00    +0.024 C 
ATOM     20  C   UNL     1      -8.994  -4.381  -1.129  0.00  0.00    +0.038 C 
ATOM     21  C   UNL     1      -8.325  -5.288  -0.130  0.00  0.00    -0.026 A 
ATOM     22  C   UNL     1      -7.110  -5.899  -0.404  0.00  0.00    +0.033 A 
ATOM     23  C   UNL     1      -6.524  -6.739   0.536  0.00  0.00    +0.023 A 
ATOM     24  C   UNL     1      -7.152  -6.970   1.743  0.00  0.00    +0.002 A 
ATOM     25  C   UNL     1      -8.364  -6.364   2.017  0.00  0.00    +0.000 A 
ATOM     26  C   UNL     1      -8.945  -5.518   1.086  0.00  0.00    +0.005 A 
ENDBRANCH   1  17
BRANCH   1  27
ATOM     27  C   UNL     1      -4.958  -7.597  -1.847  0.00  0.00    +0.239 C 
ATOM     28  N   UNL     1      -3.567  -8.014  -2.066  0.00  0.00    -0.148 NA
ATOM     29  N   UNL     1      -3.500  -8.642  -3.125  0.00  0.00    -0.069 NA
ATOM     30  N   UNL     1      -4.733  -8.755  -3.767  0.00  0.00    -0.179 N 
ATOM     31  N   UNL     1      -5.694  -8.122  -3.017  0.00  0.00    -0.179 NA
ATOM     32  H   UNL     1      -4.888  -9.210  -4.609  0.00  0.00    +0.191 HD
BRANCH  31  33
ATOM     33  C   UNL     1      -6.744  -9.061  -2.600  0.00  0.00    +0.035 C 
ATOM     34  C   UNL     1      -7.820  -8.307  -1.817  0.00  0.00    +0.029 C 
ATOM     35  C   UNL     1      -7.371  -9.706  -3.838  0.00  0.00    +0.029 C 
ATOM     36  C   UNL     1      -6.134 -10.147  -1.713  0.00  0.00    +0.029 C 
ENDBRANCH  31  33
ENDBRANCH   1  27
TORSDOF 6
