REMARK  Name = ZINC36605233
REMARK  19 active torsions:
REMARK  status: ('A' for Active; 'I' for Inactive)
REMARK    1  A    between atoms: C_1  and  C_2
REMARK    2  A    between atoms: C_2  and  C_3
REMARK    3  A    between atoms: C_2  and  C_4
REMARK    4  A    between atoms: C_2  and  C_5
REMARK    5  A    between atoms: C_5  and  C_6
REMARK    6  A    between atoms: C_6  and  C_7
REMARK    7  A    between atoms: C_6  and  C_8
REMARK    8  A    between atoms: C_6  and  N_9
REMARK    9  A    between atoms: C_10  and  C_12
REMARK   10  A    between atoms: C_12  and  C_14
REMARK   11  A    between atoms: C_12  and  N_23
REMARK   12  A    between atoms: C_15  and  O_22
REMARK   13  A    between atoms: C_17  and  O_21
REMARK   14  A    between atoms: C_19  and  O_20
REMARK   15  A    between atoms: N_23  and  C_24
REMARK   16  A    between atoms: C_30  and  C_32
REMARK   17  A    between atoms: C_32  and  C_34
REMARK   18  A    between atoms: C_32  and  O_40
REMARK   19  A    between atoms: O_40  and  C_41
REMARK                            x       y       z     vdW  Elec       q    Type
REMARK                         _______ _______ _______ _____ _____    ______ ____
ROOT
ATOM      1  C   UNL     1       5.002  -0.311  -4.909  0.00  0.00    +0.204 C 
ENDROOT
BRANCH   1   2
ATOM      2  C   UNL     1       5.257  -1.525  -5.764  0.00  0.00    +0.065 A 
ATOM      3  C   UNL     1       6.255  -2.423  -5.414  0.00  0.00    +0.129 A 
ATOM      4  C   UNL     1       6.489  -3.540  -6.201  0.00  0.00    +0.091 A 
ATOM      5  C   UNL     1       5.725  -3.761  -7.337  0.00  0.00    +0.124 A 
ATOM      6  C   UNL     1       4.726  -2.864  -7.686  0.00  0.00    +0.091 A 
ATOM      7  C   UNL     1       4.489  -1.749  -6.897  0.00  0.00    +0.129 A 
BRANCH   7   8
ATOM      8  O   UNL     1       3.507  -0.873  -7.236  0.00  0.00    -0.506 OA
ATOM      9  H   UNL     1       3.802  -0.158  -7.817  0.00  0.00    +0.292 HD
ENDBRANCH   7   8
BRANCH   5  10
ATOM     10  O   UNL     1       5.955  -4.855  -8.109  0.00  0.00    -0.507 OA
ATOM     11  H   UNL     1       5.441  -5.633  -7.852  0.00  0.00    +0.292 HD
ENDBRANCH   5  10
BRANCH   3  12
ATOM     12  O   UNL     1       7.004  -2.206  -4.301  0.00  0.00    -0.506 OA
ATOM     13  H   UNL     1       6.682  -2.668  -3.515  0.00  0.00    +0.292 HD
ENDBRANCH   3  12
ENDBRANCH   1   2
BRANCH   1  15
ATOM     14  N   UNL     1       3.157  -1.327  -3.612  0.00  0.00    -0.308 N 
ATOM     15  C   UNL     1       4.368  -0.736  -3.609  0.00  0.00    +0.239 C 
ATOM     16  O   UNL     1       4.948  -0.545  -2.561  0.00  0.00    -0.273 OA
ATOM     17  H   UNL     1       2.694  -1.480  -4.450  0.00  0.00    +0.149 HD
BRANCH  14  18
ATOM     18  C   UNL     1       2.541  -1.740  -2.349  0.00  0.00    +0.030 C 
ATOM     19  C   UNL     1       2.596  -0.581  -1.351  0.00  0.00    +0.031 C 
ATOM     20  C   UNL     1       3.300  -2.940  -1.779  0.00  0.00    +0.031 C 
BRANCH  18  21
ATOM     21  C   UNL     1       1.083  -2.131  -2.596  0.00  0.00    +0.031 C 
BRANCH  21  23
ATOM     22  C   UNL     1       0.821  -1.441  -4.984  0.00  0.00    +0.010 C 
ATOM     23  C   UNL     1       0.435  -1.114  -3.539  0.00  0.00    -0.036 C 
ATOM     24  C   UNL     1       0.924   0.292  -3.186  0.00  0.00    +0.010 C 
ATOM     25  C   UNL     1      -1.086  -1.178  -3.391  0.00  0.00    +0.010 C 
ENDBRANCH  21  23
ENDBRANCH  18  21
ENDBRANCH  14  18
ENDBRANCH   1  15
BRANCH   1  26
ATOM     26  N   UNL     1       6.271   0.367  -4.634  0.00  0.00    -0.253 N 
ATOM     27  C   UNL     1       7.129   0.625  -5.641  0.00  0.00    +0.254 C 
ATOM     28  O   UNL     1       6.792   0.433  -6.790  0.00  0.00    -0.272 OA
BRANCH  26  29
ATOM     29  C   UNL     1       6.593   0.748  -3.326  0.00  0.00    +0.038 A 
ATOM     30  C   UNL     1       5.988   1.860  -2.756  0.00  0.00    +0.023 A 
ATOM     31  C   UNL     1       6.307   2.233  -1.465  0.00  0.00    +0.002 A 
ATOM     32  C   UNL     1       7.227   1.499  -0.740  0.00  0.00    +0.000 A 
ATOM     33  C   UNL     1       7.832   0.391  -1.304  0.00  0.00    +0.002 A 
ATOM     34  C   UNL     1       7.513   0.010  -2.593  0.00  0.00    +0.023 A 
ENDBRANCH  26  29
BRANCH  27  35
ATOM     35  C   UNL     1       8.508   1.153  -5.339  0.00  0.00    +0.234 C 
BRANCH  35  36
ATOM     36  C   UNL     1       8.426   2.625  -5.026  0.00  0.00    -0.010 A 
ATOM     37  C   UNL     1       8.238   3.539  -6.046  0.00  0.00    +0.006 A 
ATOM     38  C   UNL     1       8.162   4.889  -5.759  0.00  0.00    +0.000 A 
ATOM     39  C   UNL     1       8.273   5.325  -4.452  0.00  0.00    +0.000 A 
ATOM     40  C   UNL     1       8.460   4.411  -3.432  0.00  0.00    +0.000 A 
ATOM     41  C   UNL     1       8.532   3.061  -3.719  0.00  0.00    +0.006 A 
ENDBRANCH  35  36
BRANCH  35  42
ATOM     42  O   UNL     1       9.353   0.954  -6.474  0.00  0.00    -0.366 OA
ATOM     43  C   UNL     1      10.044  -0.297  -6.473  0.00  0.00    +0.195 C 
ENDBRANCH  35  42
ENDBRANCH  27  35
ENDBRANCH   1  26
TORSDOF 13
