REMARK  Name = ZINC00906413
REMARK  8 active torsions:
REMARK  status: ('A' for Active; 'I' for Inactive)
REMARK    1  A    between atoms: C_4  and  C_7
REMARK    2  A    between atoms: C_7  and  N_8
REMARK    3  A    between atoms: C_9  and  C_11
REMARK    4  A    between atoms: C_11  and  C_13
REMARK    5  A    between atoms: C_11  and  N_18
REMARK    6  A    between atoms: N_18  and  C_19
REMARK    7  A    between atoms: C_28  and  C_30
REMARK    8  A    between atoms: C_30  and  N_31
REMARK                            x       y       z     vdW  Elec       q    Type
REMARK                         _______ _______ _______ _____ _____    ______ ____
ROOT
ATOM      1  N   UNL     1       6.390  -3.223   2.867  0.00  0.00    -0.253 N 
ATOM      2  C   UNL     1       6.195  -4.144   3.832  0.00  0.00    +0.242 C 
ATOM      3  O   UNL     1       5.255  -4.037   4.591  0.00  0.00    -0.273 OA
ENDROOT
BRANCH   1   4
ATOM      4  C   UNL     1       7.678  -2.997   2.364  0.00  0.00    +0.041 A 
ATOM      5  C   UNL     1       8.766  -3.651   2.925  0.00  0.00    +0.027 A 
ATOM      6  C   UNL     1      10.037  -3.429   2.430  0.00  0.00    +0.051 A 
ATOM      7  C   UNL     1      10.229  -2.554   1.373  0.00  0.00    +0.166 A 
ATOM      8  C   UNL     1       9.138  -1.897   0.807  0.00  0.00    +0.168 A 
ATOM      9  C   UNL     1       7.864  -2.124   1.301  0.00  0.00    +0.073 A 
ATOM     10  O   UNL     1       9.586  -1.101  -0.206  0.00  0.00    -0.453 OA
ATOM     11  C   UNL     1      11.003  -0.964   0.009  0.00  0.00    +0.466 C 
ATOM     12  O   UNL     1      11.360  -2.169   0.712  0.00  0.00    -0.453 OA
ENDBRANCH   1   4
BRANCH   1  13
ATOM     13  C   UNL     1       5.255  -2.458   2.345  0.00  0.00    +0.204 C 
BRANCH  13  14
ATOM     14  C   UNL     1       5.432  -1.000   2.685  0.00  0.00    +0.019 A 
ATOM     15  C   UNL     1       4.613  -0.182   3.389  0.00  0.00    +0.013 A 
ATOM     16  C   UNL     1       4.984   1.136   3.580  0.00  0.00    +0.008 A 
ATOM     17  C   UNL     1       6.156   1.571   3.057  0.00  0.00    +0.045 A 
ATOM     18  S   UNL     1       6.780   0.095   2.271  0.00  0.00    -0.099 S 
ENDBRANCH  13  14
BRANCH  13  20
ATOM     19  N   UNL     1       4.215  -2.001   0.147  0.00  0.00    -0.309 N 
ATOM     20  C   UNL     1       5.186  -2.619   0.848  0.00  0.00    +0.239 C 
ATOM     21  O   UNL     1       6.004  -3.306   0.274  0.00  0.00    -0.273 OA
ATOM     22  H   UNL     1       3.560  -1.452   0.606  0.00  0.00    +0.149 HD
BRANCH  19  23
ATOM     23  C   UNL     1       4.148  -2.159  -1.308  0.00  0.00    +0.139 C 
BRANCH  23  27
ATOM     24  C   UNL     1       0.840   0.072  -2.833  0.00  0.00    +0.000 A 
ATOM     25  C   UNL     1       2.082   0.667  -2.721  0.00  0.00    +0.000 A 
ATOM     26  C   UNL     1       3.152  -0.054  -2.228  0.00  0.00    +0.005 A 
ATOM     27  C   UNL     1       2.981  -1.371  -1.845  0.00  0.00    -0.030 A 
ATOM     28  C   UNL     1       1.738  -1.967  -1.956  0.00  0.00    +0.005 A 
ATOM     29  C   UNL     1       0.668  -1.246  -2.451  0.00  0.00    +0.000 A 
ENDBRANCH  23  27
ENDBRANCH  19  23
ENDBRANCH  13  20
ENDBRANCH   1  13
BRANCH   2  30
ATOM     30  C   UNL     1       7.144  -5.306   3.966  0.00  0.00    +0.242 C 
BRANCH  30  31
ATOM     31  N   UNL     1       6.379  -6.545   4.133  0.00  0.00    -0.235 N 
ATOM     32  C   UNL     1       5.960  -7.098   5.319  0.00  0.00    +0.090 A 
ATOM     33  C   UNL     1       6.089  -6.734   6.655  0.00  0.00    +0.029 A 
ATOM     34  C   UNL     1       5.543  -7.521   7.630  0.00  0.00    +0.002 A 
ATOM     35  C   UNL     1       4.859  -8.684   7.299  0.00  0.00    +0.002 A 
ATOM     36  C   UNL     1       4.718  -9.063   5.996  0.00  0.00    +0.032 A 
ATOM     37  C   UNL     1       5.268  -8.274   4.978  0.00  0.00    +0.113 A 
ATOM     38  N   UNL     1       5.293  -8.387   3.635  0.00  0.00    -0.129 NA
ATOM     39  N   UNL     1       5.925  -7.395   3.114  0.00  0.00    -0.064 NA
ENDBRANCH  30  31
ENDBRANCH   2  30
TORSDOF 8
