REMARK  Name = ZINC22990704
REMARK  7 active torsions:
REMARK  status: ('A' for Active; 'I' for Inactive)
REMARK    1  A    between atoms: C_4  and  C_7
REMARK    2  A    between atoms: C_7  and  N_8
REMARK    3  A    between atoms: N_16  and  C_17
REMARK    4  A    between atoms: C_17  and  C_19
REMARK    5  A    between atoms: C_22  and  C_24
REMARK    6  A    between atoms: C_24  and  O_25
REMARK    7  A    between atoms: O_25  and  C_26
REMARK                            x       y       z     vdW  Elec       q    Type
REMARK                         _______ _______ _______ _____ _____    ______ ____
ROOT
ATOM      1  N   UNL     1       2.859   4.194  -1.388  0.00  0.00    +0.386 N 
ATOM      2  C   UNL     1       3.982   5.141  -1.440  0.00  0.00    -0.072 C 
ATOM      3  C   UNL     1       4.635   5.116  -2.825  0.00  0.00    +0.035 C 
ATOM      4  C   UNL     1       3.542   5.313  -3.870  0.00  0.00    +0.024 A 
ATOM      5  C   UNL     1       2.243   5.107  -3.523  0.00  0.00    -0.004 A 
ATOM      6  S   UNL     1       1.379   5.454  -5.029  0.00  0.00    -0.059 S 
ATOM      7  C   UNL     1       2.776   5.838  -5.991  0.00  0.00    +0.164 A 
ATOM      8  N   UNL     1       3.759   5.681  -5.128  0.00  0.00    -0.339 N 
ATOM      9  N   UNL     1       2.839   6.215  -7.326  0.00  0.00    -0.151 NA
ATOM     10  C   UNL     1       1.722   4.690  -2.190  0.00  0.00    -0.033 C 
ATOM     11  H   UNL     1       4.786   5.864  -5.478  0.00  0.00    +0.167 HD
ATOM     12  H   UNL     1       3.198   3.240  -1.818  0.00  0.00    -0.081 HD
ENDROOT
BRANCH   9  13
ATOM     13  C   UNL     1       4.032   6.474  -7.898  0.00  0.00    +0.288 C 
ATOM     14  O   UNL     1       5.053   6.378  -7.244  0.00  0.00    -0.266 OA
BRANCH  13  15
ATOM     15  C   UNL     1       4.098   6.874  -9.313  0.00  0.00    +0.135 A 
ATOM     16  C   UNL     1       5.298   7.149  -9.919  0.00  0.00    +0.080 A 
ATOM     17  S   UNL     1       4.790   7.549 -11.529  0.00  0.00    -0.076 S 
ATOM     18  C   UNL     1       3.082   7.345 -11.308  0.00  0.00    +0.116 A 
ATOM     19  N   UNL     1       2.994   6.988 -10.053  0.00  0.00    -0.236 NA
BRANCH  18  20
ATOM     20  C   UNL     1       1.975   7.532 -12.312  0.00  0.00    +0.291 C 
BRANCH  20  21
ATOM     21  O   UNL     1       1.516   8.885 -12.269  0.00  0.00    -0.485 OA
BRANCH  21  22
ATOM     22  C   UNL     1       0.511   9.223 -13.120  0.00  0.00    +0.121 A 
ATOM     23  C   UNL     1      -0.018   8.274 -13.982  0.00  0.00    +0.048 A 
ATOM     24  C   UNL     1      -1.043   8.618 -14.842  0.00  0.00    +0.042 A 
ATOM     25  C   UNL     1      -1.534   9.912 -14.852  0.00  0.00    +0.124 A 
ATOM     26  C   UNL     1      -1.003  10.862 -13.996  0.00  0.00    +0.042 A 
ATOM     27  C   UNL     1       0.018  10.520 -13.131  0.00  0.00    +0.048 A 
ATOM     28  F   UNL     1      -2.533  10.248 -15.697  0.00  0.00    -0.205 F 
ENDBRANCH  21  22
ENDBRANCH  20  21
ENDBRANCH  18  20
ENDBRANCH  13  15
ENDBRANCH   9  13
BRANCH   1  29
ATOM     29  C   UNL     1       2.451   3.937  -0.001  0.00  0.00    -0.043 C 
BRANCH  29  33
ATOM     30  C   UNL     1      -1.219   1.751   0.017  0.00  0.00    +0.000 A 
ATOM     31  C   UNL     1      -0.013   1.076   0.008  0.00  0.00    +0.000 A 
ATOM     32  C   UNL     1       1.175   1.783   0.000  0.00  0.00    +0.002 A 
ATOM     33  C   UNL     1       1.156   3.165   0.008  0.00  0.00    -0.064 A 
ATOM     34  C   UNL     1      -0.050   3.840   0.023  0.00  0.00    +0.002 A 
ATOM     35  C   UNL     1      -1.238   3.133   0.030  0.00  0.00    +0.000 A 
ENDBRANCH  29  33
ENDBRANCH   1  29
TORSDOF 7
