REMARK  Name = ZINC47186860
REMARK  4 active torsions:
REMARK  status: ('A' for Active; 'I' for Inactive)
REMARK    1  A    between atoms: C_1  and  C_2
REMARK    2  A    between atoms: C_12  and  C_15
REMARK    3  A    between atoms: C_15  and  N_16
REMARK    4  A    between atoms: C_17  and  C_19
REMARK                            x       y       z     vdW  Elec       q    Type
REMARK                         _______ _______ _______ _____ _____    ______ ____
ROOT
ATOM      1  C   UNL     1      -4.185  -5.503  -3.188  0.00  0.00    +0.141 C 
ENDROOT
BRANCH   1  12
ATOM      2  C   UNL     1       0.024   1.508  -0.007  0.00  0.00    +0.039 C 
ATOM      3  C   UNL     1       0.027  -0.022  -0.001  0.00  0.00    +0.132 C 
ATOM      4  C   UNL     1      -1.417  -0.537   0.001  0.00  0.00    +0.137 C 
ATOM      5  N   UNL     1      -1.389  -1.995   0.196  0.00  0.00    -0.312 N 
ATOM      6  C   UNL     1      -0.598  -2.529   1.316  0.00  0.00    +0.134 C 
ATOM      7  C   UNL     1       0.806  -1.917   1.250  0.00  0.00    +0.179 C 
ATOM      8  O   UNL     1       0.698  -0.493   1.171  0.00  0.00    -0.374 OA
ATOM      9  C   UNL     1      -2.091  -2.844  -0.652  0.00  0.00    +0.099 A 
ATOM     10  C   UNL     1      -2.927  -2.308  -1.627  0.00  0.00    +0.042 A 
ATOM     11  C   UNL     1      -3.619  -3.164  -2.464  0.00  0.00    +0.010 A 
ATOM     12  C   UNL     1      -3.451  -4.533  -2.299  0.00  0.00    -0.014 A 
ATOM     13  C   UNL     1      -2.604  -4.995  -1.311  0.00  0.00    +0.089 A 
ATOM     14  N   UNL     1      -1.953  -4.155  -0.530  0.00  0.00    -0.349 N 
ATOM     15  H   UNL     1      -1.361  -4.507   0.154  0.00  0.00    +0.167 HD
ENDBRANCH   1  12
BRANCH   1  16
ATOM     16  N   UNL     1      -3.369  -5.796  -4.369  0.00  0.00    -0.311 N 
ATOM     17  C   UNL     1      -3.827  -6.645  -5.310  0.00  0.00    +0.219 C 
ATOM     18  O   UNL     1      -4.914  -7.167  -5.179  0.00  0.00    -0.275 OA
ATOM     19  H   UNL     1      -2.500  -5.378  -4.474  0.00  0.00    +0.149 HD
BRANCH  17  20
ATOM     20  C   UNL     1      -2.989  -6.946  -6.526  0.00  0.00    +0.048 C 
ATOM     21  C   UNL     1      -2.721  -5.651  -7.295  0.00  0.00    +0.019 C 
ATOM     22  C   UNL     1      -1.870  -5.957  -8.529  0.00  0.00    -0.009 C 
ATOM     23  C   UNL     1      -2.615  -6.941  -9.431  0.00  0.00    +0.007 C 
ATOM     24  C   UNL     1      -2.882  -8.237  -8.662  0.00  0.00    -0.009 C 
ATOM     25  C   UNL     1      -3.734  -7.931  -7.428  0.00  0.00    +0.019 C 
ATOM     26  C   UNL     1      -1.552  -8.853  -8.224  0.00  0.00    +0.007 C 
ATOM     27  C   UNL     1      -0.807  -7.868  -7.321  0.00  0.00    -0.009 C 
ATOM     28  C   UNL     1      -0.540  -6.573  -8.090  0.00  0.00    +0.007 C 
ATOM     29  C   UNL     1      -1.659  -7.562  -6.087  0.00  0.00    +0.019 C 
ENDBRANCH  17  20
ENDBRANCH   1  16
TORSDOF 3
