REMARK  Name = ZINC01357057
REMARK  7 active torsions:
REMARK  status: ('A' for Active; 'I' for Inactive)
REMARK    1  A    between atoms: C_4  and  N_7
REMARK    2  A    between atoms: N_7  and  C_8
REMARK    3  A    between atoms: C_8  and  C_10
REMARK    4  A    between atoms: C_8  and  C_15
REMARK    5  A    between atoms: N_17  and  C_18
REMARK    6  A    between atoms: C_18  and  C_19
REMARK    7  A    between atoms: C_28  and  C_30
REMARK                            x       y       z     vdW  Elec       q    Type
REMARK                         _______ _______ _______ _____ _____    ______ ____
ROOT
ATOM      1  C   UNL     1       3.653  -2.113  -0.162  0.00  0.00    +0.233 C 
ENDROOT
BRANCH   1   2
ATOM      2  C   UNL     1       4.615  -2.671  -1.179  0.00  0.00    +0.135 A 
ATOM      3  C   UNL     1       4.408  -3.758  -1.944  0.00  0.00    +0.047 A 
ATOM      4  C   UNL     1       5.560  -3.918  -2.748  0.00  0.00    +0.041 A 
ATOM      5  C   UNL     1       6.402  -2.920  -2.426  0.00  0.00    +0.195 A 
ATOM      6  O   UNL     1       5.822  -2.164  -1.479  0.00  0.00    -0.465 OA
ENDBRANCH   1   2
BRANCH   1   7
ATOM      7  C   UNL     1       4.074  -2.547   1.219  0.00  0.00    +0.242 C 
ATOM      8  O   UNL     1       4.351  -1.716   2.057  0.00  0.00    -0.273 OA
ATOM      9  N   UNL     1       4.143  -3.859   1.521  0.00  0.00    -0.309 N 
ATOM     10  H   UNL     1       3.922  -4.523   0.850  0.00  0.00    +0.149 HD
BRANCH   9  11
ATOM     11  C   UNL     1       4.553  -4.280   2.863  0.00  0.00    +0.139 C 
BRANCH  11  12
ATOM     12  C   UNL     1       4.548  -5.785   2.939  0.00  0.00    -0.027 A 
ATOM     13  C   UNL     1       3.400  -6.453   3.325  0.00  0.00    +0.009 A 
ATOM     14  C   UNL     1       3.390  -7.833   3.396  0.00  0.00    +0.050 A 
ATOM     15  C   UNL     1       4.533  -8.552   3.082  0.00  0.00    +0.166 A 
ATOM     16  C   UNL     1       5.689  -7.880   2.694  0.00  0.00    +0.167 A 
ATOM     17  C   UNL     1       5.689  -6.496   2.619  0.00  0.00    +0.054 A 
ATOM     18  O   UNL     1       6.665  -8.800   2.441  0.00  0.00    -0.453 OA
ATOM     19  C   UNL     1       6.218 -10.016   3.070  0.00  0.00    +0.466 C 
ATOM     20  O   UNL     1       4.784  -9.893   3.072  0.00  0.00    -0.453 OA
ENDBRANCH  11  12
ENDBRANCH   9  11
ENDBRANCH   1   7
BRANCH   1  21
ATOM     21  N   UNL     1       3.658  -0.650  -0.236  0.00  0.00    -0.247 N 
ATOM     22  C   UNL     1       4.786   0.035   0.038  0.00  0.00    +0.273 C 
ATOM     23  O   UNL     1       5.818  -0.563   0.273  0.00  0.00    -0.268 OA
BRANCH  21  27
ATOM     24  C   UNL     1       0.185   1.391  -1.296  0.00  0.00    +0.000 A 
ATOM     25  C   UNL     1       1.267   1.377  -2.157  0.00  0.00    +0.002 A 
ATOM     26  C   UNL     1       2.420   0.701  -1.809  0.00  0.00    +0.023 A 
ATOM     27  C   UNL     1       2.492   0.036  -0.592  0.00  0.00    +0.038 A 
ATOM     28  C   UNL     1       1.404   0.052   0.271  0.00  0.00    +0.023 A 
ATOM     29  C   UNL     1       0.254   0.730  -0.084  0.00  0.00    +0.002 A 
ENDBRANCH  21  27
BRANCH  22  30
ATOM     30  C   UNL     1       4.768   1.509   0.052  0.00  0.00    +0.157 A 
ATOM     31  C   UNL     1       5.910   2.274   0.210  0.00  0.00    +0.101 A 
ATOM     32  S   UNL     1       5.295   3.835   0.146  0.00  0.00    +0.029 S 
ATOM     33  N   UNL     1       3.727   3.502  -0.064  0.00  0.00    -0.110 NA
ATOM     34  N   UNL     1       3.655   2.218  -0.092  0.00  0.00    -0.136 NA
ENDBRANCH  22  30
ENDBRANCH   1  21
TORSDOF 7
