REMARK  Name = ZINC21992076
REMARK  12 active torsions:
REMARK  status: ('A' for Active; 'I' for Inactive)
REMARK    1  A    between atoms: C_1  and  C_2
REMARK    2  A    between atoms: C_3  and  C_36
REMARK    3  A    between atoms: C_4  and  C_27
REMARK    4  A    between atoms: C_6  and  C_10
REMARK    5  A    between atoms: C_7  and  C_9
REMARK    6  A    between atoms: C_10  and  O_12
REMARK    7  A    between atoms: O_12  and  C_13
REMARK    8  A    between atoms: N_18  and  C_20
REMARK    9  A    between atoms: C_20  and  C_21
REMARK   10  A    between atoms: C_31  and  N_33
REMARK   11  A    between atoms: C_36  and  O_38
REMARK   12  A    between atoms: O_38  and  C_39
REMARK                            x       y       z     vdW  Elec       q    Type
REMARK                         _______ _______ _______ _____ _____    ______ ____
ROOT
ATOM      1  C   UNL     1       0.120   1.481   0.368  0.00  0.00    +0.061 C 
ATOM      2  C   UNL     1       0.070  -0.013   0.177  0.00  0.00    +0.016 C 
ATOM      3  C   UNL     1      -1.120  -0.638   0.139  0.00  0.00    +0.065 C 
ATOM      4  C   UNL     1      -1.218  -2.124  -0.058  0.00  0.00    +0.096 C 
ATOM      5  C   UNL     1       0.108  -2.783   0.195  0.00  0.00    +0.065 C 
ATOM      6  C   UNL     1       1.248  -2.072   0.230  0.00  0.00    +0.016 C 
ATOM      7  N   UNL     1       1.235  -0.716   0.038  0.00  0.00    -0.321 N 
ATOM      8  C   UNL     1       2.557  -2.777   0.478  0.00  0.00    +0.061 C 
ATOM      9  H   UNL     1       2.055  -0.252  -0.194  0.00  0.00    +0.152 HD
ENDROOT
BRANCH   4  10
ATOM     10  C   UNL     1      -1.652  -2.410  -1.472  0.00  0.00    -0.033 A 
ATOM     11  C   UNL     1      -0.875  -1.985  -2.533  0.00  0.00    +0.005 A 
ATOM     12  C   UNL     1      -1.273  -2.247  -3.830  0.00  0.00    +0.003 A 
ATOM     13  C   UNL     1      -2.448  -2.935  -4.067  0.00  0.00    +0.033 A 
ATOM     14  C   UNL     1      -3.225  -3.361  -3.006  0.00  0.00    +0.126 A 
ATOM     15  C   UNL     1      -2.825  -3.103  -1.709  0.00  0.00    +0.037 A 
BRANCH  14  16
ATOM     16  N   UNL     1      -4.484  -4.097  -3.260  0.00  0.00    +0.056 N 
ATOM     17  O   UNL     1      -4.832  -4.326  -4.395  0.00  0.00    -0.126 OA
ATOM     18  O   UNL     1      -5.163  -4.470  -2.332  0.00  0.00    -0.126 OA
ENDBRANCH  14  16
ENDBRANCH   4  10
BRANCH   5  19
ATOM     19  C   UNL     1       0.158  -4.181   0.400  0.00  0.00    +0.338 C 
ATOM     20  O   UNL     1      -0.225  -4.656   1.453  0.00  0.00    -0.245 OA
BRANCH  19  21
ATOM     21  O   UNL     1       0.630  -4.990  -0.572  0.00  0.00    -0.460 OA
BRANCH  21  22
ATOM     22  C   UNL     1       0.652  -6.392  -0.296  0.00  0.00    +0.160 C 
ATOM     23  C   UNL     1       1.993  -6.767   0.342  0.00  0.00    +0.041 C 
ATOM     24  C   UNL     1       2.037  -8.282   0.561  0.00  0.00    -0.015 C 
ATOM     25  C   UNL     1       1.812  -8.992  -0.776  0.00  0.00    -0.078 C 
ATOM     26  N   UNL     1       0.503  -8.613  -1.321  0.00  0.00    +0.385 N 
ATOM     27  C   UNL     1       0.478  -7.172  -1.601  0.00  0.00    -0.033 C 
ATOM     28  H   UNL     1      -0.217  -8.836  -0.651  0.00  0.00    -0.081 HD
BRANCH  26  29
ATOM     29  C   UNL     1       0.259  -9.356  -2.565  0.00  0.00    -0.043 C 
BRANCH  29  30
ATOM     30  C   UNL     1       0.152 -10.827  -2.257  0.00  0.00    -0.064 A 
ATOM     31  C   UNL     1       1.284 -11.620  -2.272  0.00  0.00    +0.002 A 
ATOM     32  C   UNL     1       1.187 -12.970  -1.990  0.00  0.00    +0.000 A 
ATOM     33  C   UNL     1      -0.043 -13.527  -1.694  0.00  0.00    +0.000 A 
ATOM     34  C   UNL     1      -1.175 -12.734  -1.678  0.00  0.00    +0.000 A 
ATOM     35  C   UNL     1      -1.077 -11.383  -1.956  0.00  0.00    +0.002 A 
ENDBRANCH  29  30
ENDBRANCH  26  29
ENDBRANCH  21  22
ENDBRANCH  19  21
ENDBRANCH   5  19
BRANCH   3  36
ATOM     36  C   UNL     1      -2.304   0.120   0.289  0.00  0.00    +0.337 C 
ATOM     37  O   UNL     1      -2.240   1.324   0.449  0.00  0.00    -0.245 OA
BRANCH  36  38
ATOM     38  O   UNL     1      -3.506  -0.493   0.253  0.00  0.00    -0.465 OA
ATOM     39  C   UNL     1      -4.661   0.334   0.411  0.00  0.00    +0.280 C 
ENDBRANCH  36  38
ENDBRANCH   3  36
TORSDOF 9
