REMARK  Name = ZINC12039099
REMARK  6 active torsions:
REMARK  status: ('A' for Active; 'I' for Inactive)
REMARK    1  A    between atoms: C_1  and  C_2
REMARK    2  A    between atoms: C_6  and  S_29
REMARK    3  A    between atoms: C_15  and  N_68
REMARK    4  A    between atoms: C_18  and  C_19
REMARK    5  A    between atoms: C_18  and  N_68
REMARK    6  A    between atoms: S_29  and  C_32
REMARK                            x       y       z     vdW  Elec       q    Type
REMARK                         _______ _______ _______ _____ _____    ______ ____
ROOT
ATOM      1  C   UNL     1       9.786   3.715   3.647  0.00  0.00    +0.066 C 
ATOM      2  C   UNL     1       9.360   2.618   2.706  0.00  0.00    +0.051 A 
ATOM      3  C   UNL     1      10.310   1.922   1.935  0.00  0.00    +0.022 A 
ATOM      4  C   UNL     1      11.680   2.211   2.004  0.00  0.00    +0.013 A 
ATOM      5  C   UNL     1      12.555   1.505   1.234  0.00  0.00    +0.028 A 
ATOM      6  C   UNL     1      12.107   0.501   0.378  0.00  0.00    +0.090 A 
ATOM      7  C   UNL     1      10.783   0.194   0.286  0.00  0.00    +0.055 A 
ATOM      8  C   UNL     1       9.853   0.900   1.064  0.00  0.00    +0.078 A 
ATOM      9  N   UNL     1       8.541   0.634   1.015  0.00  0.00    -0.214 NA
ATOM     10  C   UNL     1       7.697   1.323   1.757  0.00  0.00    +0.219 A 
ATOM     11  N   UNL     1       8.091   2.289   2.585  0.00  0.00    -0.219 NA
ATOM     12  N   UNL     1       6.348   1.027   1.677  0.00  0.00    -0.300 N 
ATOM     13  C   UNL     1       5.566   1.887   2.575  0.00  0.00    +0.106 C 
ATOM     14  C   UNL     1       4.104   1.436   2.569  0.00  0.00    +0.003 C 
ATOM     15  C   UNL     1       3.554   1.520   1.143  0.00  0.00    -0.069 C 
ATOM     16  C   UNL     1       4.415   0.654   0.220  0.00  0.00    +0.003 C 
ATOM     17  C   UNL     1       5.868   1.128   0.293  0.00  0.00    +0.106 C 
ENDROOT
BRANCH   6  18
ATOM     18  S   UNL     1      13.272  -0.387  -0.600  0.00  0.00    -0.006 S 
ATOM     19  O   UNL     1      14.492  -0.304   0.124  0.00  0.00    -0.170 OA
ATOM     20  O   UNL     1      12.658  -1.646  -0.842  0.00  0.00    -0.170 OA
ATOM     21  C   UNL     1      13.398   0.554  -2.146  0.00  0.00    +0.200 C 
ENDBRANCH   6  18
BRANCH  15  22
ATOM     22  N   UNL     1       2.164   1.027   1.129  0.00  0.00    +0.381 N 
ATOM     23  H   UNL     1       1.702   1.288   2.008  0.00  0.00    -0.086 HD
ATOM     24  H   UNL     1       2.168   0.004   1.035  0.00  0.00    -0.086 HD
BRANCH  22  25
ATOM     25  C   UNL     1       1.423   1.615  -0.003  0.00  0.00    -0.078 C 
BRANCH  25  26
ATOM     26  C   UNL     1      -0.013   1.086   0.008  0.00  0.00    -0.022 C 
ATOM     27  C   UNL     1      -0.729   1.579   1.267  0.00  0.00    -0.009 C 
ATOM     28  C   UNL     1      -0.750   3.109   1.275  0.00  0.00    +0.007 C 
ATOM     29  C   UNL     1      -1.490   3.616   0.036  0.00  0.00    -0.010 C 
ATOM     30  C   UNL     1      -2.925   3.086   0.047  0.00  0.00    +0.007 C 
ATOM     31  C   UNL     1      -2.904   1.556   0.038  0.00  0.00    -0.010 C 
ATOM     32  C   UNL     1      -2.164   1.050   1.278  0.00  0.00    +0.007 C 
ATOM     33  C   UNL     1      -2.188   1.063  -1.221  0.00  0.00    +0.007 C 
ATOM     34  C   UNL     1      -0.753   1.593  -1.232  0.00  0.00    -0.009 C 
ATOM     35  C   UNL     1      -0.773   3.123  -1.223  0.00  0.00    +0.007 C 
ENDBRANCH  25  26
ENDBRANCH  22  25
ENDBRANCH  15  22
TORSDOF 4
