REMARK  Name = ZINC09403490
REMARK  15 active torsions:
REMARK  status: ('A' for Active; 'I' for Inactive)
REMARK    1  A    between atoms: C_1  and  C_2
REMARK    2  A    between atoms: C_7  and  C_12
REMARK    3  A    between atoms: C_12  and  C_14
REMARK    4  A    between atoms: N_18  and  C_33
REMARK    5  A    between atoms: C_19  and  C_21
REMARK    6  A    between atoms: C_25  and  O_27
REMARK    7  A    between atoms: O_27  and  C_28
REMARK    8  A    between atoms: C_28  and  C_29
REMARK    9  A    between atoms: C_29  and  C_30
REMARK   10  A    between atoms: C_30  and  C_31
REMARK   11  A    between atoms: C_30  and  C_32
REMARK   12  A    between atoms: C_33  and  C_34
REMARK   13  A    between atoms: C_34  and  C_35
REMARK   14  A    between atoms: C_35  and  O_36
REMARK   15  A    between atoms: O_36  and  C_37
REMARK                            x       y       z     vdW  Elec       q    Type
REMARK                         _______ _______ _______ _____ _____    ______ ____
ROOT
ATOM      1  C   UNL     1       1.407   1.672  -0.100  0.00  0.00    +0.076 C 
ATOM      2  C   UNL     1       1.311   2.010   1.206  0.00  0.00    +0.249 C 
ATOM      3  C   UNL     1      -0.110   1.977   1.614  0.00  0.00    +0.288 C 
ATOM      4  O   UNL     1      -0.522   2.232   2.728  0.00  0.00    -0.266 OA
ATOM      5  N   UNL     1      -0.879   1.622   0.568  0.00  0.00    -0.283 N 
ATOM      6  C   UNL     1       0.002   1.403  -0.586  0.00  0.00    +0.145 C 
ATOM      7  O   UNL     1       2.350   2.328   2.012  0.00  0.00    -0.282 OA
ENDROOT
BRANCH   6   8
ATOM      8  C   UNL     1      -0.354   2.355  -1.698  0.00  0.00    -0.019 A 
ATOM      9  C   UNL     1      -0.687   3.665  -1.406  0.00  0.00    +0.006 A 
ATOM     10  C   UNL     1      -1.008   4.542  -2.425  0.00  0.00    +0.004 A 
ATOM     11  C   UNL     1      -1.007   4.109  -3.737  0.00  0.00    +0.045 A 
ATOM     12  C   UNL     1      -0.678   2.794  -4.032  0.00  0.00    +0.121 A 
ATOM     13  C   UNL     1      -0.351   1.917  -3.008  0.00  0.00    +0.051 A 
BRANCH  12  14
ATOM     14  O   UNL     1      -0.676   2.366  -5.322  0.00  0.00    -0.492 OA
BRANCH  14  15
ATOM     15  C   UNL     1      -1.023   3.324  -6.324  0.00  0.00    +0.229 C 
BRANCH  15  16
ATOM     16  C   UNL     1      -0.967   2.663  -7.703  0.00  0.00    +0.044 C 
BRANCH  16  17
ATOM     17  C   UNL     1      -1.338   3.688  -8.776  0.00  0.00    -0.014 C 
ATOM     18  C   UNL     1      -0.281   4.793  -8.813  0.00  0.00    +0.007 C 
ATOM     19  C   UNL     1      -1.404   2.998 -10.140  0.00  0.00    +0.007 C 
ENDBRANCH  16  17
ENDBRANCH  15  16
ENDBRANCH  14  15
ENDBRANCH  12  14
ENDBRANCH   6   8
BRANCH   1  20
ATOM     20  C   UNL     1       2.638   1.583  -0.892  0.00  0.00    +0.195 C 
ATOM     21  O   UNL     1       3.303   2.581  -1.098  0.00  0.00    -0.287 OA
BRANCH  20  27
ATOM     22  C   UNL     1       4.453  -2.786  -5.456  0.00  0.00    +0.052 C 
ATOM     23  C   UNL     1       5.272  -2.823  -4.164  0.00  0.00    +0.175 C 
ATOM     24  C   UNL     1       5.694  -1.396  -3.741  0.00  0.00    +0.083 C 
ATOM     25  C   UNL     1       4.571  -1.004  -2.800  0.00  0.00    -0.002 A 
ATOM     26  C   UNL     1       4.173   0.211  -2.299  0.00  0.00    +0.019 A 
ATOM     27  C   UNL     1       3.070   0.283  -1.441  0.00  0.00    +0.023 A 
ATOM     28  C   UNL     1       2.377  -0.887  -1.113  0.00  0.00    +0.015 A 
ATOM     29  C   UNL     1       2.783  -2.097  -1.621  0.00  0.00    +0.046 A 
ATOM     30  C   UNL     1       3.890  -2.172  -2.469  0.00  0.00    +0.124 A 
ATOM     31  O   UNL     1       4.461  -3.256  -3.059  0.00  0.00    -0.488 OA
ENDBRANCH  20  27
ENDBRANCH   1  20
BRANCH   5  32
ATOM     32  C   UNL     1      -2.337   1.480   0.579  0.00  0.00    +0.111 C 
BRANCH  32  33
ATOM     33  C   UNL     1      -2.707   0.043   0.952  0.00  0.00    +0.047 C 
BRANCH  33  34
ATOM     34  C   UNL     1      -4.229  -0.105   0.964  0.00  0.00    +0.161 C 
BRANCH  34  35
ATOM     35  O   UNL     1      -4.575  -1.447   1.312  0.00  0.00    -0.383 OA
ATOM     36  C   UNL     1      -5.982  -1.693   1.352  0.00  0.00    +0.193 C 
ENDBRANCH  34  35
ENDBRANCH  33  34
ENDBRANCH  32  33
ENDBRANCH   5  32
TORSDOF 11
