REMARK  Name = ZINC09007739
REMARK  8 active torsions:
REMARK  status: ('A' for Active; 'I' for Inactive)
REMARK    1  A    between atoms: C_1  and  C_2
REMARK    2  A    between atoms: C_2  and  O_3
REMARK    3  A    between atoms: O_3  and  C_4
REMARK    4  A    between atoms: N_6  and  C_7
REMARK    5  A    between atoms: C_21  and  C_23
REMARK    6  A    between atoms: C_23  and  C_24
REMARK    7  A    between atoms: C_24  and  N_67
REMARK    8  A    between atoms: C_25  and  N_67
REMARK                            x       y       z     vdW  Elec       q    Type
REMARK                         _______ _______ _______ _____ _____    ______ ____
ROOT
ATOM      1  C   UNL     1      -2.936   2.804  -4.476  0.00  0.00    +0.038 A 
ATOM      2  C   UNL     1      -2.308   2.998  -5.699  0.00  0.00    +0.024 A 
ATOM      3  C   UNL     1      -0.969   2.672  -5.849  0.00  0.00    +0.019 A 
ATOM      4  C   UNL     1      -0.258   2.137  -4.782  0.00  0.00    +0.035 A 
ATOM      5  C   UNL     1      -0.885   1.939  -3.553  0.00  0.00    +0.057 A 
ATOM      6  C   UNL     1      -2.227   2.277  -3.407  0.00  0.00    +0.048 A 
ATOM      7  N   UNL     1      -0.202   1.416  -2.457  0.00  0.00    -0.238 N 
ATOM      8  C   UNL     1       0.934   0.611  -2.535  0.00  0.00    +0.055 A 
ATOM      9  C   UNL     1       1.224  -0.247  -1.479  0.00  0.00    +0.025 A 
ATOM     10  C   UNL     1       2.344  -1.054  -1.523  0.00  0.00    +0.002 A 
ATOM     11  C   UNL     1       3.188  -1.014  -2.617  0.00  0.00    +0.001 A 
ATOM     12  C   UNL     1       2.909  -0.168  -3.673  0.00  0.00    +0.017 A 
ATOM     13  C   UNL     1       1.783   0.644  -3.638  0.00  0.00    +0.035 A 
ATOM     14  S   UNL     1       1.436   1.707  -4.998  0.00  0.00    -0.086 S 
ATOM     15  C   UNL     1      -0.678   1.704  -1.229  0.00  0.00    +0.222 C 
ATOM     16  O   UNL     1      -1.738   2.281  -1.110  0.00  0.00    -0.275 OA
ENDROOT
BRANCH   1  19
ATOM     17  C   UNL     1      -4.833   4.108  -5.085  0.00  0.00    +0.405 C 
ATOM     18  O   UNL     1      -4.130   4.765  -5.827  0.00  0.00    -0.226 OA
ATOM     19  N   UNL     1      -4.287   3.140  -4.321  0.00  0.00    -0.251 N 
ATOM     20  H   UNL     1      -4.830   2.677  -3.664  0.00  0.00    +0.158 HD
BRANCH  17  21
ATOM     21  O   UNL     1      -6.157   4.346  -5.025  0.00  0.00    -0.450 OA
BRANCH  21  23
ATOM     22  C   UNL     1      -8.186   5.526  -5.673  0.00  0.00    +0.048 C 
ATOM     23  C   UNL     1      -6.675   5.403  -5.876  0.00  0.00    +0.230 C 
ENDBRANCH  21  23
ENDBRANCH  17  21
ENDBRANCH   1  19
BRANCH  15  24
ATOM     24  C   UNL     1       0.107   1.309  -0.005  0.00  0.00    +0.078 C 
BRANCH  24  25
ATOM     25  C   UNL     1      -0.147   2.323   1.113  0.00  0.00    -0.073 C 
BRANCH  25  26
ATOM     26  N   UNL     1       0.625   1.930   2.307  0.00  0.00    +0.383 N 
ATOM     27  H   UNL     1       1.624   1.911   2.073  0.00  0.00    -0.085 HD
ATOM     28  H   UNL     1       0.326   0.996   2.610  0.00  0.00    -0.085 HD
BRANCH  26  29
ATOM     29  C   UNL     1       0.399   2.892   3.402  0.00  0.00    -0.068 C 
ATOM     30  C   UNL     1       0.846   4.287   2.961  0.00  0.00    -0.009 C 
ATOM     31  C   UNL     1       0.618   5.280   4.103  0.00  0.00    -0.012 C 
ATOM     32  C   UNL     1       1.429   4.847   5.325  0.00  0.00    +0.007 C 
ATOM     33  C   UNL     1       0.982   3.452   5.766  0.00  0.00    -0.012 C 
ATOM     34  C   UNL     1       1.210   2.459   4.625  0.00  0.00    -0.009 C 
ATOM     35  C   UNL     1      -0.505   3.483   6.125  0.00  0.00    +0.007 C 
ATOM     36  C   UNL     1      -1.316   3.916   4.902  0.00  0.00    -0.012 C 
ATOM     37  C   UNL     1      -0.869   5.311   4.462  0.00  0.00    +0.007 C 
ATOM     38  C   UNL     1      -1.088   2.923   3.761  0.00  0.00    -0.009 C 
ENDBRANCH  26  29
ENDBRANCH  25  26
ENDBRANCH  24  25
ENDBRANCH  15  24
TORSDOF 7
