REMARK  Name = ZINC02151510
REMARK  10 active torsions:
REMARK  status: ('A' for Active; 'I' for Inactive)
REMARK    1  A    between atoms: C_1  and  C_2
REMARK    2  A    between atoms: C_5  and  C_8
REMARK    3  A    between atoms: C_8  and  C_10
REMARK    4  A    between atoms: C_11  and  N_39
REMARK    5  A    between atoms: N_12  and  C_32
REMARK    6  A    between atoms: C_15  and  C_17
REMARK    7  A    between atoms: C_19  and  O_25
REMARK    8  A    between atoms: C_22  and  O_23
REMARK    9  A    between atoms: O_23  and  C_24
REMARK   10  A    between atoms: O_25  and  C_26
REMARK                            x       y       z     vdW  Elec       q    Type
REMARK                         _______ _______ _______ _____ _____    ______ ____
ROOT
ATOM      1  C   UNL     1      -0.302  -0.255  -0.351  0.00  0.00    +0.048 C 
ATOM      2  C   UNL     1       1.022  -0.612  -0.447  0.00  0.00    +0.100 C 
ATOM      3  N   UNL     1       1.410  -1.893  -0.143  0.00  0.00    -0.261 N 
ATOM      4  C   UNL     1       0.608  -2.703   0.619  0.00  0.00    +0.024 C 
ATOM      5  C   UNL     1      -0.706  -2.435   0.764  0.00  0.00    +0.025 C 
ATOM      6  C   UNL     1      -1.338  -1.250   0.083  0.00  0.00    +0.094 C 
ATOM      7  C   UNL     1      -1.530  -3.253   1.559  0.00  0.00    +0.162 C 
ATOM      8  O   UNL     1      -2.711  -2.989   1.662  0.00  0.00    -0.292 OA
ATOM      9  C   UNL     1      -0.976  -4.449   2.285  0.00  0.00    +0.080 C 
ATOM     10  C   UNL     1       0.503  -4.201   2.598  0.00  0.00    +0.014 C 
ATOM     11  C   UNL     1       1.234  -3.904   1.287  0.00  0.00    +0.052 C 
ENDROOT
BRANCH   3  12
ATOM     12  C   UNL     1       2.635  -2.378  -0.616  0.00  0.00    +0.041 A 
ATOM     13  C   UNL     1       3.825  -1.889  -0.093  0.00  0.00    +0.024 A 
ATOM     14  C   UNL     1       5.033  -2.368  -0.561  0.00  0.00    +0.003 A 
ATOM     15  C   UNL     1       5.058  -3.334  -1.550  0.00  0.00    +0.020 A 
ATOM     16  C   UNL     1       3.875  -3.824  -2.074  0.00  0.00    +0.043 A 
ATOM     17  C   UNL     1       2.663  -3.352  -1.605  0.00  0.00    +0.043 A 
ATOM     18 CL   UNL     1       3.912  -5.037  -3.315  0.00  0.00    -0.083 Cl
ENDBRANCH   3  12
BRANCH   6  19
ATOM     19  C   UNL     1      -2.099  -1.729  -1.127  0.00  0.00    +0.010 A 
ATOM     20  C   UNL     1      -1.449  -2.447  -2.112  0.00  0.00    +0.053 A 
ATOM     21  C   UNL     1      -2.151  -2.893  -3.222  0.00  0.00    +0.121 A 
ATOM     22  C   UNL     1      -3.503  -2.609  -3.348  0.00  0.00    +0.049 A 
ATOM     23  C   UNL     1      -4.151  -1.887  -2.366  0.00  0.00    +0.049 A 
ATOM     24  C   UNL     1      -3.451  -1.445  -1.253  0.00  0.00    +0.124 A 
BRANCH  24  25
ATOM     25  O   UNL     1      -4.089  -0.735  -0.285  0.00  0.00    -0.495 OA
ATOM     26  C   UNL     1      -5.502  -0.574  -0.424  0.00  0.00    +0.277 C 
ENDBRANCH  24  25
BRANCH  21  27
ATOM     27  O   UNL     1      -1.512  -3.604  -4.189  0.00  0.00    -0.495 OA
ATOM     28  C   UNL     1      -2.295  -4.027  -5.307  0.00  0.00    +0.277 C 
ENDBRANCH  21  27
ENDBRANCH   6  19
BRANCH   2  29
ATOM     29  N   UNL     1       1.953   0.310  -0.846  0.00  0.00    -0.346 N 
ATOM     30  H   UNL     1       1.697   1.239  -0.963  0.00  0.00    +0.143 HD
ATOM     31  H   UNL     1       2.869   0.035  -1.011  0.00  0.00    +0.143 HD
ENDBRANCH   2  29
BRANCH   1  32
ATOM     32  C   UNL     1      -0.689   1.058  -0.657  0.00  0.00    +0.193 C 
ATOM     33  O   UNL     1      -0.583   1.474  -1.798  0.00  0.00    -0.287 OA
BRANCH  32  38
ATOM     34  C   UNL     1      -2.796   4.472   3.471  0.00  0.00    +0.044 C 
ATOM     35  C   UNL     1      -2.244   3.579   2.391  0.00  0.00    -0.050 A 
ATOM     36  C   UNL     1      -2.220   4.018   1.079  0.00  0.00    +0.004 A 
ATOM     37  C   UNL     1      -1.716   3.204   0.085  0.00  0.00    +0.012 A 
ATOM     38  C   UNL     1      -1.230   1.937   0.405  0.00  0.00    +0.022 A 
ATOM     39  C   UNL     1      -1.262   1.497   1.729  0.00  0.00    +0.012 A 
ATOM     40  C   UNL     1      -1.764   2.322   2.715  0.00  0.00    +0.004 A 
ENDBRANCH  32  38
ENDBRANCH   1  32
TORSDOF 7
