REMARK  Name = ZINC28723334
REMARK  12 active torsions:
REMARK  status: ('A' for Active; 'I' for Inactive)
REMARK    1  A    between atoms: C_1  and  C_2
REMARK    2  A    between atoms: C_2  and  C_3
REMARK    3  A    between atoms: C_3  and  N_4
REMARK    4  A    between atoms: C_7  and  C_20
REMARK    5  A    between atoms: N_11  and  C_12
REMARK    6  A    between atoms: C_14  and  C_19
REMARK    7  A    between atoms: C_16  and  C_18
REMARK    8  A    between atoms: C_20  and  C_21
REMARK    9  A    between atoms: N_23  and  C_24
REMARK   10  A    between atoms: C_27  and  N_32
REMARK   11  A    between atoms: C_29  and  O_30
REMARK   12  A    between atoms: O_30  and  C_31
REMARK                            x       y       z     vdW  Elec       q    Type
REMARK                         _______ _______ _______ _____ _____    ______ ____
ROOT
ATOM      1  N   UNL     1      -3.638  -5.994   0.633  0.00  0.00    -0.250 N 
ATOM      2  C   UNL     1      -3.462  -5.142  -0.363  0.00  0.00    +0.235 C 
ATOM      3  O   UNL     1      -4.272  -5.019  -1.257  0.00  0.00    -0.274 OA
ATOM      4  C   UNL     1      -2.180  -4.327  -0.318  0.00  0.00    +0.149 C 
ATOM      5  S   UNL     1      -1.432  -4.974   1.230  0.00  0.00    -0.077 S 
ATOM      6  C   UNL     1      -2.720  -6.138   1.651  0.00  0.00    +0.164 C 
ATOM      7  N   UNL     1      -2.778  -6.941   2.688  0.00  0.00    -0.226 NA
ENDROOT
BRANCH   7   8
ATOM      8  C   UNL     1      -1.763  -6.948   3.607  0.00  0.00    +0.067 A 
ATOM      9  C   UNL     1      -0.433  -6.963   3.183  0.00  0.00    +0.031 A 
ATOM     10  C   UNL     1       0.585  -6.964   4.114  0.00  0.00    -0.048 A 
ATOM     11  C   UNL     1       0.289  -6.962   5.466  0.00  0.00    +0.006 A 
ATOM     12  C   UNL     1      -1.027  -6.953   5.893  0.00  0.00    -0.048 A 
ATOM     13  C   UNL     1      -2.054  -6.946   4.973  0.00  0.00    +0.031 A 
ATOM     14  C   UNL     1      -1.338  -6.952   7.367  0.00  0.00    +0.044 C 
ATOM     15  C   UNL     1       2.021  -6.973   3.658  0.00  0.00    +0.044 C 
ENDBRANCH   7   8
BRANCH   1  16
ATOM     16  C   UNL     1      -4.852  -6.814   0.654  0.00  0.00    +0.115 C 
BRANCH  16  18
ATOM     17  C   UNL     1      -7.220  -6.932   1.440  0.00  0.00    +0.005 C 
ATOM     18  C   UNL     1      -5.953  -6.075   1.417  0.00  0.00    +0.016 C 
ENDBRANCH  16  18
ENDBRANCH   1  16
BRANCH   4  19
ATOM     19  C   UNL     1      -2.478  -2.830  -0.206  0.00  0.00    +0.120 C 
BRANCH  19  20
ATOM     20  C   UNL     1      -1.183  -2.066  -0.100  0.00  0.00    +0.219 C 
ATOM     21  O   UNL     1      -0.126  -2.660  -0.113  0.00  0.00    -0.275 OA
ATOM     22  N   UNL     1      -1.201  -0.723   0.009  0.00  0.00    -0.283 N 
ATOM     23  H   UNL     1      -2.158  -0.192   0.113  0.00  0.00    +0.155 HD
BRANCH  22  24
ATOM     24  C   UNL     1       0.001  -0.003  -0.009  0.00  0.00    +0.076 A 
ATOM     25  C   UNL     1       1.122  -0.536  -0.629  0.00  0.00    +0.029 A 
ATOM     26  C   UNL     1       2.306   0.176  -0.647  0.00  0.00    +0.035 A 
ATOM     27  C   UNL     1       2.378   1.420  -0.047  0.00  0.00    +0.130 A 
ATOM     28  C   UNL     1       1.266   1.957   0.573  0.00  0.00    +0.080 A 
ATOM     29  C   UNL     1       0.074   1.250   0.595  0.00  0.00    +0.143 A 
BRANCH  27  30
ATOM     30  N   UNL     1       3.649   2.178  -0.069  0.00  0.00    +0.057 N 
ATOM     31  O   UNL     1       4.630   1.705  -0.615  0.00  0.00    -0.126 OA
ATOM     32  O   UNL     1       3.714   3.274   0.458  0.00  0.00    -0.126 OA
ENDBRANCH  27  30
BRANCH  29  33
ATOM     33  O   UNL     1      -1.022   1.780   1.199  0.00  0.00    -0.493 OA
ATOM     34  C   UNL     1      -0.874   3.069   1.798  0.00  0.00    +0.277 C 
ENDBRANCH  29  33
ENDBRANCH  22  24
ENDBRANCH  19  20
ENDBRANCH   4  19
TORSDOF 8
