REMARK  Name = ZINC09795631
REMARK  12 active torsions:
REMARK  status: ('A' for Active; 'I' for Inactive)
REMARK    1  A    between atoms: C_1  and  C_2
REMARK    2  A    between atoms: C_2  and  C_3
REMARK    3  A    between atoms: C_2  and  C_4
REMARK    4  A    between atoms: C_4  and  C_5
REMARK    5  A    between atoms: C_8  and  C_11
REMARK    6  A    between atoms: C_11  and  C_13
REMARK    7  A    between atoms: C_11  and  N_16
REMARK    8  A    between atoms: C_13  and  C_14
REMARK    9  A    between atoms: C_13  and  C_15
REMARK   10  A    between atoms: C_22  and  C_25
REMARK   11  A    between atoms: N_27  and  C_28
REMARK   12  A    between atoms: C_33  and  O_34
REMARK                            x       y       z     vdW  Elec       q    Type
REMARK                         _______ _______ _______ _____ _____    ______ ____
ROOT
ATOM      1  N   UNL     1      -2.933   4.412   4.709  0.00  0.00    -0.292 N 
ATOM      2  C   UNL     1      -3.948   4.984   5.386  0.00  0.00    +0.303 C 
ATOM      3  O   UNL     1      -4.723   4.292   6.019  0.00  0.00    -0.253 OA
ATOM      4  N   UNL     1      -4.105   6.322   5.362  0.00  0.00    -0.286 N 
ATOM      5  C   UNL     1      -3.243   7.162   4.519  0.00  0.00    +0.110 C 
ATOM      6  C   UNL     1      -4.136   8.040   3.630  0.00  0.00    +0.032 C 
ATOM      7  C   UNL     1      -5.109   8.826   4.512  0.00  0.00    +0.078 C 
ATOM      8  C   UNL     1      -6.005   7.851   5.280  0.00  0.00    +0.032 C 
ATOM      9  C   UNL     1      -5.136   6.970   6.184  0.00  0.00    +0.110 C 
ATOM     10  H   UNL     1      -2.358   4.955   4.147  0.00  0.00    +0.151 HD
ENDROOT
BRANCH   7  11
ATOM     11  C   UNL     1      -5.963   9.717   3.648  0.00  0.00    +0.220 C 
ATOM     12  O   UNL     1      -7.169   9.586   3.646  0.00  0.00    -0.275 OA
ATOM     13  N   UNL     1      -5.387  10.661   2.876  0.00  0.00    -0.282 N 
ATOM     14  H   UNL     1      -4.420  10.713   2.815  0.00  0.00    +0.155 HD
BRANCH  13  15
ATOM     15  C   UNL     1      -6.184  11.565   2.162  0.00  0.00    +0.075 A 
ATOM     16  C   UNL     1      -7.469  11.855   2.599  0.00  0.00    +0.027 A 
ATOM     17  C   UNL     1      -8.253  12.747   1.894  0.00  0.00    +0.002 A 
ATOM     18  C   UNL     1      -7.761  13.353   0.752  0.00  0.00    +0.004 A 
ATOM     19  C   UNL     1      -6.483  13.068   0.310  0.00  0.00    +0.047 A 
ATOM     20  C   UNL     1      -5.688  12.179   1.015  0.00  0.00    +0.138 A 
BRANCH  20  21
ATOM     21  O   UNL     1      -4.428  11.903   0.585  0.00  0.00    -0.505 OA
ATOM     22  H   UNL     1      -4.376  11.158  -0.030  0.00  0.00    +0.292 HD
ENDBRANCH  20  21
ENDBRANCH  13  15
ENDBRANCH   7  11
BRANCH   1  23
ATOM     23  C   UNL     1      -2.696   2.971   4.823  0.00  0.00    +0.107 C 
BRANCH  23  27
ATOM     24  C   UNL     1      -0.667   1.581   1.330  0.00  0.00    -0.047 A 
ATOM     25  C   UNL     1      -0.317   2.792   1.897  0.00  0.00    +0.004 A 
ATOM     26  C   UNL     1      -0.977   3.244   3.024  0.00  0.00    +0.006 A 
ATOM     27  C   UNL     1      -1.980   2.480   3.591  0.00  0.00    -0.027 A 
ATOM     28  C   UNL     1      -2.326   1.266   3.028  0.00  0.00    +0.006 A 
ATOM     29  C   UNL     1      -1.670   0.817   1.897  0.00  0.00    +0.004 A 
BRANCH  24  30
ATOM     30  C   UNL     1       0.049   1.091   0.098  0.00  0.00    +0.038 C 
BRANCH  30  32
ATOM     31  C   UNL     1       0.110   1.196  -2.397  0.00  0.00    +0.007 C 
ATOM     32  C   UNL     1      -0.684   1.588  -1.149  0.00  0.00    -0.013 C 
ATOM     33  C   UNL     1      -2.075   0.954  -1.210  0.00  0.00    +0.007 C 
ENDBRANCH  30  32
ENDBRANCH  24  30
ENDBRANCH  23  27
BRANCH  23  34
ATOM     34  C   UNL     1      -1.837   2.690   6.058  0.00  0.00    +0.008 C 
ATOM     35  C   UNL     1      -1.590   1.185   6.176  0.00  0.00    +0.009 C 
ATOM     36  C   UNL     1      -0.498   3.418   5.923  0.00  0.00    +0.009 C 
ENDBRANCH  23  34
ENDBRANCH   1  23
TORSDOF 8
