REMARK  Name = ZINC19147022
REMARK  11 active torsions:
REMARK  status: ('A' for Active; 'I' for Inactive)
REMARK    1  A    between atoms: C_1  and  O_2
REMARK    2  A    between atoms: O_2  and  C_3
REMARK    3  A    between atoms: C_12  and  C_13
REMARK    4  A    between atoms: C_13  and  N_63
REMARK    5  A    between atoms: C_15  and  N_29
REMARK    6  A    between atoms: C_18  and  C_20
REMARK    7  A    between atoms: N_22  and  C_23
REMARK    8  A    between atoms: C_23  and  C_24
REMARK    9  A    between atoms: C_31  and  C_34
REMARK   10  A    between atoms: C_34  and  O_36
REMARK   11  A    between atoms: O_36  and  C_37
REMARK                            x       y       z     vdW  Elec       q    Type
REMARK                         _______ _______ _______ _____ _____    ______ ____
ROOT
ATOM      1  C   UNL     1      -6.772   1.738   3.703  0.00  0.00    -0.050 C 
ATOM      2  C   UNL     1      -5.610   1.838   4.714  0.00  0.00    +0.091 C 
ATOM      3  C   UNL     1      -5.701   0.553   5.563  0.00  0.00    +0.019 C 
ATOM      4  C   UNL     1      -6.913  -0.217   4.990  0.00  0.00    +0.022 C 
ATOM      5  N   UNL     1      -7.717   0.833   4.355  0.00  0.00    +0.391 N 
ATOM      6  H   UNL     1      -8.256   1.341   5.065  0.00  0.00    -0.080 HD
ENDROOT
BRANCH   2   7
ATOM      7  N   UNL     1      -4.327   1.893   4.009  0.00  0.00    -0.250 N 
ATOM      8  C   UNL     1      -4.029   1.302   2.835  0.00  0.00    +0.145 A 
ATOM      9  C   UNL     1      -2.728   1.611   2.555  0.00  0.00    +0.189 A 
ATOM     10  N   UNL     1      -2.252   2.387   3.544  0.00  0.00    -0.123 NA
ATOM     11  N   UNL     1      -3.174   2.575   4.424  0.00  0.00    -0.065 NA
BRANCH   9  12
ATOM     12  C   UNL     1      -1.975   1.174   1.366  0.00  0.00    +0.361 C 
ATOM     13  O   UNL     1      -2.510   0.470   0.532  0.00  0.00    -0.243 OA
BRANCH  12  14
ATOM     14  O   UNL     1      -0.692   1.554   1.203  0.00  0.00    -0.463 OA
ATOM     15  C   UNL     1      -0.013   1.086   0.008  0.00  0.00    +0.280 C 
ENDBRANCH  12  14
ENDBRANCH   9  12
ENDBRANCH   2   7
BRANCH   4  16
ATOM     16  C   UNL     1      -7.675  -0.898   6.098  0.00  0.00    +0.200 C 
ATOM     17  O   UNL     1      -8.813  -0.561   6.347  0.00  0.00    -0.278 OA
ATOM     18  N   UNL     1      -7.092  -1.883   6.811  0.00  0.00    -0.312 N 
ATOM     19  H   UNL     1      -6.182  -2.152   6.611  0.00  0.00    +0.149 HD
BRANCH  18  20
ATOM     20  C   UNL     1      -7.833  -2.544   7.887  0.00  0.00    +0.146 C 
BRANCH  20  21
ATOM     21  C   UNL     1      -6.963  -3.599   8.522  0.00  0.00    +0.007 A 
ATOM     22  C   UNL     1      -6.108  -3.484   9.568  0.00  0.00    +0.013 A 
ATOM     23  C   UNL     1      -5.405  -4.599   9.984  0.00  0.00    +0.008 A 
ATOM     24  C   UNL     1      -5.591  -5.774   9.335  0.00  0.00    +0.045 A 
ATOM     25  S   UNL     1      -6.796  -5.324   8.096  0.00  0.00    -0.100 S 
ENDBRANCH  20  21
ENDBRANCH  18  20
ENDBRANCH   4  16
BRANCH   5  26
ATOM     26  C   UNL     1      -8.659   0.237   3.355  0.00  0.00    -0.038 C 
BRANCH  26  36
ATOM     27  C   UNL     1      -7.290  -0.319   1.350  0.00  0.00    +0.122 A 
ATOM     28  C   UNL     1      -6.574  -1.213   0.547  0.00  0.00    +0.046 A 
ATOM     29  C   UNL     1      -6.473  -2.527   0.883  0.00  0.00    +0.012 A 
ATOM     30  C   UNL     1      -7.090  -2.996   2.055  0.00  0.00    -0.017 A 
ATOM     31  C   UNL     1      -7.005  -4.347   2.432  0.00  0.00    +0.008 A 
ATOM     32  C   UNL     1      -7.614  -4.768   3.575  0.00  0.00    +0.001 A 
ATOM     33  C   UNL     1      -8.323  -3.878   4.379  0.00  0.00    +0.001 A 
ATOM     34  C   UNL     1      -8.427  -2.562   4.046  0.00  0.00    +0.009 A 
ATOM     35  C   UNL     1      -7.811  -2.091   2.873  0.00  0.00    -0.013 A 
ATOM     36  C   UNL     1      -7.896  -0.740   2.498  0.00  0.00    -0.015 A 
BRANCH  27  38
ATOM     37  C   UNL     1      -6.722   1.368  -0.227  0.00  0.00    +0.277 C 
ATOM     38  O   UNL     1      -7.378   0.987   0.985  0.00  0.00    -0.495 OA
ENDBRANCH  27  38
ENDBRANCH  26  36
ENDBRANCH   5  26
TORSDOF 9
