REMARK  Name = ZINC02335995
REMARK  9 active torsions:
REMARK  status: ('A' for Active; 'I' for Inactive)
REMARK    1  A    between atoms: C_1  and  C_2
REMARK    2  A    between atoms: C_2  and  N_3
REMARK    3  A    between atoms: C_12  and  S_13
REMARK    4  A    between atoms: S_13  and  C_14
REMARK    5  A    between atoms: C_14  and  C_15
REMARK    6  A    between atoms: N_17  and  C_18
REMARK    7  A    between atoms: C_21  and  C_24
REMARK    8  A    between atoms: C_24  and  C_25
REMARK    9  A    between atoms: C_24  and  C_26
REMARK                            x       y       z     vdW  Elec       q    Type
REMARK                         _______ _______ _______ _____ _____    ______ ____
ROOT
ATOM      1  N   UNL     1       2.885  -2.398  -0.051  0.00  0.00    -0.288 N 
ATOM      2  C   UNL     1       1.578  -2.046  -0.045  0.00  0.00    +0.263 A 
ATOM      3  O   UNL     1       0.684  -2.875  -0.041  0.00  0.00    -0.267 OA
ATOM      4  C   UNL     1       1.310  -0.638  -0.045  0.00  0.00    +0.076 A 
ATOM      5  C   UNL     1       0.002  -0.003  -0.038  0.00  0.00    -0.023 A 
ATOM      6  C   UNL     1      -0.017   1.349  -0.039  0.00  0.00    -0.004 A 
ATOM      7  S   UNL     1       1.690   1.838  -0.047  0.00  0.00    -0.073 S 
ATOM      8  C   UNL     1       2.423   0.233  -0.050  0.00  0.00    +0.117 A 
ATOM      9  N   UNL     1       3.685  -0.178  -0.056  0.00  0.00    -0.216 NA
ATOM     10  C   UNL     1       3.898  -1.488  -0.056  0.00  0.00    +0.173 A 
ATOM     11  C   UNL     1      -1.220   2.240  -0.039  0.00  0.00    +0.043 C 
ATOM     12  C   UNL     1      -2.450   1.398  -0.401  0.00  0.00    +0.005 C 
ATOM     13  C   UNL     1      -2.435   0.117   0.438  0.00  0.00    +0.005 C 
ATOM     14  C   UNL     1      -1.302  -0.796  -0.031  0.00  0.00    +0.037 C 
ENDROOT
BRANCH   1  16
ATOM     15  C   UNL     1       3.337  -4.319  -1.496  0.00  0.00    +0.027 C 
ATOM     16  C   UNL     1       3.225  -3.823  -0.053  0.00  0.00    +0.124 C 
ENDBRANCH   1  16
BRANCH  10  17
ATOM     17  S   UNL     1       5.560  -2.073  -0.064  0.00  0.00    -0.078 S 
BRANCH  17  18
ATOM     18  C   UNL     1       6.449  -0.497  -0.069  0.00  0.00    +0.173 C 
BRANCH  18  19
ATOM     19  C   UNL     1       7.933  -0.757  -0.075  0.00  0.00    +0.227 C 
ATOM     20  O   UNL     1       8.349  -1.896  -0.077  0.00  0.00    -0.275 OA
ATOM     21  N   UNL     1       8.799   0.277  -0.080  0.00  0.00    -0.285 N 
ATOM     22  H   UNL     1       8.468   1.186  -0.146  0.00  0.00    +0.155 HD
BRANCH  21  23
ATOM     23  C   UNL     1      10.174   0.037   0.011  0.00  0.00    +0.033 A 
ATOM     24  C   UNL     1      10.990   0.925   0.700  0.00  0.00    +0.023 A 
ATOM     25  C   UNL     1      12.347   0.683   0.794  0.00  0.00    +0.006 A 
ATOM     26  C   UNL     1      12.894  -0.435   0.193  0.00  0.00    -0.045 A 
ATOM     27  C   UNL     1      12.085  -1.318  -0.499  0.00  0.00    +0.006 A 
ATOM     28  C   UNL     1      10.727  -1.085  -0.591  0.00  0.00    +0.023 A 
BRANCH  26  29
ATOM     29  C   UNL     1      14.376  -0.693   0.292  0.00  0.00    +0.013 C 
ATOM     30  C   UNL     1      15.140   0.475  -0.335  0.00  0.00    +0.012 C 
ATOM     31  C   UNL     1      14.772  -0.831   1.763  0.00  0.00    +0.012 C 
ENDBRANCH  26  29
ENDBRANCH  21  23
ENDBRANCH  18  19
ENDBRANCH  17  18
ENDBRANCH  10  17
TORSDOF 6
