REMARK  Name = ZINC13031909
REMARK  14 active torsions:
REMARK  status: ('A' for Active; 'I' for Inactive)
REMARK    1  A    between atoms: C_1  and  C_2
REMARK    2  A    between atoms: C_2  and  C_3
REMARK    3  A    between atoms: C_3  and  C_4
REMARK    4  A    between atoms: C_3  and  C_5
REMARK    5  A    between atoms: C_3  and  N_6
REMARK    6  A    between atoms: C_7  and  C_9
REMARK    7  A    between atoms: C_9  and  C_11
REMARK    8  A    between atoms: C_9  and  N_17
REMARK    9  A    between atoms: N_15  and  C_16
REMARK   10  A    between atoms: N_17  and  C_18
REMARK   11  A    between atoms: C_21  and  C_24
REMARK   12  A    between atoms: C_24  and  C_26
REMARK   13  A    between atoms: C_27  and  C_29
REMARK   14  A    between atoms: C_29  and  N_30
REMARK                            x       y       z     vdW  Elec       q    Type
REMARK                         _______ _______ _______ _____ _____    ______ ____
ROOT
ATOM      1  N   UNL     1      -3.830   2.279   1.179  0.00  0.00    -0.252 N 
ATOM      2  C   UNL     1      -3.880   2.320   2.526  0.00  0.00    +0.242 C 
ATOM      3  O   UNL     1      -4.353   3.286   3.086  0.00  0.00    -0.273 OA
ENDROOT
BRANCH   1   4
ATOM      4  C   UNL     1      -3.568   1.075   0.528  0.00  0.00    +0.038 A 
ATOM      5  C   UNL     1      -4.168   0.805  -0.699  0.00  0.00    +0.024 A 
ATOM      6  C   UNL     1      -3.910  -0.376  -1.345  0.00  0.00    +0.013 A 
ATOM      7  C   UNL     1      -3.050  -1.316  -0.764  0.00  0.00    +0.017 A 
ATOM      8  C   UNL     1      -2.453  -1.043   0.473  0.00  0.00    +0.013 A 
ATOM      9  C   UNL     1      -2.713   0.143   1.110  0.00  0.00    +0.024 A 
BRANCH   7  10
ATOM     10  C   UNL     1      -2.774  -2.585  -1.450  0.00  0.00    +0.160 C 
ATOM     11  O   UNL     1      -2.029  -3.398  -0.946  0.00  0.00    -0.292 OA
ATOM     12  C   UNL     1      -3.417  -2.877  -2.781  0.00  0.00    +0.091 C 
ENDBRANCH   7  10
ENDBRANCH   1   4
BRANCH   1  13
ATOM     13  C   UNL     1      -4.051   3.500   0.401  0.00  0.00    +0.213 C 
BRANCH  13  14
ATOM     14  C   UNL     1      -5.408   3.441  -0.252  0.00  0.00    +0.049 A 
ATOM     15  C   UNL     1      -6.227   2.370  -0.277  0.00  0.00    +0.025 A 
ATOM     16  C   UNL     1      -7.387   2.742  -0.985  0.00  0.00    +0.019 A 
ATOM     17  C   UNL     1      -7.232   4.027  -1.365  0.00  0.00    +0.085 A 
ATOM     18  N   UNL     1      -6.022   4.463  -0.913  0.00  0.00    -0.352 N 
ATOM     19  C   UNL     1      -5.471   5.806  -1.108  0.00  0.00    +0.148 C 
ENDBRANCH  13  14
BRANCH  13  21
ATOM     20  N   UNL     1      -3.112   4.536  -1.639  0.00  0.00    -0.308 N 
ATOM     21  C   UNL     1      -2.988   3.618  -0.661  0.00  0.00    +0.240 C 
ATOM     22  O   UNL     1      -2.021   2.886  -0.635  0.00  0.00    -0.273 OA
ATOM     23  H   UNL     1      -3.843   5.173  -1.617  0.00  0.00    +0.149 HD
BRANCH  20  24
ATOM     24  C   UNL     1      -2.141   4.573  -2.736  0.00  0.00    +0.029 C 
ATOM     25  C   UNL     1      -0.742   4.822  -2.171  0.00  0.00    +0.031 C 
ATOM     26  C   UNL     1      -2.161   3.236  -3.480  0.00  0.00    +0.031 C 
BRANCH  24  28
ATOM     27  C   UNL     1      -1.495   5.739  -4.849  0.00  0.00    +0.006 C 
ATOM     28  C   UNL     1      -2.508   5.701  -3.704  0.00  0.00    +0.022 C 
ENDBRANCH  24  28
ENDBRANCH  20  24
ENDBRANCH  13  21
ENDBRANCH   1  13
BRANCH   2  29
ATOM     29  C   UNL     1      -3.347   1.166   3.335  0.00  0.00    +0.242 C 
BRANCH  29  30
ATOM     30  N   UNL     1      -3.857   1.253   4.705  0.00  0.00    -0.235 N 
ATOM     31  C   UNL     1      -3.270   1.908   5.762  0.00  0.00    +0.090 A 
ATOM     32  C   UNL     1      -2.105   2.654   5.909  0.00  0.00    +0.029 A 
ATOM     33  C   UNL     1      -1.789   3.186   7.128  0.00  0.00    +0.002 A 
ATOM     34  C   UNL     1      -2.627   2.998   8.220  0.00  0.00    +0.002 A 
ATOM     35  C   UNL     1      -3.777   2.275   8.100  0.00  0.00    +0.032 A 
ATOM     36  C   UNL     1      -4.122   1.714   6.863  0.00  0.00    +0.113 A 
ATOM     37  N   UNL     1      -5.165   0.970   6.446  0.00  0.00    -0.129 NA
ATOM     38  N   UNL     1      -5.042   0.686   5.198  0.00  0.00    -0.064 NA
ENDBRANCH  29  30
ENDBRANCH   2  29
TORSDOF 9
