REMARK  Name = ZINC02111579
REMARK  8 active torsions:
REMARK  status: ('A' for Active; 'I' for Inactive)
REMARK    1  A    between atoms: C_1  and  C_2
REMARK    2  A    between atoms: C_6  and  O_29
REMARK    3  A    between atoms: C_7  and  C_28
REMARK    4  A    between atoms: C_12  and  C_13
REMARK    5  A    between atoms: C_13  and  C_14
REMARK    6  A    between atoms: C_19  and  O_27
REMARK    7  A    between atoms: O_29  and  C_30
REMARK    8  A    between atoms: C_30  and  C_31
REMARK                            x       y       z     vdW  Elec       q    Type
REMARK                         _______ _______ _______ _____ _____    ______ ____
ROOT
ATOM      1  C   UNL     1       2.445   4.356   0.002  0.00  0.00    +0.045 C 
ATOM      2  C   UNL     1       1.169   3.554   0.010  0.00  0.00    -0.029 A 
ATOM      3  C   UNL     1       1.200   2.090   0.002  0.00  0.00    +0.021 A 
ATOM      4  C   UNL     1       2.414   1.395  -0.013  0.00  0.00    +0.015 A 
ATOM      5  C   UNL     1       2.415   0.031  -0.020  0.00  0.00    +0.047 A 
ATOM      6  C   UNL     1       1.213  -0.676  -0.013  0.00  0.00    +0.127 A 
ATOM      7  C   UNL     1       0.002  -0.004   0.002  0.00  0.00    +0.034 A 
ATOM      8  C   UNL     1      -0.017   1.383   0.010  0.00  0.00    +0.146 A 
ATOM      9  O   UNL     1      -1.187   2.057   0.019  0.00  0.00    -0.422 OA
ATOM     10  C   UNL     1      -1.222   3.398   0.032  0.00  0.00    +0.341 A 
ATOM     11  O   UNL     1      -2.301   3.964   0.045  0.00  0.00    -0.245 OA
ATOM     12  C   UNL     1      -0.042   4.170   0.025  0.00  0.00    +0.049 A 
ATOM     13  C   UNL     1      -1.291  -0.778   0.011  0.00  0.00    +0.051 C 
ENDROOT
BRANCH  12  14
ATOM     14  C   UNL     1      -0.124   5.675   0.034  0.00  0.00    +0.138 C 
BRANCH  14  15
ATOM     15  C   UNL     1      -0.164   6.185  -1.384  0.00  0.00    +0.220 C 
ATOM     16  O   UNL     1      -0.130   5.403  -2.310  0.00  0.00    -0.275 OA
ATOM     17  N   UNL     1      -0.238   7.509  -1.622  0.00  0.00    -0.301 N 
ATOM     18  C   UNL     1      -0.281   8.469  -0.510  0.00  0.00    +0.110 C 
ATOM     19  C   UNL     1      -1.502   9.376  -0.688  0.00  0.00    +0.054 C 
ATOM     20  C   UNL     1      -1.455  10.025  -2.074  0.00  0.00    +0.072 C 
ATOM     21  C   UNL     1      -2.668  10.945  -2.241  0.00  0.00    +0.035 C 
ATOM     22  C   UNL     1      -3.951  10.126  -2.083  0.00  0.00    +0.003 C 
ATOM     23  C   UNL     1      -3.993   9.030  -3.149  0.00  0.00    +0.001 C 
ATOM     24  C   UNL     1      -2.778   8.114  -2.990  0.00  0.00    +0.008 C 
ATOM     25  C   UNL     1      -1.497   8.937  -3.150  0.00  0.00    +0.038 C 
ATOM     26  C   UNL     1      -0.273   8.022  -2.998  0.00  0.00    +0.114 C 
BRANCH  20  27
ATOM     27  O   UNL     1      -0.251  10.782  -2.207  0.00  0.00    -0.388 OA
ATOM     28  H   UNL     1      -0.159  11.492  -1.556  0.00  0.00    +0.210 HD
ENDBRANCH  20  27
ENDBRANCH  14  15
ENDBRANCH  12  14
BRANCH   6  29
ATOM     29  O   UNL     1       1.230  -2.033  -0.021  0.00  0.00    -0.487 OA
BRANCH  29  30
ATOM     30  C   UNL     1       2.512  -2.666  -0.036  0.00  0.00    +0.267 C 
BRANCH  30  31
ATOM     31  C   UNL     1       2.333  -4.162  -0.043  0.00  0.00    +0.025 A 
ATOM     32  C   UNL     1       1.063  -4.707  -0.028  0.00  0.00    +0.010 A 
ATOM     33  C   UNL     1       0.898  -6.079  -0.039  0.00  0.00    +0.001 A 
ATOM     34  C   UNL     1       2.005  -6.909  -0.054  0.00  0.00    +0.003 A 
ATOM     35  C   UNL     1       3.275  -6.367  -0.063  0.00  0.00    +0.039 A 
ATOM     36  C   UNL     1       3.441  -4.992  -0.058  0.00  0.00    +0.130 A 
ATOM     37  F   UNL     1       4.683  -4.460  -0.066  0.00  0.00    -0.205 F 
ENDBRANCH  30  31
ENDBRANCH  29  30
ENDBRANCH   6  29
TORSDOF 6
