REMARK  Name = ZINC58955016
REMARK  10 active torsions:
REMARK  status: ('A' for Active; 'I' for Inactive)
REMARK    1  A    between atoms: C_1  and  C_2
REMARK    2  A    between atoms: N_7  and  C_9
REMARK    3  A    between atoms: C_9  and  C_11
REMARK    4  A    between atoms: C_9  and  C_12
REMARK    5  A    between atoms: C_12  and  N_13
REMARK    6  A    between atoms: C_14  and  C_16
REMARK    7  A    between atoms: C_20  and  S_22
REMARK    8  A    between atoms: S_22  and  N_25
REMARK    9  A    between atoms: C_27  and  C_34
REMARK   10  A    between atoms: C_30  and  C_33
REMARK                            x       y       z     vdW  Elec       q    Type
REMARK                         _______ _______ _______ _____ _____    ______ ____
ROOT
ATOM      1  C   UNL     1       2.635  -6.476  -0.037  0.00  0.00    +0.039 A 
ATOM      2  C   UNL     1       3.327  -5.650  -0.925  0.00  0.00    +0.013 A 
ATOM      3  C   UNL     1       3.961  -6.199  -2.020  0.00  0.00    +0.003 A 
ATOM      4  C   UNL     1       3.911  -7.564  -2.240  0.00  0.00    +0.028 A 
ATOM      5  C   UNL     1       3.227  -8.388  -1.365  0.00  0.00    +0.106 A 
ATOM      6  C   UNL     1       2.593  -7.853  -0.262  0.00  0.00    +0.041 A 
ENDROOT
BRANCH   1   8
ATOM      7  N   UNL     1       1.995  -4.565   1.353  0.00  0.00    -0.313 N 
ATOM      8  C   UNL     1       1.953  -5.895   1.139  0.00  0.00    +0.244 C 
ATOM      9  O   UNL     1       1.355  -6.617   1.913  0.00  0.00    -0.270 OA
ATOM     10  H   UNL     1       2.472  -3.989   0.736  0.00  0.00    +0.149 HD
BRANCH   7  11
ATOM     11  C   UNL     1       1.320  -3.989   2.519  0.00  0.00    +0.089 C 
BRANCH  11  12
ATOM     12  C   UNL     1       1.403  -2.463   2.455  0.00  0.00    -0.054 C 
ATOM     13  C   UNL     1       0.598  -1.859   3.607  0.00  0.00    -0.012 C 
BRANCH  12  19
ATOM     14  C   UNL     1      -2.636  -2.213  -0.299  0.00  0.00    +0.005 C 
ATOM     15  C   UNL     1      -1.141  -1.893  -0.244  0.00  0.00    -0.031 C 
ATOM     16  C   UNL     1      -0.932  -0.389  -0.444  0.00  0.00    -0.001 C 
ATOM     17  C   UNL     1       0.559  -0.068  -0.309  0.00  0.00    -0.018 C 
ATOM     18  C   UNL     1       1.057  -0.547   1.057  0.00  0.00    -0.078 C 
ATOM     19  N   UNL     1       0.854  -1.996   1.175  0.00  0.00    +0.383 N 
ATOM     20  C   UNL     1      -0.580  -2.305   1.118  0.00  0.00    -0.075 C 
ATOM     21  H   UNL     1       1.327  -2.464   0.417  0.00  0.00    -0.081 HD
ENDBRANCH  12  19
ENDBRANCH  11  12
ENDBRANCH   7  11
ENDBRANCH   1   8
BRANCH   5  22
ATOM     22  S   UNL     1       3.170 -10.125  -1.655  0.00  0.00    +0.061 S 
ATOM     23  O   UNL     1       2.010 -10.609  -0.991  0.00  0.00    -0.153 OA
ATOM     24  O   UNL     1       3.385 -10.311  -3.047  0.00  0.00    -0.153 OA
BRANCH  22  25
ATOM     25  N   UNL     1       4.472 -10.794  -0.880  0.00  0.00    -0.176 NA
ATOM     26  C   UNL     1       5.760 -10.940  -1.572  0.00  0.00    +0.112 C 
ATOM     27  C   UNL     1       6.853 -10.284  -0.722  0.00  0.00    +0.002 C 
ATOM     28  C   UNL     1       6.824 -10.880   0.687  0.00  0.00    +0.009 C 
ATOM     29  C   UNL     1       5.469 -10.593   1.338  0.00  0.00    +0.002 C 
ATOM     30  C   UNL     1       4.362 -11.247   0.513  0.00  0.00    +0.112 C 
ATOM     31  C   UNL     1       5.454 -11.161   2.758  0.00  0.00    +0.009 C 
ATOM     32  C   UNL     1       8.219 -10.542  -1.359  0.00  0.00    +0.009 C 
ENDBRANCH  22  25
ENDBRANCH   5  22
TORSDOF 6
