REMARK  Name = ZINC01102033
REMARK  6 active torsions:
REMARK  status: ('A' for Active; 'I' for Inactive)
REMARK    1  A    between atoms: C_1  and  C_2
REMARK    2  A    between atoms: N_7  and  C_9
REMARK    3  A    between atoms: C_9  and  C_10
REMARK    4  A    between atoms: C_10  and  C_23
REMARK    5  A    between atoms: C_23  and  N_24
REMARK    6  A    between atoms: C_28  and  C_31
REMARK                            x       y       z     vdW  Elec       q    Type
REMARK                         _______ _______ _______ _____ _____    ______ ____
ROOT
ATOM      1  C   UNL     1       0.925  -3.951   2.745  0.00  0.00    +0.066 C 
ATOM      2  C   UNL     1      -0.433  -4.667   2.697  0.00  0.00    +0.243 C 
ATOM      3  O   UNL     1      -1.170  -4.208   1.564  0.00  0.00    -0.489 OA
ATOM      4  C   UNL     1      -0.582  -4.247   0.345  0.00  0.00    +0.145 A 
ATOM      5  C   UNL     1       0.817  -4.268   0.222  0.00  0.00    +0.062 A 
ATOM      6  C   UNL     1       1.411  -4.298  -1.040  0.00  0.00    +0.030 A 
ATOM      7  C   UNL     1       0.617  -4.312  -2.168  0.00  0.00    +0.020 A 
ATOM      8  C   UNL     1      -0.765  -4.296  -2.047  0.00  0.00    +0.034 A 
ATOM      9  C   UNL     1      -1.363  -4.264  -0.803  0.00  0.00    +0.061 A 
ATOM     10 BR   UNL     1      -3.249  -4.244  -0.662  0.00  0.00    -0.046 Br
ATOM     11 BR   UNL     1       1.413  -4.352  -3.883  0.00  0.00    -0.050 Br
ATOM     12  C   UNL     1       1.642  -4.264   1.443  0.00  0.00    +0.175 C 
ATOM     13  O   UNL     1       2.832  -4.497   1.410  0.00  0.00    -0.291 OA
ENDROOT
BRANCH   1  14
ATOM     14  C   UNL     1       0.714  -2.441   2.874  0.00  0.00    -0.059 C 
BRANCH  14  20
ATOM     15  C   UNL     1      -3.499  -0.701   1.089  0.00  0.00    +0.005 C 
ATOM     16  C   UNL     1      -2.065  -1.102   0.737  0.00  0.00    -0.031 C 
ATOM     17  C   UNL     1      -1.332   0.099   0.132  0.00  0.00    -0.001 C 
ATOM     18  C   UNL     1       0.124  -0.289  -0.143  0.00  0.00    -0.018 C 
ATOM     19  C   UNL     1       0.772  -0.770   1.156  0.00  0.00    -0.079 C 
ATOM     20  N   UNL     1       0.042  -1.936   1.670  0.00  0.00    +0.381 N 
ATOM     21  C   UNL     1      -1.335  -1.554   2.004  0.00  0.00    -0.076 C 
ATOM     22  H   UNL     1       0.028  -2.659   0.966  0.00  0.00    -0.082 HD
ENDBRANCH  14  20
ENDBRANCH   1  14
BRANCH   1  23
ATOM     23  C   UNL     1       1.746  -4.466   3.929  0.00  0.00    +0.100 C 
BRANCH  23  24
ATOM     24  N   UNL     1       1.657  -5.931   3.986  0.00  0.00    -0.301 NA
ATOM     25  C   UNL     1       1.954  -6.424   5.337  0.00  0.00    +0.084 C 
ATOM     26  C   UNL     1       1.711  -7.934   5.396  0.00  0.00    +0.016 C 
ATOM     27  C   UNL     1       2.608  -8.630   4.369  0.00  0.00    +0.006 C 
ATOM     28  C   UNL     1       2.313  -8.065   2.978  0.00  0.00    +0.000 C 
ATOM     29  C   UNL     1       2.539  -6.551   2.989  0.00  0.00    +0.087 C 
ATOM     30  C   UNL     1       3.247  -8.714   1.954  0.00  0.00    +0.009 C 
ENDBRANCH  23  24
ENDBRANCH   1  23
TORSDOF 4
