REMARK  Name = ZINC63373829
REMARK  5 active torsions:
REMARK  status: ('A' for Active; 'I' for Inactive)
REMARK    1  A    between atoms: C_1  and  C_2
REMARK    2  A    between atoms: C_13  and  C_29
REMARK    3  A    between atoms: N_19  and  C_22
REMARK    4  A    between atoms: C_34  and  O_35
REMARK    5  A    between atoms: O_35  and  C_36
REMARK                            x       y       z     vdW  Elec       q    Type
REMARK                         _______ _______ _______ _____ _____    ______ ____
ROOT
ATOM      1  C   UNL     1      -0.027   1.515  -0.021  0.00  0.00    +0.044 C 
ATOM      2  C   UNL     1       0.005  -0.015  -0.004  0.00  0.00    +0.137 C 
ATOM      3  C   UNL     1       0.737  -0.569  -1.227  0.00  0.00    +0.139 C 
ATOM      4  C   UNL     1       1.859  -1.461  -0.715  0.00  0.00    -0.027 C 
ATOM      5  C   UNL     1       1.671  -2.653  -1.276  0.00  0.00    -0.000 A 
ATOM      6  C   UNL     1       2.457  -3.895  -1.214  0.00  0.00    +0.010 A 
ATOM      7  C   UNL     1       1.962  -4.952  -1.912  0.00  0.00    +0.001 A 
ATOM      8  C   UNL     1       0.780  -4.895  -2.656  0.00  0.00    +0.002 A 
ATOM      9  C   UNL     1      -0.004  -3.794  -2.772  0.00  0.00    +0.026 A 
ATOM     10  C   UNL     1       0.416  -2.617  -2.086  0.00  0.00    +0.043 A 
ATOM     11  N   UNL     1      -0.131  -1.421  -2.041  0.00  0.00    -0.375 N 
ATOM     12  C   UNL     1       2.892  -1.012   0.290  0.00  0.00    +0.069 C 
ATOM     13  C   UNL     1       2.123  -0.402   1.479  0.00  0.00    +0.123 C 
ATOM     14  N   UNL     1       0.690  -0.528   1.200  0.00  0.00    -0.268 N 
ATOM     15  C   UNL     1      -0.245  -1.138   1.943  0.00  0.00    +0.317 C 
ATOM     16  O   UNL     1      -0.045  -1.574   3.059  0.00  0.00    -0.252 OA
ATOM     17  N   UNL     1      -1.425  -1.211   1.312  0.00  0.00    -0.192 N 
ATOM     18  C   UNL     1      -1.387  -0.595   0.113  0.00  0.00    +0.253 C 
ATOM     19  O   UNL     1      -2.282  -0.521  -0.702  0.00  0.00    -0.272 OA
ATOM     20  H   UNL     1      -0.960  -1.147  -2.464  0.00  0.00    +0.160 HD
ENDROOT
BRANCH  17  21
ATOM     21  C   UNL     1      -2.559  -1.848   1.835  0.00  0.00    +0.046 A 
ATOM     22  C   UNL     1      -2.471  -2.560   3.024  0.00  0.00    +0.025 A 
ATOM     23  C   UNL     1      -3.590  -3.187   3.537  0.00  0.00    +0.017 A 
ATOM     24  C   UNL     1      -4.798  -3.105   2.868  0.00  0.00    +0.018 A 
ATOM     25  C   UNL     1      -4.888  -2.397   1.683  0.00  0.00    +0.017 A 
ATOM     26  C   UNL     1      -3.774  -1.764   1.168  0.00  0.00    +0.025 A 
ATOM     27 BR   UNL     1      -6.328  -3.964   3.573  0.00  0.00    -0.050 Br
ENDBRANCH  17  21
BRANCH  12  28
ATOM     28  C   UNL     1       3.707  -2.192   0.752  0.00  0.00    +0.003 A 
ATOM     29  C   UNL     1       3.087  -3.262   1.370  0.00  0.00    +0.008 A 
ATOM     30  C   UNL     1       3.834  -4.344   1.794  0.00  0.00    +0.001 A 
ATOM     31  C   UNL     1       5.203  -4.361   1.602  0.00  0.00    +0.004 A 
ATOM     32  C   UNL     1       5.828  -3.295   0.985  0.00  0.00    +0.046 A 
ATOM     33  C   UNL     1       5.079  -2.209   0.553  0.00  0.00    +0.124 A 
BRANCH  33  34
ATOM     34  O   UNL     1       5.691  -1.161  -0.060  0.00  0.00    -0.495 OA
ATOM     35  C   UNL     1       7.107  -1.246  -0.232  0.00  0.00    +0.277 C 
ENDBRANCH  33  34
ENDBRANCH  12  28
TORSDOF 3
