REMARK  Name = ZINC32604854
REMARK  6 active torsions:
REMARK  status: ('A' for Active; 'I' for Inactive)
REMARK    1  A    between atoms: C_1  and  N_2
REMARK    2  A    between atoms: C_3  and  C_23
REMARK    3  A    between atoms: C_6  and  S_7
REMARK    4  A    between atoms: S_7  and  C_8
REMARK    5  A    between atoms: C_8  and  C_9
REMARK    6  A    between atoms: N_11  and  C_12
REMARK                            x       y       z     vdW  Elec       q    Type
REMARK                         _______ _______ _______ _____ _____    ______ ____
ROOT
ATOM      1  C   UNL     1       0.686  -0.108   0.102  0.00  0.00    +0.173 C 
ENDROOT
BRANCH   1   2
ATOM      2  C   UNL     1       0.217  -0.140   1.534  0.00  0.00    +0.227 C 
ATOM      3  O   UNL     1      -0.686   0.587   1.892  0.00  0.00    -0.275 OA
ATOM      4  N   UNL     1       0.799  -0.976   2.416  0.00  0.00    -0.285 N 
ATOM      5  H   UNL     1       1.671  -1.574   2.114  0.00  0.00    +0.155 HD
BRANCH   4   6
ATOM      6  C   UNL     1       0.294  -1.083   3.718  0.00  0.00    +0.037 A 
ATOM      7  C   UNL     1       1.157  -1.317   4.780  0.00  0.00    +0.027 A 
ATOM      8  C   UNL     1       0.663  -1.419   6.067  0.00  0.00    +0.051 A 
ATOM      9  C   UNL     1      -0.698  -1.297   6.294  0.00  0.00    +0.162 A 
ATOM     10  C   UNL     1      -1.564  -1.068   5.234  0.00  0.00    +0.164 A 
ATOM     11  C   UNL     1      -1.071  -0.961   3.945  0.00  0.00    +0.072 A 
ATOM     12  O   UNL     1      -2.903  -0.949   5.471  0.00  0.00    -0.488 OA
ATOM     13  C   UNL     1      -3.570  -2.139   5.896  0.00  0.00    +0.232 C 
ATOM     14  C   UNL     1      -3.435  -2.325   7.399  0.00  0.00    +0.082 C 
ATOM     15  C   UNL     1      -1.994  -2.555   7.827  0.00  0.00    +0.232 C 
ATOM     16  O   UNL     1      -1.196  -1.400   7.561  0.00  0.00    -0.488 OA
ENDBRANCH   4   6
ENDBRANCH   1   2
BRANCH   1  17
ATOM     17  S   UNL     1      -0.284   1.106  -0.825  0.00  0.00    -0.077 S 
BRANCH  17  23
ATOM     18  C   UNL     1      -0.929   2.649  -3.676  0.00  0.00    +0.153 C 
ATOM     19  N   UNL     1       0.114   1.628  -3.544  0.00  0.00    -0.305 N 
ATOM     20  C   UNL     1       0.955   1.166  -4.530  0.00  0.00    +0.165 A 
ATOM     21  N   UNL     1       1.730   0.259  -3.982  0.00  0.00    -0.128 NA
ATOM     22  N   UNL     1       1.440   0.129  -2.736  0.00  0.00    -0.122 NA
ATOM     23  C   UNL     1       0.455   0.938  -2.416  0.00  0.00    +0.192 A 
BRANCH  20  24
ATOM     24  C   UNL     1       0.980   1.606  -5.941  0.00  0.00    +0.019 A 
ATOM     25  C   UNL     1       1.618   0.827  -6.907  0.00  0.00    +0.012 A 
ATOM     26  C   UNL     1       1.634   1.241  -8.223  0.00  0.00    +0.016 A 
ATOM     27  C   UNL     1       1.029   2.432  -8.584  0.00  0.00    +0.018 A 
ATOM     28  C   UNL     1       0.400   3.213  -7.629  0.00  0.00    +0.016 A 
ATOM     29  C   UNL     1       0.372   2.807  -6.311  0.00  0.00    +0.012 A 
ATOM     30 BR   UNL     1       1.063   2.997 -10.388  0.00  0.00    -0.050 Br
ENDBRANCH  20  24
ENDBRANCH  17  23
ENDBRANCH   1  17
TORSDOF 5
