REMARK  Name = ZINC67021492
REMARK  10 active torsions:
REMARK  status: ('A' for Active; 'I' for Inactive)
REMARK    1  A    between atoms: C_1  and  C_2
REMARK    2  A    between atoms: C_2  and  C_4
REMARK    3  A    between atoms: C_8  and  O_10
REMARK    4  A    between atoms: O_10  and  C_11
REMARK    5  A    between atoms: C_11  and  C_12
REMARK    6  A    between atoms: N_14  and  C_15
REMARK    7  A    between atoms: C_20  and  S_21
REMARK    8  A    between atoms: S_21  and  C_22
REMARK    9  A    between atoms: N_24  and  C_25
REMARK   10  A    between atoms: N_24  and  C_26
REMARK                            x       y       z     vdW  Elec       q    Type
REMARK                         _______ _______ _______ _____ _____    ______ ____
ROOT
ATOM      1  C   UNL     1       0.250  -6.314  -3.495  0.00  0.00    +0.255 C 
ATOM      2  O   UNL     1       0.251  -6.827  -2.396  0.00  0.00    -0.272 OA
ATOM      3  N   UNL     1       0.191  -7.086  -4.598  0.00  0.00    -0.282 N 
ATOM      4  H   UNL     1       0.122  -6.675  -5.474  0.00  0.00    +0.155 HD
ENDROOT
BRANCH   3   5
ATOM      5  C   UNL     1       0.232  -8.481  -4.480  0.00  0.00    +0.047 A 
ATOM      6  C   UNL     1      -0.346  -9.103  -3.383  0.00  0.00    +0.024 A 
ATOM      7  C   UNL     1      -0.305 -10.480  -3.268  0.00  0.00    +0.002 A 
ATOM      8  C   UNL     1       0.312 -11.241  -4.244  0.00  0.00    +0.001 A 
ATOM      9  C   UNL     1       0.890 -10.630  -5.340  0.00  0.00    +0.017 A 
ATOM     10  C   UNL     1       0.848  -9.249  -5.467  0.00  0.00    +0.038 A 
BRANCH  10  11
ATOM     11  S   UNL     1       1.578  -8.468  -6.868  0.00  0.00    -0.030 S 
BRANCH  11  12
ATOM     12  C   UNL     1       3.075  -7.782  -6.241  0.00  0.00    +0.279 C 
ATOM     13  O   UNL     1       3.322  -7.846  -5.052  0.00  0.00    -0.262 OA
ATOM     14  N   UNL     1       3.946  -7.186  -7.079  0.00  0.00    -0.298 N 
ATOM     15  C   UNL     1       5.191  -6.616  -6.558  0.00  0.00    +0.132 C 
ATOM     16  C   UNL     1       3.649  -7.109  -8.511  0.00  0.00    +0.132 C 
ENDBRANCH  11  12
ENDBRANCH  10  11
ENDBRANCH   3   5
BRANCH   1  17
ATOM     17  C   UNL     1       0.313  -4.814  -3.627  0.00  0.00    +0.324 C 
BRANCH  17  18
ATOM     18  O   UNL     1       0.367  -4.223  -2.327  0.00  0.00    -0.483 OA
BRANCH  18  23
ATOM     19  C   UNL     1       0.545  -0.835  -0.985  0.00  0.00    +0.021 A 
ATOM     20  C   UNL     1       0.552  -0.093  -2.171  0.00  0.00    +0.011 A 
ATOM     21  C   UNL     1       0.498  -0.740  -3.387  0.00  0.00    +0.004 A 
ATOM     22  C   UNL     1       0.436  -2.121  -3.439  0.00  0.00    +0.046 A 
ATOM     23  C   UNL     1       0.429  -2.867  -2.268  0.00  0.00    +0.122 A 
ATOM     24  C   UNL     1       0.489  -2.230  -1.040  0.00  0.00    +0.057 A 
BRANCH  19  26
ATOM     25  C   UNL     1       0.664   1.356   0.373  0.00  0.00    +0.091 C 
ATOM     26  C   UNL     1       0.603  -0.149   0.316  0.00  0.00    +0.160 C 
ATOM     27  O   UNL     1       0.602  -0.794   1.343  0.00  0.00    -0.292 OA
ENDBRANCH  19  26
ENDBRANCH  18  23
ENDBRANCH  17  18
ENDBRANCH   1  17
TORSDOF 7
