REMARK  Name = ZINC01182289
REMARK  5 active torsions:
REMARK  status: ('A' for Active; 'I' for Inactive)
REMARK    1  A    between atoms: C_1  and  C_2
REMARK    2  A    between atoms: C_2  and  C_3
REMARK    3  A    between atoms: C_15  and  C_17
REMARK    4  A    between atoms: C_20  and  N_23
REMARK    5  A    between atoms: C_29  and  C_32
REMARK                            x       y       z     vdW  Elec       q    Type
REMARK                         _______ _______ _______ _____ _____    ______ ____
ROOT
ATOM      1  C   UNL     1      -5.862   5.140   2.021  0.00  0.00    +0.220 C 
ATOM      2  O   UNL     1      -6.732   4.298   2.095  0.00  0.00    -0.275 OA
ATOM      3  N   UNL     1      -4.957   5.088   1.024  0.00  0.00    -0.258 N 
ATOM      4  C   UNL     1      -3.961   6.063   0.949  0.00  0.00    +0.058 A 
ATOM      5  C   UNL     1      -2.989   6.181   1.929  0.00  0.00    +0.025 A 
ATOM      6  C   UNL     1      -1.994   7.133   1.789  0.00  0.00    +0.002 A 
ATOM      7  C   UNL     1      -1.968   7.960   0.680  0.00  0.00    +0.002 A 
ATOM      8  C   UNL     1      -2.948   7.856  -0.292  0.00  0.00    +0.025 A 
ATOM      9  C   UNL     1      -3.955   6.918  -0.142  0.00  0.00    +0.053 A 
ATOM     10  N   UNL     1      -5.026   6.833  -1.023  0.00  0.00    -0.316 N 
ATOM     11  C   UNL     1      -5.311   5.753  -1.794  0.00  0.00    +0.017 C 
ATOM     12  C   UNL     1      -5.335   4.484  -1.359  0.00  0.00    +0.037 C 
ATOM     13  C   UNL     1      -5.034   4.022   0.048  0.00  0.00    +0.147 C 
ATOM     14  C   UNL     1      -5.669   3.432  -2.245  0.00  0.00    +0.163 C 
ATOM     15  O   UNL     1      -5.670   2.291  -1.826  0.00  0.00    -0.292 OA
ATOM     16  C   UNL     1      -6.021   3.674  -3.682  0.00  0.00    +0.088 C 
ATOM     17  C   UNL     1      -6.619   5.080  -3.809  0.00  0.00    +0.032 C 
ATOM     18  C   UNL     1      -5.599   6.071  -3.252  0.00  0.00    +0.059 C 
ATOM     19  H   UNL     1      -5.612   7.603  -1.093  0.00  0.00    +0.152 HD
ENDROOT
BRANCH  13  20
ATOM     20  C   UNL     1      -3.719   3.286   0.038  0.00  0.00    -0.022 A 
ATOM     21  C   UNL     1      -3.681   1.934   0.323  0.00  0.00    +0.008 A 
ATOM     22  C   UNL     1      -2.475   1.259   0.313  0.00  0.00    +0.033 A 
ATOM     23  C   UNL     1      -1.306   1.936   0.019  0.00  0.00    +0.126 A 
ATOM     24  C   UNL     1      -1.343   3.289  -0.260  0.00  0.00    +0.033 A 
ATOM     25  C   UNL     1      -2.550   3.963  -0.256  0.00  0.00    +0.008 A 
BRANCH  23  26
ATOM     26  N   UNL     1      -0.015   1.213   0.009  0.00  0.00    +0.056 N 
ATOM     27  O   UNL     1       0.018   0.022   0.260  0.00  0.00    -0.126 OA
ATOM     28  O   UNL     1       1.014   1.809  -0.255  0.00  0.00    -0.126 OA
ENDBRANCH  23  26
ENDBRANCH  13  20
BRANCH  17  29
ATOM     29  C   UNL     1      -6.894   5.389  -5.258  0.00  0.00    -0.044 A 
ATOM     30  C   UNL     1      -5.863   5.359  -6.178  0.00  0.00    +0.004 A 
ATOM     31  C   UNL     1      -6.116   5.638  -7.508  0.00  0.00    +0.000 A 
ATOM     32  C   UNL     1      -7.398   5.957  -7.916  0.00  0.00    +0.000 A 
ATOM     33  C   UNL     1      -8.428   5.993  -6.994  0.00  0.00    +0.000 A 
ATOM     34  C   UNL     1      -8.176   5.709  -5.665  0.00  0.00    +0.004 A 
ENDBRANCH  17  29
BRANCH   1  36
ATOM     35  C   UNL     1      -6.926   6.072   4.058  0.00  0.00    +0.013 C 
ATOM     36  C   UNL     1      -5.793   6.245   3.044  0.00  0.00    +0.093 C 
ENDBRANCH   1  36
TORSDOF 4
