REMARK  Name = ZINC20713586
REMARK  8 active torsions:
REMARK  status: ('A' for Active; 'I' for Inactive)
REMARK    1  A    between atoms: C_1  and  C_2
REMARK    2  A    between atoms: C_2  and  C_3
REMARK    3  A    between atoms: C_3  and  C_5
REMARK    4  A    between atoms: C_3  and  N_6
REMARK    5  A    between atoms: N_6  and  S_7
REMARK    6  A    between atoms: S_7  and  C_10
REMARK    7  A    between atoms: C_23  and  C_26
REMARK    8  A    between atoms: C_31  and  N_32
REMARK                            x       y       z     vdW  Elec       q    Type
REMARK                         _______ _______ _______ _____ _____    ______ ____
ROOT
ATOM      1  C   UNL     1      -5.210   0.137  -1.039  0.00  0.00    +0.106 A 
ATOM      2  C   UNL     1      -5.311   0.328   0.328  0.00  0.00    +0.030 A 
ATOM      3  C   UNL     1      -4.732   1.438   0.908  0.00  0.00    +0.025 A 
ATOM      4  C   UNL     1      -4.051   2.359   0.120  0.00  0.00    +0.031 A 
ATOM      5  C   UNL     1      -3.950   2.174  -1.247  0.00  0.00    -0.018 A 
ATOM      6  C   UNL     1      -4.535   1.052  -1.821  0.00  0.00    +0.034 A 
ATOM      7  C   UNL     1      -3.230   3.137  -2.152  0.00  0.00    +0.049 C 
ATOM      8  C   UNL     1      -4.239   3.649  -3.170  0.00  0.00    -0.023 C 
ATOM      9  C   UNL     1      -4.730   4.802  -2.788  0.00  0.00    -0.030 C 
ATOM     10  C   UNL     1      -4.119   5.226  -1.464  0.00  0.00    +0.033 C 
ATOM     11  C   UNL     1      -2.799   4.420  -1.419  0.00  0.00    +0.029 C 
ATOM     12  C   UNL     1      -2.375   4.148   0.011  0.00  0.00    +0.107 C 
ATOM     13  N   UNL     1      -3.464   3.475   0.728  0.00  0.00    -0.336 N 
ATOM     14  H   UNL     1      -3.793   3.850   1.708  0.00  0.00    +0.147 HD
ENDROOT
BRANCH  12  15
ATOM     15  C   UNL     1      -1.152   3.267   0.013  0.00  0.00    +0.003 A 
ATOM     16  C   UNL     1      -1.278   1.911   0.257  0.00  0.00    +0.008 A 
ATOM     17  C   UNL     1      -0.156   1.104   0.264  0.00  0.00    +0.000 A 
ATOM     18  C   UNL     1       1.090   1.650   0.017  0.00  0.00    +0.002 A 
ATOM     19  C   UNL     1       1.215   3.003  -0.231  0.00  0.00    +0.033 A 
ATOM     20  C   UNL     1       0.093   3.812  -0.234  0.00  0.00    +0.131 A 
BRANCH  20  21
ATOM     21  N   UNL     1       0.227   5.262  -0.500  0.00  0.00    +0.057 N 
ATOM     22  O   UNL     1       1.332   5.760  -0.619  0.00  0.00    -0.126 OA
ATOM     23  O   UNL     1      -0.768   5.957  -0.600  0.00  0.00    -0.126 OA
ENDBRANCH  20  21
ENDBRANCH  12  15
BRANCH   1  24
ATOM     24  S   UNL     1      -5.946  -1.280  -1.784  0.00  0.00    +0.059 S 
ATOM     25  O   UNL     1      -5.244  -1.511  -2.998  0.00  0.00    -0.153 OA
ATOM     26  O   UNL     1      -6.051  -2.265  -0.765  0.00  0.00    -0.153 OA
BRANCH  24  27
ATOM     27  N   UNL     1      -7.493  -0.865  -2.203  0.00  0.00    -0.187 NA
ATOM     28  H   UNL     1      -8.332  -1.241  -1.599  0.00  0.00    +0.148 HD
BRANCH  27  29
ATOM     29  C   UNL     1      -7.726   0.160  -3.223  0.00  0.00    +0.073 C 
ATOM     30  C   UNL     1      -7.927  -0.511  -4.583  0.00  0.00    +0.025 C 
BRANCH  29  32
ATOM     31  C   UNL     1      -8.729   1.735  -1.563  0.00  0.00    +0.005 C 
ATOM     32  C   UNL     1      -8.976   0.965  -2.862  0.00  0.00    +0.017 C 
ENDBRANCH  29  32
ENDBRANCH  27  29
ENDBRANCH  24  27
ENDBRANCH   1  24
TORSDOF 6
