REMARK  Name = ZINC09129832
REMARK  6 active torsions:
REMARK  status: ('A' for Active; 'I' for Inactive)
REMARK    1  A    between atoms: C_1  and  C_2
REMARK    2  A    between atoms: C_2  and  C_3
REMARK    3  A    between atoms: C_2  and  C_4
REMARK    4  A    between atoms: C_4  and  C_5
REMARK    5  A    between atoms: N_13  and  C_16
REMARK    6  A    between atoms: C_16  and  C_17
REMARK                            x       y       z     vdW  Elec       q    Type
REMARK                         _______ _______ _______ _____ _____    ______ ____
ROOT
ATOM      1  C   UNL     1      -1.416  -2.058  -0.121  0.00  0.00    -0.057 C 
ATOM      2  C   UNL     1      -2.849  -2.622  -0.025  0.00  0.00    +0.073 C 
ATOM      3  C   UNL     1      -2.883  -3.797  -1.043  0.00  0.00    +0.088 C 
ATOM      4  C   UNL     1      -3.069  -5.013  -0.165  0.00  0.00    +0.225 C 
ATOM      5  O   UNL     1      -3.145  -6.157  -0.559  0.00  0.00    -0.275 OA
ATOM      6  N   UNL     1      -3.135  -4.631   1.116  0.00  0.00    -0.238 N 
ATOM      7  C   UNL     1      -3.029  -3.297   1.316  0.00  0.00    +0.224 C 
ATOM      8  O   UNL     1      -3.067  -2.729   2.386  0.00  0.00    -0.275 OA
ATOM      9  C   UNL     1      -1.486  -3.802  -1.673  0.00  0.00    +0.050 C 
ATOM     10  N   UNL     1      -0.938  -2.453  -1.473  0.00  0.00    +0.394 N 
ATOM     11  C   UNL     1      -1.539  -4.183  -3.126  0.00  0.00    -0.027 A 
ATOM     12  C   UNL     1      -2.180  -3.651  -4.222  0.00  0.00    +0.019 A 
ATOM     13  C   UNL     1      -2.032  -4.242  -5.465  0.00  0.00    +0.018 A 
ATOM     14  C   UNL     1      -1.238  -5.367  -5.602  0.00  0.00    +0.017 A 
ATOM     15  C   UNL     1      -0.595  -5.903  -4.506  0.00  0.00    +0.024 A 
ATOM     16  C   UNL     1      -0.739  -5.315  -3.252  0.00  0.00    +0.036 A 
ATOM     17  N   UNL     1      -0.202  -5.667  -2.011  0.00  0.00    -0.286 N 
ATOM     18  C   UNL     1      -0.595  -4.830  -1.031  0.00  0.00    +0.211 C 
ATOM     19  O   UNL     1      -0.289  -4.893   0.141  0.00  0.00    -0.277 OA
ATOM     20 BR   UNL     1      -2.912  -3.514  -6.972  0.00  0.00    -0.050 Br
ATOM     21  H   UNL     1      -1.303  -1.826  -2.174  0.00  0.00    -0.083 HD
ATOM     22  H   UNL     1       0.385  -6.426  -1.871  0.00  0.00    +0.155 HD
ATOM     23  H   UNL     1       0.071  -2.467  -1.501  0.00  0.00    -0.083 HD
ENDROOT
BRANCH   1  24
ATOM     24  C   UNL     1      -1.433  -0.534   0.013  0.00  0.00    -0.012 C 
BRANCH  24  26
ATOM     25  C   UNL     1      -0.019   1.526   0.010  0.00  0.00    +0.007 C 
ATOM     26  C   UNL     1       0.002  -0.004   0.002  0.00  0.00    -0.019 C 
ATOM     27  C   UNL     1       0.742  -0.511   1.242  0.00  0.00    +0.007 C 
ENDBRANCH  24  26
ENDBRANCH   1  24
BRANCH   6  28
ATOM     28  C   UNL     1      -3.317  -5.580   2.217  0.00  0.00    +0.143 C 
BRANCH  28  29
ATOM     29  C   UNL     1      -1.970  -6.042   2.710  0.00  0.00    -0.015 C 
ATOM     30  C   UNL     1      -1.656  -5.917   3.975  0.00  0.00    +0.005 C 
ENDBRANCH  28  29
ENDBRANCH   6  28
TORSDOF 4
