REMARK  Name = ZINC42164668
REMARK  2 active torsions:
REMARK  status: ('A' for Active; 'I' for Inactive)
REMARK    1  A    between atoms: C_3  and  C_16
REMARK    2  A    between atoms: C_16  and  C_17
REMARK                            x       y       z     vdW  Elec       q    Type
REMARK                         _______ _______ _______ _____ _____    ______ ____
ROOT
ATOM      1  C   UNL     1       5.510   2.905   1.329  0.00  0.00    +0.021 C 
ATOM      2  C   UNL     1       5.338   1.551   0.592  0.00  0.00    +0.024 C 
ATOM      3  C   UNL     1       4.068   1.777  -0.255  0.00  0.00    +0.088 C 
ATOM      4  N   UNL     1       3.312   2.869   0.375  0.00  0.00    -0.282 N 
ATOM      5  C   UNL     1       4.036   3.311   1.580  0.00  0.00    +0.110 C 
ATOM      6  C   UNL     1       2.150   3.382  -0.076  0.00  0.00    +0.305 C 
ATOM      7  O   UNL     1       1.672   2.980  -1.119  0.00  0.00    -0.252 OA
ATOM      8  N   UNL     1       1.517   4.340   0.630  0.00  0.00    -0.275 N 
ATOM      9  C   UNL     1       0.326   5.023   0.098  0.00  0.00    +0.128 C 
ATOM     10  C   UNL     1      -0.847   4.738   1.039  0.00  0.00    +0.123 C 
ATOM     11  N   UNL     1      -0.456   4.938   2.428  0.00  0.00    -0.313 N 
ATOM     12  C   UNL     1       0.802   4.904   2.872  0.00  0.00    +0.231 C 
ATOM     13  O   UNL     1       0.996   5.006   4.065  0.00  0.00    -0.274 OA
ATOM     14  C   UNL     1       1.986   4.742   1.965  0.00  0.00    +0.205 C 
ATOM     15  H   UNL     1      -1.158   5.107   3.074  0.00  0.00    +0.149 HD
ENDROOT
BRANCH   3  16
ATOM     16  C   UNL     1       3.224   0.501  -0.278  0.00  0.00    +0.147 C 
BRANCH  16  17
ATOM     17  C   UNL     1       4.049  -0.638  -0.820  0.00  0.00    +0.358 C 
ATOM     18  O   UNL     1       3.544  -1.453  -1.573  0.00  0.00    -0.246 OA
ATOM     19  O   UNL     1       5.223  -0.744  -0.506  0.00  0.00    -0.246 OA
ENDBRANCH  16  17
ENDBRANCH   3  16
TORSDOF 2
