REMARK  Name = ZINC40322229
REMARK  8 active torsions:
REMARK  status: ('A' for Active; 'I' for Inactive)
REMARK    1  A    between atoms: C_1  and  C_2
REMARK    2  A    between atoms: C_5  and  C_8
REMARK    3  A    between atoms: C_8  and  C_10
REMARK    4  A    between atoms: C_8  and  N_29
REMARK    5  A    between atoms: C_10  and  N_11
REMARK    6  A    between atoms: C_12  and  C_14
REMARK    7  A    between atoms: C_17  and  S_19
REMARK    8  A    between atoms: S_19  and  C_22
REMARK                            x       y       z     vdW  Elec       q    Type
REMARK                         _______ _______ _______ _____ _____    ______ ____
ROOT
ATOM      1  N   UNL     1      -2.199  -4.408  -1.002  0.00  0.00    -0.310 N 
ATOM      2  C   UNL     1      -3.504  -4.739  -1.058  0.00  0.00    +0.279 C 
ATOM      3  O   UNL     1      -3.988  -5.453  -0.199  0.00  0.00    -0.267 OA
ATOM      4  H   UNL     1      -1.813  -3.838  -1.686  0.00  0.00    +0.149 HD
ENDROOT
BRANCH   2   5
ATOM      5  C   UNL     1      -4.341  -4.239  -2.153  0.00  0.00    +0.192 A 
ATOM      6  C   UNL     1      -5.672  -4.492  -2.326  0.00  0.00    +0.056 A 
ATOM      7  C   UNL     1      -6.062  -3.818  -3.494  0.00  0.00    +0.070 A 
ATOM      8  C   UNL     1      -4.967  -3.191  -3.976  0.00  0.00    +0.246 A 
ATOM      9  O   UNL     1      -3.933  -3.443  -3.163  0.00  0.00    -0.433 OA
BRANCH   8  10
ATOM     10  S   UNL     1      -4.909  -2.201  -5.433  0.00  0.00    +0.058 S 
ATOM     11  O   UNL     1      -3.559  -2.210  -5.877  0.00  0.00    -0.161 OA
ATOM     12  O   UNL     1      -5.985  -2.628  -6.257  0.00  0.00    -0.161 OA
BRANCH  10  13
ATOM     13  C   UNL     1      -5.270  -0.545  -4.952  0.00  0.00    +0.097 A 
ATOM     14  C   UNL     1      -6.578  -0.099  -4.941  0.00  0.00    +0.029 A 
ATOM     15  C   UNL     1      -6.862   1.200  -4.563  0.00  0.00    +0.022 A 
ATOM     16  C   UNL     1      -5.837   2.054  -4.197  0.00  0.00    +0.041 A 
ATOM     17  C   UNL     1      -4.528   1.606  -4.208  0.00  0.00    +0.022 A 
ATOM     18  C   UNL     1      -4.246   0.305  -4.580  0.00  0.00    +0.029 A 
ATOM     19 CL   UNL     1      -6.193   3.686  -3.723  0.00  0.00    -0.084 Cl
ENDBRANCH  10  13
ENDBRANCH   8  10
ENDBRANCH   2   5
BRANCH   1  20
ATOM     20  C   UNL     1      -1.363  -4.908   0.093  0.00  0.00    +0.094 C 
BRANCH  20  21
ATOM     21  C   UNL     1       0.031  -4.283  -0.004  0.00  0.00    -0.020 C 
BRANCH  21  22
ATOM     22  N   UNL     1       0.887  -4.830   1.057  0.00  0.00    +0.385 N 
ATOM     23  C   UNL     1       2.195  -4.148   1.008  0.00  0.00    -0.078 C 
ATOM     24  C   UNL     1       2.824  -4.231   2.376  0.00  0.00    -0.019 C 
ATOM     25  C   UNL     1       3.804  -5.415   2.475  0.00  0.00    -0.002 C 
ATOM     26  C   UNL     1       3.256  -6.672   1.768  0.00  0.00    -0.002 C 
ATOM     27  C   UNL     1       1.785  -6.880   2.024  0.00  0.00    -0.019 C 
ATOM     28  C   UNL     1       0.978  -6.213   0.891  0.00  0.00    -0.078 C 
ATOM     29  H   UNL     1       0.457  -4.638   1.949  0.00  0.00    -0.081 HD
ENDBRANCH  21  22
BRANCH  21  34
ATOM     30  C   UNL     1      -0.382   1.448   0.612  0.00  0.00    +0.044 C 
ATOM     31  C   UNL     1      -0.275  -0.047   0.451  0.00  0.00    -0.050 A 
ATOM     32  C   UNL     1      -0.151  -0.600  -0.810  0.00  0.00    +0.003 A 
ATOM     33  C   UNL     1      -0.052  -1.970  -0.957  0.00  0.00    +0.002 A 
ATOM     34  C   UNL     1      -0.076  -2.789   0.157  0.00  0.00    -0.059 A 
ATOM     35  C   UNL     1      -0.199  -2.236   1.418  0.00  0.00    +0.002 A 
ATOM     36  C   UNL     1      -0.293  -0.865   1.565  0.00  0.00    +0.003 A 
ENDBRANCH  21  34
ENDBRANCH  20  21
ENDBRANCH   1  20
TORSDOF 7
