REMARK  Name = ZINC38633258
REMARK  4 active torsions:
REMARK  status: ('A' for Active; 'I' for Inactive)
REMARK    1  A    between atoms: C_13  and  N_29
REMARK    2  A    between atoms: C_13  and  S_30
REMARK    3  A    between atoms: C_14  and  S_25
REMARK    4  A    between atoms: N_18  and  C_19
REMARK                            x       y       z     vdW  Elec       q    Type
REMARK                         _______ _______ _______ _____ _____    ______ ____
ROOT
ATOM      1  C   UNL     1      -1.815  -1.084   0.133  0.00  0.00    +0.001 A 
ATOM      2  C   UNL     1      -1.050   0.058   0.277  0.00  0.00    +0.001 A 
ATOM      3  C   UNL     1       0.331  -0.026   0.349  0.00  0.00    +0.012 A 
ATOM      4  C   UNL     1       0.954  -1.268   0.276  0.00  0.00    +0.033 A 
ATOM      5  C   UNL     1       0.174  -2.429   0.131  0.00  0.00    +0.033 A 
ATOM      6  C   UNL     1      -1.211  -2.329   0.060  0.00  0.00    +0.012 A 
ATOM      7  C   UNL     1       0.844  -3.743   0.057  0.00  0.00    +0.196 C 
ATOM      8  O   UNL     1       0.185  -4.756  -0.064  0.00  0.00    -0.287 OA
ATOM      9  C   UNL     1       2.323  -3.825   0.131  0.00  0.00    +0.053 C 
ATOM     10  C   UNL     1       3.076  -2.708   0.263  0.00  0.00    +0.058 C 
ATOM     11  C   UNL     1       2.423  -1.383   0.349  0.00  0.00    +0.194 C 
ATOM     12  O   UNL     1       3.101  -0.383   0.481  0.00  0.00    -0.287 OA
ATOM     13  C   UNL     1       4.580  -2.763   0.319  0.00  0.00    +0.220 C 
ATOM     14  C   UNL     1       5.072  -4.130   0.783  0.00  0.00    +0.217 C 
ATOM     15  C   UNL     1       4.466  -5.214  -0.121  0.00  0.00    +0.088 C 
ATOM     16  C   UNL     1       2.965  -5.157   0.063  0.00  0.00    +0.049 C 
ATOM     17  N   UNL     1       2.264  -6.240   0.158  0.00  0.00    -0.284 NA
ENDROOT
BRANCH  17  18
ATOM     18  C   UNL     1       2.896  -7.544  -0.060  0.00  0.00    +0.106 C 
ATOM     19  C   UNL     1       2.066  -8.353  -1.057  0.00  0.00    +0.027 C 
ATOM     20  C   UNL     1       2.726  -9.714  -1.285  0.00  0.00    +0.002 C 
ATOM     21  C   UNL     1       2.807 -10.470   0.043  0.00  0.00    +0.000 C 
ATOM     22  C   UNL     1       3.638  -9.661   1.041  0.00  0.00    +0.002 C 
ATOM     23  C   UNL     1       2.978  -8.299   1.268  0.00  0.00    +0.027 C 
ENDBRANCH  17  18
BRANCH  14  24
ATOM     24  S   UNL     1       4.558  -4.411   2.499  0.00  0.00    +0.117 S 
ATOM     25  O   UNL     1       4.868  -5.786   2.859  0.00  0.00    -0.145 OA
ATOM     26  O   UNL     1       5.284  -3.489   3.359  0.00  0.00    -0.145 OA
ATOM     27  O   UNL     1       3.126  -4.174   2.600  0.00  0.00    -0.047 OA
ENDBRANCH  14  24
BRANCH  13  28
ATOM     28  S   UNL     1       5.178  -1.496   1.471  0.00  0.00    +0.135 S 
ATOM     29  O   UNL     1       6.512  -1.865   1.916  0.00  0.00    -0.143 OA
ATOM     30  O   UNL     1       5.213  -0.217   0.778  0.00  0.00    -0.143 OA
ATOM     31  O   UNL     1       4.267  -1.431   2.603  0.00  0.00    -0.045 OA
ENDBRANCH  13  28
BRANCH  13  32
ATOM     32  N   UNL     1       5.120  -2.487  -1.019  0.00  0.00    -0.300 NA
ATOM     33  H   UNL     1       4.838  -1.573  -1.341  0.00  0.00    +0.121 HD
ATOM     34  H   UNL     1       6.125  -2.580  -1.030  0.00  0.00    +0.121 HD
ENDBRANCH  13  32
TORSDOF 4
