REMARK  Name = ZINC35071434
REMARK  12 active torsions:
REMARK  status: ('A' for Active; 'I' for Inactive)
REMARK    1  A    between atoms: C_1  and  C_2
REMARK    2  A    between atoms: C_2  and  C_3
REMARK    3  A    between atoms: C_3  and  C_5
REMARK    4  A    between atoms: C_3  and  N_24
REMARK    5  A    between atoms: N_15  and  C_16
REMARK    6  A    between atoms: C_21  and  C_22
REMARK    7  A    between atoms: N_24  and  C_25
REMARK    8  A    between atoms: C_25  and  C_26
REMARK    9  A    between atoms: C_26  and  N_27
REMARK   10  A    between atoms: N_27  and  C_28
REMARK   11  A    between atoms: N_27  and  C_29
REMARK   12  A    between atoms: C_30  and  C_32
REMARK                            x       y       z     vdW  Elec       q    Type
REMARK                         _______ _______ _______ _____ _____    ______ ____
ROOT
ATOM      1  C   UNL     1      -0.922  -2.499   0.233  0.00  0.00    +0.138 A 
ATOM      2  N   UNL     1      -0.506  -2.853   1.411  0.00  0.00    -0.231 NA
ATOM      3  C   UNL     1       0.056  -4.067   1.632  0.00  0.00    +0.078 A 
ATOM      4  C   UNL     1       0.501  -4.448   2.899  0.00  0.00    +0.028 A 
ATOM      5  C   UNL     1       1.066  -5.691   3.078  0.00  0.00    +0.002 A 
ATOM      6  C   UNL     1       1.197  -6.573   2.013  0.00  0.00    +0.001 A 
ATOM      7  C   UNL     1       0.765  -6.220   0.754  0.00  0.00    +0.015 A 
ATOM      8  C   UNL     1       0.191  -4.967   0.551  0.00  0.00    +0.065 A 
ATOM      9  C   UNL     1      -0.289  -4.536  -0.770  0.00  0.00    +0.266 A 
ATOM     10  O   UNL     1      -0.202  -5.263  -1.742  0.00  0.00    -0.267 OA
ATOM     11  N   UNL     1      -0.836  -3.301  -0.862  0.00  0.00    -0.263 N 
ENDROOT
BRANCH  11  12
ATOM     12  C   UNL     1      -1.313  -2.844  -2.097  0.00  0.00    +0.054 A 
ATOM     13  C   UNL     1      -0.494  -2.081  -2.920  0.00  0.00    +0.028 A 
ATOM     14  C   UNL     1      -0.967  -1.631  -4.137  0.00  0.00    +0.022 A 
ATOM     15  C   UNL     1      -2.256  -1.940  -4.537  0.00  0.00    +0.041 A 
ATOM     16  C   UNL     1      -3.074  -2.699  -3.719  0.00  0.00    +0.025 A 
ATOM     17  C   UNL     1      -2.603  -3.157  -2.504  0.00  0.00    -0.025 A 
ATOM     18  C   UNL     1      -3.492  -3.990  -1.616  0.00  0.00    +0.046 C 
ATOM     19 CL   UNL     1      -2.848  -1.373  -6.067  0.00  0.00    -0.084 Cl
ENDBRANCH  11  12
BRANCH   1  20
ATOM     20  C   UNL     1      -1.535  -1.132   0.071  0.00  0.00    +0.142 C 
BRANCH  20  21
ATOM     21  N   UNL     1      -2.270  -0.779   1.289  0.00  0.00    -0.293 N 
ATOM     22  C   UNL     1      -1.611  -0.630   2.454  0.00  0.00    +0.219 C 
ATOM     23  O   UNL     1      -0.401  -0.710   2.482  0.00  0.00    -0.275 OA
BRANCH  22  24
ATOM     24  C   UNL     1      -2.376  -0.363   3.725  0.00  0.00    +0.075 C 
ATOM     25  C   UNL     1      -2.638   1.150   3.876  0.00  0.00    +0.013 C 
ATOM     26  C   UNL     1      -2.496   1.409   5.397  0.00  0.00    +0.001 C 
ATOM     27  C   UNL     1      -1.322   0.480   5.794  0.00  0.00    +0.001 C 
ATOM     28  C   UNL     1      -1.540  -0.789   4.944  0.00  0.00    +0.013 C 
ENDBRANCH  22  24
BRANCH  21  29
ATOM     29  C   UNL     1      -3.722  -0.590   1.239  0.00  0.00    +0.090 C 
BRANCH  29  30
ATOM     30  C   UNL     1      -4.420  -1.905   1.589  0.00  0.00    -0.060 C 
BRANCH  30  31
ATOM     31  N   UNL     1      -5.871  -1.749   1.421  0.00  0.00    +0.377 N 
ATOM     32  C   UNL     1      -6.532  -3.042   1.640  0.00  0.00    -0.097 C 
ATOM     33  C   UNL     1      -6.375  -0.770   2.394  0.00  0.00    -0.097 C 
ATOM     34  H   UNL     1      -6.068  -1.425   0.485  0.00  0.00    -0.083 HD
ENDBRANCH  30  31
ENDBRANCH  29  30
ENDBRANCH  21  29
ENDBRANCH  20  21
BRANCH  20  36
ATOM     35  C   UNL     1      -1.059   1.258  -0.479  0.00  0.00    +0.006 C 
ATOM     36  C   UNL     1      -0.430  -0.102  -0.173  0.00  0.00    +0.027 C 
ENDBRANCH  20  36
ENDBRANCH   1  20
TORSDOF 8
