REMARK  Name = ZINC33363483
REMARK  3 active torsions:
REMARK  status: ('A' for Active; 'I' for Inactive)
REMARK    1  A    between atoms: C_3  and  C_9
REMARK    2  A    between atoms: N_10  and  N_11
REMARK    3  A    between atoms: C_15  and  C_16
REMARK                            x       y       z     vdW  Elec       q    Type
REMARK                         _______ _______ _______ _____ _____    ______ ____
ROOT
ATOM      1  N   UNL     1       4.891   0.129  -0.005  0.00  0.00    -0.142 N 
ATOM      2  C   UNL     1       6.037  -0.504   0.184  0.00  0.00    +0.278 C 
ATOM      3  O   UNL     1       7.078   0.100   0.368  0.00  0.00    -0.267 OA
ATOM      4  C   UNL     1       5.991  -1.978   0.161  0.00  0.00    +0.079 C 
ATOM      5  C   UNL     1       6.994  -2.879   0.324  0.00  0.00    +0.034 C 
ATOM      6  S   UNL     1       4.250  -2.254  -0.139  0.00  0.00    -0.059 S 
ATOM      7  C   UNL     1       3.740  -0.544  -0.203  0.00  0.00    +0.142 C 
ATOM      8  S   UNL     1       2.169   0.088  -0.456  0.00  0.00    -0.025 S 
ENDROOT
BRANCH   5   9
ATOM      9  C   UNL     1       6.708  -4.316   0.260  0.00  0.00    +0.052 A 
ATOM     10  C   UNL     1       5.657  -4.859   1.013  0.00  0.00    +0.171 A 
ATOM     11  C   UNL     1       5.393  -6.214   0.947  0.00  0.00    +0.197 A 
ATOM     12  C   UNL     1       6.165  -7.037   0.139  0.00  0.00    +0.199 A 
ATOM     13  C   UNL     1       7.207  -6.507  -0.610  0.00  0.00    +0.197 A 
ATOM     14  C   UNL     1       7.479  -5.153  -0.559  0.00  0.00    +0.171 A 
ATOM     15  F   UNL     1       8.490  -4.638  -1.293  0.00  0.00    -0.202 F 
ATOM     16  F   UNL     1       7.953  -7.316  -1.393  0.00  0.00    -0.199 F 
ATOM     17  F   UNL     1       5.901  -8.361   0.080  0.00  0.00    -0.199 F 
ATOM     18  F   UNL     1       4.381  -6.739   1.672  0.00  0.00    -0.199 F 
ATOM     19  F   UNL     1       4.905  -4.060   1.801  0.00  0.00    -0.202 F 
ENDBRANCH   5   9
BRANCH   1  21
ATOM     20  C   UNL     1       4.162   2.162   0.889  0.00  0.00    +0.140 C 
ATOM     21  N   UNL     1       4.873   1.530   0.007  0.00  0.00    -0.179 NA
BRANCH  20  24
ATOM     22  C   UNL     1       3.313  -0.559   3.328  0.00  0.00    +0.021 A 
ATOM     23  C   UNL     1       3.937   0.133   2.312  0.00  0.00    +0.012 A 
ATOM     24  C   UNL     1       3.500   1.416   1.974  0.00  0.00    +0.013 A 
ATOM     25  C   UNL     1       2.432   1.990   2.671  0.00  0.00    +0.051 A 
ATOM     26  C   UNL     1       1.817   1.286   3.686  0.00  0.00    +0.040 A 
ATOM     27  C   UNL     1       2.256   0.014   4.015  0.00  0.00    +0.042 A 
ATOM     28 CL   UNL     1       1.477  -0.866   5.293  0.00  0.00    -0.083 Cl
ATOM     29 CL   UNL     1       1.881   3.584   2.260  0.00  0.00    -0.083 Cl
ENDBRANCH  20  24
ENDBRANCH   1  21
TORSDOF 3
