REMARK  Name = ZINC49508785
REMARK  10 active torsions:
REMARK  status: ('A' for Active; 'I' for Inactive)
REMARK    1  A    between atoms: C_1  and  C_2
REMARK    2  A    between atoms: C_2  and  C_3
REMARK    3  A    between atoms: C_2  and  C_4
REMARK    4  A    between atoms: C_13  and  N_16
REMARK    5  A    between atoms: C_17  and  C_19
REMARK    6  A    between atoms: N_21  and  C_22
REMARK    7  A    between atoms: C_22  and  C_23
REMARK    8  A    between atoms: C_23  and  C_25
REMARK    9  A    between atoms: C_23  and  N_35
REMARK   10  A    between atoms: N_33  and  C_34
REMARK                            x       y       z     vdW  Elec       q    Type
REMARK                         _______ _______ _______ _____ _____    ______ ____
ROOT
ATOM      1  C   UNL     1       6.168  -3.960   4.324  0.00  0.00    +0.299 C 
ATOM      2  O   UNL     1       6.390  -4.235   3.163  0.00  0.00    -0.265 OA
ATOM      3  N   UNL     1       7.003  -4.392   5.290  0.00  0.00    -0.309 N 
ATOM      4  H   UNL     1       6.826  -4.172   6.218  0.00  0.00    +0.149 HD
ENDROOT
BRANCH   1   6
ATOM      5  N   UNL     1       4.136  -2.710   3.717  0.00  0.00    -0.278 N 
ATOM      6  C   UNL     1       4.971  -3.142   4.683  0.00  0.00    +0.303 C 
ATOM      7  O   UNL     1       4.749  -2.867   5.844  0.00  0.00    -0.265 OA
ATOM      8  H   UNL     1       4.275  -2.986   2.797  0.00  0.00    +0.155 HD
BRANCH   5  18
ATOM      9  C   UNL     1      -0.427  -1.913   1.791  0.00  0.00    +0.222 C 
ATOM     10  O   UNL     1       0.561  -2.489   1.389  0.00  0.00    -0.275 OA
ATOM     11  N   UNL     1      -0.379  -1.215   2.943  0.00  0.00    -0.271 N 
ATOM     12  C   UNL     1      -1.582  -0.555   3.467  0.00  0.00    +0.114 C 
ATOM     13  C   UNL     1      -1.181   0.855   3.923  0.00  0.00    +0.024 C 
ATOM     14  C   UNL     1      -0.176   0.736   5.069  0.00  0.00    +0.038 C 
ATOM     15  C   UNL     1       0.955  -0.182   4.685  0.00  0.00    -0.026 A 
ATOM     16  C   UNL     1       0.819  -1.113   3.664  0.00  0.00    +0.041 A 
ATOM     17  C   UNL     1       1.876  -1.953   3.340  0.00  0.00    +0.047 A 
ATOM     18  C   UNL     1       3.071  -1.866   4.040  0.00  0.00    +0.036 A 
ATOM     19  C   UNL     1       3.204  -0.936   5.063  0.00  0.00    +0.024 A 
ATOM     20  C   UNL     1       2.152  -0.093   5.377  0.00  0.00    +0.007 A 
BRANCH   9  22
ATOM     21  C   UNL     1      -1.892  -0.676   0.218  0.00  0.00    +0.017 C 
ATOM     22  C   UNL     1      -1.710  -1.977   1.002  0.00  0.00    +0.069 C 
ATOM     23  C   UNL     1      -1.651  -3.155   0.028  0.00  0.00    +0.017 C 
ENDBRANCH   9  22
ENDBRANCH   5  18
ENDBRANCH   1   6
BRANCH   3  24
ATOM     24  C   UNL     1       8.178  -5.193   4.939  0.00  0.00    +0.094 C 
BRANCH  24  25
ATOM     25  C   UNL     1       8.887  -5.646   6.217  0.00  0.00    -0.020 C 
BRANCH  25  26
ATOM     26  C   UNL     1       9.371  -4.438   6.978  0.00  0.00    -0.059 A 
ATOM     27  C   UNL     1      10.535  -3.798   6.594  0.00  0.00    +0.004 A 
ATOM     28  C   UNL     1      10.980  -2.693   7.288  0.00  0.00    +0.023 A 
ATOM     29  C   UNL     1      10.260  -2.212   8.383  0.00  0.00    +0.033 A 
ATOM     30  C   UNL     1       9.094  -2.861   8.759  0.00  0.00    -0.025 A 
ATOM     31  C   UNL     1       8.649  -3.965   8.057  0.00  0.00    +0.007 A 
ATOM     32  C   UNL     1       8.513  -2.148   9.959  0.00  0.00    +0.056 C 
ATOM     33  C   UNL     1       9.492  -0.996  10.236  0.00  0.00    +0.109 C 
ATOM     34  N   UNL     1      10.533  -1.122   9.211  0.00  0.00    -0.332 N 
ATOM     35  C   UNL     1      11.690  -0.234   9.077  0.00  0.00    +0.129 C 
ENDBRANCH  25  26
BRANCH  25  36
ATOM     36  N   UNL     1      10.033  -6.495   5.866  0.00  0.00    +0.385 N 
ATOM     37  C   UNL     1       9.563  -7.660   5.108  0.00  0.00    -0.078 C 
ATOM     38  C   UNL     1      10.761  -8.506   4.670  0.00  0.00    -0.019 C 
ATOM     39  C   UNL     1      11.526  -8.977   5.910  0.00  0.00    -0.004 C 
ATOM     40  C   UNL     1      11.948  -7.756   6.732  0.00  0.00    -0.019 C 
ATOM     41  C   UNL     1      10.706  -6.938   7.093  0.00  0.00    -0.078 C 
ATOM     42  H   UNL     1      10.681  -5.967   5.301  0.00  0.00    -0.081 HD
ENDBRANCH  25  36
ENDBRANCH  24  25
ENDBRANCH   3  24
TORSDOF 7
