REMARK  Name = ZINC16712436
REMARK  8 active torsions:
REMARK  status: ('A' for Active; 'I' for Inactive)
REMARK    1  A    between atoms: C_1  and  C_2
REMARK    2  A    between atoms: C_2  and  C_9
REMARK    3  A    between atoms: C_3  and  C_4
REMARK    4  A    between atoms: N_10  and  N_11
REMARK    5  A    between atoms: C_12  and  C_14
REMARK    6  A    between atoms: C_14  and  S_15
REMARK    7  A    between atoms: S_15  and  C_16
REMARK    8  A    between atoms: N_29  and  C_30
REMARK                            x       y       z     vdW  Elec       q    Type
REMARK                         _______ _______ _______ _____ _____    ______ ____
ROOT
ATOM      1  C   UNL     1      -1.038  -6.437   0.678  0.00  0.00    +0.178 A 
ATOM      2  N   UNL     1      -2.080  -5.685   1.006  0.00  0.00    -0.215 NA
ATOM      3  C   UNL     1      -1.895  -4.372   1.048  0.00  0.00    +0.117 A 
ATOM      4  C   UNL     1      -0.662  -3.739   0.766  0.00  0.00    +0.076 A 
ATOM      5  C   UNL     1      -0.651  -2.288   0.864  0.00  0.00    -0.023 A 
ATOM      6  C   UNL     1      -1.815  -1.695   1.212  0.00  0.00    -0.004 A 
ATOM      7  S   UNL     1      -2.971  -3.025   1.425  0.00  0.00    -0.073 S 
ATOM      8  C   UNL     1      -2.070  -0.229   1.381  0.00  0.00    +0.043 C 
ATOM      9  C   UNL     1      -0.718   0.495   1.461  0.00  0.00    +0.005 C 
ATOM     10  C   UNL     1       0.173  -0.007   0.320  0.00  0.00    +0.005 C 
ATOM     11  C   UNL     1       0.596  -1.451   0.591  0.00  0.00    +0.037 C 
ATOM     12  C   UNL     1       0.443  -4.582   0.416  0.00  0.00    +0.268 A 
ATOM     13  O   UNL     1       1.545  -4.130   0.158  0.00  0.00    -0.267 OA
ATOM     14  N   UNL     1       0.187  -5.911   0.391  0.00  0.00    -0.255 N 
ENDROOT
BRANCH  14  15
ATOM     15  C   UNL     1       1.229  -6.786   0.056  0.00  0.00    +0.052 A 
ATOM     16  C   UNL     1       1.755  -6.781  -1.229  0.00  0.00    +0.026 A 
ATOM     17  C   UNL     1       2.785  -7.641  -1.556  0.00  0.00    +0.002 A 
ATOM     18  C   UNL     1       3.285  -8.515  -0.608  0.00  0.00    +0.000 A 
ATOM     19  C   UNL     1       2.759  -8.526   0.671  0.00  0.00    +0.002 A 
ATOM     20  C   UNL     1       1.733  -7.664   1.006  0.00  0.00    +0.026 A 
ENDBRANCH  14  15
BRANCH   1  21
ATOM     21  S   UNL     1      -1.245  -8.185   0.611  0.00  0.00    -0.078 S 
BRANCH  21  22
ATOM     22  C   UNL     1      -2.993  -8.313   1.062  0.00  0.00    +0.174 C 
BRANCH  22  24
ATOM     23  N   UNL     1      -4.672 -10.101   1.380  0.00  0.00    -0.206 N 
ATOM     24  C   UNL     1      -3.405  -9.762   1.070  0.00  0.00    +0.242 C 
ATOM     25  O   UNL     1      -2.596 -10.625   0.797  0.00  0.00    -0.273 OA
ATOM     26  H   UNL     1      -5.319  -9.412   1.599  0.00  0.00    +0.177 HD
BRANCH  23  28
ATOM     27  C   UNL     1      -6.281 -11.776   1.688  0.00  0.00    +0.133 C 
ATOM     28  N   UNL     1      -5.055 -11.449   1.388  0.00  0.00    -0.188 NA
BRANCH  27  30
ATOM     29  C   UNL     1      -5.635 -14.215   1.488  0.00  0.00    +0.045 C 
ATOM     30  C   UNL     1      -6.668 -13.137   1.695  0.00  0.00    -0.027 C 
ATOM     31  C   UNL     1      -7.965 -13.471   1.889  0.00  0.00    +0.051 C 
BRANCH  31  32
ATOM     32  C   UNL     1      -8.991 -12.430   1.918  0.00  0.00    +0.128 A 
ATOM     33  C   UNL     1     -10.340 -12.633   2.017  0.00  0.00    +0.049 A 
ATOM     34  C   UNL     1     -10.942 -11.363   2.009  0.00  0.00    +0.042 A 
ATOM     35  C   UNL     1      -9.949 -10.454   1.908  0.00  0.00    +0.195 A 
ATOM     36  O   UNL     1      -8.774 -11.101   1.858  0.00  0.00    -0.464 OA
ENDBRANCH  31  32
ENDBRANCH  27  30
ENDBRANCH  23  28
ENDBRANCH  22  24
ENDBRANCH  21  22
ENDBRANCH   1  21
TORSDOF 7
