REMARK  Name = ZINC06462271
REMARK  17 active torsions:
REMARK  status: ('A' for Active; 'I' for Inactive)
REMARK    1  A    between atoms: C_1  and  C_2
REMARK    2  A    between atoms: C_2  and  C_3
REMARK    3  A    between atoms: C_3  and  C_4
REMARK    4  A    between atoms: C_3  and  C_5
REMARK    5  A    between atoms: C_3  and  N_6
REMARK    6  A    between atoms: C_7  and  C_9
REMARK    7  A    between atoms: C_9  and  C_11
REMARK    8  A    between atoms: C_9  and  N_17
REMARK    9  A    between atoms: C_14  and  C_16
REMARK   10  A    between atoms: N_17  and  C_18
REMARK   11  A    between atoms: C_21  and  O_26
REMARK   12  A    between atoms: C_22  and  O_24
REMARK   13  A    between atoms: O_24  and  C_25
REMARK   14  A    between atoms: O_26  and  C_27
REMARK   15  A    between atoms: C_28  and  C_30
REMARK   16  A    between atoms: C_31  and  N_38
REMARK   17  A    between atoms: C_32  and  C_35
REMARK                            x       y       z     vdW  Elec       q    Type
REMARK                         _______ _______ _______ _____ _____    ______ ____
ROOT
ATOM      1  N   UNL     1       2.083   3.965   0.671  0.00  0.00    -0.248 N 
ATOM      2  C   UNL     1       2.367   5.082  -0.029  0.00  0.00    +0.262 C 
ATOM      3  O   UNL     1       1.510   5.603  -0.718  0.00  0.00    -0.269 OA
ENDROOT
BRANCH   1   4
ATOM      4  C   UNL     1       0.822   3.367   0.553  0.00  0.00    +0.042 A 
ATOM      5  C   UNL     1       0.578   2.139   1.153  0.00  0.00    +0.027 A 
ATOM      6  C   UNL     1      -0.666   1.547   1.038  0.00  0.00    +0.051 A 
ATOM      7  C   UNL     1      -1.670   2.176   0.319  0.00  0.00    +0.162 A 
ATOM      8  C   UNL     1      -1.429   3.409  -0.279  0.00  0.00    +0.163 A 
ATOM      9  C   UNL     1      -0.183   4.002  -0.163  0.00  0.00    +0.073 A 
BRANCH   8  10
ATOM     10  O   UNL     1      -2.416   4.030  -0.980  0.00  0.00    -0.491 OA
ATOM     11  C   UNL     1      -2.097   5.291  -1.571  0.00  0.00    +0.277 C 
ENDBRANCH   8  10
BRANCH   7  12
ATOM     12  O   UNL     1      -2.892   1.590   0.202  0.00  0.00    -0.491 OA
ATOM     13  C   UNL     1      -3.070   0.326   0.845  0.00  0.00    +0.277 C 
ENDBRANCH   7  12
ENDBRANCH   1   4
BRANCH   2  14
ATOM     14  C   UNL     1       3.707   5.668   0.041  0.00  0.00    +0.116 A 
ATOM     15  C   UNL     1       4.082   7.011   0.109  0.00  0.00    +0.076 A 
ATOM     16  C   UNL     1       5.466   7.176   0.164  0.00  0.00    +0.155 A 
ATOM     17  N   UNL     1       6.242   6.115   0.147  0.00  0.00    -0.203 NA
ATOM     18  S   UNL     1       5.293   4.859   0.069  0.00  0.00    +0.019 S 
BRANCH  16  19
ATOM     19  C   UNL     1       6.053   8.527   0.239  0.00  0.00    +0.262 C 
ATOM     20  O   UNL     1       5.330   9.504   0.254  0.00  0.00    -0.269 OA
ATOM     21  N   UNL     1       7.391   8.678   0.291  0.00  0.00    -0.324 N 
ATOM     22  H   UNL     1       7.969   7.899   0.280  0.00  0.00    +0.145 HD
ATOM     23  H   UNL     1       7.777   9.567   0.341  0.00  0.00    +0.145 HD
ENDBRANCH  16  19
BRANCH  15  24
ATOM     24  N   UNL     1       3.179   8.065   0.121  0.00  0.00    -0.355 N 
ATOM     25  H   UNL     1       2.226   7.888   0.081  0.00  0.00    +0.142 HD
ATOM     26  H   UNL     1       3.500   8.979   0.170  0.00  0.00    +0.142 HD
ENDBRANCH  15  24
ENDBRANCH   2  14
BRANCH   1  27
ATOM     27  C   UNL     1       3.093   3.377   1.554  0.00  0.00    +0.233 C 
BRANCH  27  28
ATOM     28  C   UNL     1       2.538   3.271   2.951  0.00  0.00    +0.135 A 
ATOM     29  C   UNL     1       3.242   3.408   4.089  0.00  0.00    +0.047 A 
ATOM     30  C   UNL     1       2.332   3.236   5.157  0.00  0.00    +0.045 A 
ATOM     31  C   UNL     1       1.127   2.996   4.607  0.00  0.00    +0.102 A 
ATOM     32  O   UNL     1       1.259   3.019   3.271  0.00  0.00    -0.462 OA
ATOM     33  C   UNL     1      -0.152   2.744   5.363  0.00  0.00    +0.086 C 
ENDBRANCH  27  28
BRANCH  27  35
ATOM     34  N   UNL     1       4.377   1.269   1.713  0.00  0.00    -0.308 N 
ATOM     35  C   UNL     1       3.460   2.004   1.053  0.00  0.00    +0.242 C 
ATOM     36  O   UNL     1       2.929   1.560   0.057  0.00  0.00    -0.273 OA
ATOM     37  H   UNL     1       4.801   1.624   2.510  0.00  0.00    +0.149 HD
BRANCH  34  38
ATOM     38  C   UNL     1       4.733  -0.066   1.227  0.00  0.00    +0.029 C 
ATOM     39  C   UNL     1       3.487  -0.954   1.215  0.00  0.00    +0.031 C 
ATOM     40  C   UNL     1       5.296   0.041  -0.192  0.00  0.00    +0.031 C 
BRANCH  38  42
ATOM     41  C   UNL     1       6.160  -2.075   1.641  0.00  0.00    +0.006 C 
ATOM     42  C   UNL     1       5.788  -0.680   2.149  0.00  0.00    +0.022 C 
ENDBRANCH  38  42
ENDBRANCH  34  38
ENDBRANCH  27  35
ENDBRANCH   1  27
TORSDOF 11
