REMARK  Name = ZINC37342054
REMARK  2 active torsions:
REMARK  status: ('A' for Active; 'I' for Inactive)
REMARK    1  A    between atoms: C_8  and  C_23
REMARK    2  A    between atoms: N_25  and  C_26
REMARK                            x       y       z     vdW  Elec       q    Type
REMARK                         _______ _______ _______ _____ _____    ______ ____
ROOT
ATOM      1  C   UNL     1       0.885   1.656  -0.035  0.00  0.00    +0.000 A 
ATOM      2  C   UNL     1       2.198   2.091  -0.060  0.00  0.00    +0.002 A 
ATOM      3  C   UNL     1       3.230   1.175  -0.086  0.00  0.00    +0.023 A 
ATOM      4  C   UNL     1       2.949  -0.188  -0.091  0.00  0.00    +0.033 A 
ATOM      5  C   UNL     1       1.635  -0.619  -0.075  0.00  0.00    -0.026 A 
ATOM      6  C   UNL     1       0.604   0.302  -0.042  0.00  0.00    +0.005 A 
ATOM      7  C   UNL     1       1.315  -2.091  -0.111  0.00  0.00    +0.051 C 
ATOM      8  C   UNL     1       2.438  -2.820  -0.849  0.00  0.00    +0.101 C 
ATOM      9  C   UNL     1       3.782  -2.526  -0.175  0.00  0.00    +0.103 C 
ATOM     10  N   UNL     1       4.023  -1.095  -0.102  0.00  0.00    -0.323 N 
ATOM     11  C   UNL     1       5.362  -0.522   0.019  0.00  0.00    +0.124 C 
ATOM     12  C   UNL     1       6.402  -1.260  -0.799  0.00  0.00    +0.125 C 
ATOM     13  N   UNL     1       6.181  -2.696  -0.767  0.00  0.00    -0.313 N 
ATOM     14  C   UNL     1       4.866  -3.287  -0.921  0.00  0.00    +0.129 C 
ATOM     15  C   UNL     1       7.273  -3.536  -0.581  0.00  0.00    +0.099 A 
ATOM     16  C   UNL     1       8.557  -3.002  -0.555  0.00  0.00    +0.042 A 
ATOM     17  C   UNL     1       9.635  -3.849  -0.369  0.00  0.00    +0.005 A 
ATOM     18  C   UNL     1       9.391  -5.207  -0.215  0.00  0.00    +0.018 A 
ATOM     19  C   UNL     1       8.091  -5.669  -0.251  0.00  0.00    +0.084 A 
ATOM     20  N   UNL     1       7.081  -4.837  -0.424  0.00  0.00    -0.350 N 
ATOM     21  H   UNL     1       6.177  -5.187  -0.442  0.00  0.00    +0.166 HD
ENDROOT
BRANCH   8  22
ATOM     22  C   UNL     1       2.483  -2.349  -2.280  0.00  0.00    +0.222 C 
ATOM     23  O   UNL     1       3.487  -1.824  -2.713  0.00  0.00    -0.275 OA
ATOM     24  N   UNL     1       1.409  -2.510  -3.077  0.00  0.00    -0.285 N 
ATOM     25  H   UNL     1       0.585  -2.870  -2.713  0.00  0.00    +0.155 HD
BRANCH  24  26
ATOM     26  C   UNL     1       1.482  -2.159  -4.431  0.00  0.00    +0.034 A 
ATOM     27  C   UNL     1       0.801  -2.908  -5.381  0.00  0.00    +0.026 A 
ATOM     28  C   UNL     1       0.875  -2.560  -6.715  0.00  0.00    +0.040 A 
ATOM     29  C   UNL     1       1.628  -1.465  -7.106  0.00  0.00    +0.124 A 
ATOM     30  C   UNL     1       2.308  -0.718  -6.160  0.00  0.00    +0.040 A 
ATOM     31  C   UNL     1       2.232  -1.058  -4.824  0.00  0.00    +0.026 A 
ATOM     32  F   UNL     1       1.700  -1.127  -8.412  0.00  0.00    -0.205 F 
ENDBRANCH  24  26
ENDBRANCH   8  22
TORSDOF 2
