REMARK  Name = ZINC22607982
REMARK  4 active torsions:
REMARK  status: ('A' for Active; 'I' for Inactive)
REMARK    1  A    between atoms: C_6  and  S_7
REMARK    2  A    between atoms: S_7  and  N_10
REMARK    3  A    between atoms: N_14  and  C_17
REMARK    4  A    between atoms: C_17  and  C_18
REMARK                            x       y       z     vdW  Elec       q    Type
REMARK                         _______ _______ _______ _____ _____    ______ ____
ROOT
ATOM      1  N   UNL     1      -1.948  -1.147  -1.567  0.00  0.00    -0.097 NA
ATOM      2  C   UNL     1      -3.042  -1.796  -1.849  0.00  0.00    +0.202 C 
ATOM      3  N   UNL     1      -3.878  -2.298  -0.861  0.00  0.00    -0.303 N 
ATOM      4  C   UNL     1      -4.457  -3.632  -1.088  0.00  0.00    +0.193 C 
ATOM      5  N   UNL     1      -5.030  -3.674  -2.443  0.00  0.00    -0.269 NA
ATOM      6  C   UNL     1      -4.012  -3.355  -3.456  0.00  0.00    +0.193 C 
ATOM      7  N   UNL     1      -3.450  -2.024  -3.157  0.00  0.00    -0.303 N 
ATOM      8  H   UNL     1      -3.366  -1.341  -3.840  0.00  0.00    +0.150 HD
ATOM      9  H   UNL     1      -4.072  -1.792  -0.056  0.00  0.00    +0.150 HD
ENDROOT
BRANCH   1  10
ATOM     10  S   UNL     1      -1.512  -0.905   0.012  0.00  0.00    +0.102 S 
ATOM     11  O   UNL     1      -1.218  -2.186   0.553  0.00  0.00    -0.146 OA
ATOM     12  O   UNL     1      -2.493  -0.046   0.577  0.00  0.00    -0.146 OA
BRANCH  10  18
ATOM     13  C   UNL     1      -0.017   1.378   0.010  0.00  0.00    +0.030 A 
ATOM     14  C   UNL     1       1.171   2.086   0.002  0.00  0.00    +0.017 A 
ATOM     15  C   UNL     1       2.378   1.411  -0.013  0.00  0.00    +0.018 A 
ATOM     16  C   UNL     1       2.396   0.027  -0.021  0.00  0.00    +0.017 A 
ATOM     17  C   UNL     1       1.208  -0.679  -0.013  0.00  0.00    +0.030 A 
ATOM     18  C   UNL     1       0.002  -0.004   0.002  0.00  0.00    +0.113 A 
ATOM     19 BR   UNL     1       4.003   2.378  -0.024  0.00  0.00    -0.050 Br
ENDBRANCH  10  18
ENDBRANCH   1  10
BRANCH   5  20
ATOM     20  C   UNL     1      -5.651  -4.978  -2.712  0.00  0.00    +0.119 C 
BRANCH  20  21
ATOM     21  C   UNL     1      -6.447  -4.904  -4.017  0.00  0.00    +0.132 C 
ATOM     22  C   UNL     1      -7.139  -6.261  -4.302  0.00  0.00    +0.035 C 
ATOM     23  C   UNL     1      -8.322  -5.805  -5.199  0.00  0.00    +0.031 C 
ATOM     24  C   UNL     1      -8.670  -4.423  -4.606  0.00  0.00    +0.160 C 
ATOM     25  O   UNL     1      -7.516  -3.953  -3.896  0.00  0.00    -0.375 OA
ENDBRANCH  20  21
ENDBRANCH   5  20
TORSDOF 4
