REMARK  Name = ZINC04354106
REMARK  5 active torsions:
REMARK  status: ('A' for Active; 'I' for Inactive)
REMARK    1  A    between atoms: C_7  and  N_23
REMARK    2  A    between atoms: C_8  and  C_10
REMARK    3  A    between atoms: N_12  and  C_13
REMARK    4  A    between atoms: C_24  and  C_26
REMARK    5  A    between atoms: C_26  and  C_27
REMARK                            x       y       z     vdW  Elec       q    Type
REMARK                         _______ _______ _______ _____ _____    ______ ____
ROOT
ATOM      1  C   UNL     1       0.057   1.258  -0.800  0.00  0.00    +0.001 A 
ATOM      2  C   UNL     1       1.226   1.994  -0.664  0.00  0.00    +0.004 A 
ATOM      3  C   UNL     1       2.413   1.374  -0.337  0.00  0.00    +0.047 A 
ATOM      4  C   UNL     1       2.445  -0.002  -0.140  0.00  0.00    +0.138 A 
ATOM      5  C   UNL     1       1.257  -0.741  -0.280  0.00  0.00    +0.042 A 
ATOM      6  C   UNL     1       0.065  -0.096  -0.611  0.00  0.00    +0.013 A 
ATOM      7  C   UNL     1       1.622  -2.137  -0.012  0.00  0.00    +0.092 A 
ATOM      8  C   UNL     1       2.962  -2.129   0.260  0.00  0.00    +0.212 A 
ATOM      9  O   UNL     1       3.431  -0.863   0.180  0.00  0.00    -0.448 OA
ENDROOT
BRANCH   8  10
ATOM     10  C   UNL     1       3.764  -3.306   0.586  0.00  0.00    +0.285 C 
ATOM     11  O   UNL     1       3.264  -4.415   0.542  0.00  0.00    -0.266 OA
ATOM     12  N   UNL     1       5.059  -3.164   0.935  0.00  0.00    -0.279 N 
ATOM     13  H   UNL     1       5.439  -2.278   1.036  0.00  0.00    +0.155 HD
BRANCH  12  14
ATOM     14  C   UNL     1       5.853  -4.297   1.151  0.00  0.00    +0.037 A 
ATOM     15  C   UNL     1       7.197  -4.280   0.799  0.00  0.00    +0.027 A 
ATOM     16  C   UNL     1       7.981  -5.397   1.010  0.00  0.00    +0.051 A 
ATOM     17  C   UNL     1       7.430  -6.538   1.574  0.00  0.00    +0.162 A 
ATOM     18  C   UNL     1       6.087  -6.558   1.930  0.00  0.00    +0.164 A 
ATOM     19  C   UNL     1       5.301  -5.434   1.721  0.00  0.00    +0.072 A 
ATOM     20  O   UNL     1       5.530  -7.666   2.491  0.00  0.00    -0.485 OA
ATOM     21  C   UNL     1       6.254  -8.893   2.348  0.00  0.00    +0.270 C 
ATOM     22  C   UNL     1       7.728  -8.623   2.680  0.00  0.00    +0.270 C 
ATOM     23  O   UNL     1       8.218  -7.632   1.771  0.00  0.00    -0.485 OA
ENDBRANCH  12  14
ENDBRANCH   8  10
BRANCH   7  24
ATOM     24  N   UNL     1       0.778  -3.242  -0.031  0.00  0.00    -0.282 N 
ATOM     25  C   UNL     1      -0.500  -3.120   0.379  0.00  0.00    +0.218 C 
ATOM     26  O   UNL     1      -0.942  -2.029   0.671  0.00  0.00    -0.275 OA
ATOM     27  H   UNL     1       1.109  -4.100  -0.339  0.00  0.00    +0.155 HD
BRANCH  25  28
ATOM     28  C   UNL     1      -1.380  -4.340   0.474  0.00  0.00    +0.099 C 
BRANCH  28  29
ATOM     29  C   UNL     1      -2.771  -3.929   0.960  0.00  0.00    -0.002 C 
ATOM     30  C   UNL     1      -2.699  -3.447   2.424  0.00  0.00    +0.004 C 
ATOM     31  C   UNL     1      -4.011  -3.968   3.061  0.00  0.00    +0.000 C 
ATOM     32  C   UNL     1      -4.185  -5.357   2.397  0.00  0.00    +0.000 C 
ATOM     33  C   UNL     1      -3.716  -5.143   0.943  0.00  0.00    +0.004 C 
ENDBRANCH  28  29
ENDBRANCH  25  28
ENDBRANCH   7  24
TORSDOF 5
