REMARK  Name = ZINC46303562
REMARK  12 active torsions:
REMARK  status: ('A' for Active; 'I' for Inactive)
REMARK    1  A    between atoms: C_1  and  C_2
REMARK    2  A    between atoms: C_2  and  N_3
REMARK    3  A    between atoms: N_3  and  C_4
REMARK    4  A    between atoms: C_4  and  C_5
REMARK    5  A    between atoms: C_10  and  C_11
REMARK    6  A    between atoms: N_14  and  C_15
REMARK    7  A    between atoms: C_15  and  C_16
REMARK    8  A    between atoms: C_20  and  N_22
REMARK    9  A    between atoms: C_23  and  C_25
REMARK   10  A    between atoms: C_25  and  N_26
REMARK   11  A    between atoms: N_26  and  C_27
REMARK   12  A    between atoms: N_26  and  C_28
REMARK                            x       y       z     vdW  Elec       q    Type
REMARK                         _______ _______ _______ _____ _____    ______ ____
ROOT
ATOM      1  C   UNL     1      -2.339  -0.653  -3.543  0.00  0.00    +0.141 C 
ENDROOT
BRANCH   1   2
ATOM      2  C   UNL     1      -3.762  -0.200  -3.344  0.00  0.00    -0.029 A 
ATOM      3  C   UNL     1      -4.699  -1.075  -2.823  0.00  0.00    +0.005 A 
ATOM      4  C   UNL     1      -6.006  -0.663  -2.638  0.00  0.00    +0.002 A 
ATOM      5  C   UNL     1      -6.380   0.624  -2.973  0.00  0.00    +0.023 A 
ATOM      6  C   UNL     1      -5.442   1.504  -3.496  0.00  0.00    +0.034 A 
ATOM      7  C   UNL     1      -4.129   1.089  -3.676  0.00  0.00    +0.028 A 
BRANCH   6   8
ATOM      8  N   UNL     1      -5.819   2.808  -3.837  0.00  0.00    -0.287 N 
ATOM      9  C   UNL     1      -6.746   3.455  -3.104  0.00  0.00    +0.201 C 
ATOM     10  O   UNL     1      -7.184   2.947  -2.094  0.00  0.00    -0.278 OA
ATOM     11  H   UNL     1      -5.412   3.246  -4.601  0.00  0.00    +0.155 HD
BRANCH   9  12
ATOM     12  C   UNL     1      -7.239   4.811  -3.540  0.00  0.00    +0.018 C 
BRANCH  12  13
ATOM     13  N   UNL     1      -8.238   5.300  -2.580  0.00  0.00    +0.382 N 
ATOM     14  C   UNL     1      -7.598   5.520  -1.277  0.00  0.00    -0.096 C 
ATOM     15  C   UNL     1      -8.806   6.565  -3.067  0.00  0.00    -0.096 C 
ATOM     16  H   UNL     1      -8.974   4.617  -2.483  0.00  0.00    -0.082 HD
ENDBRANCH  12  13
ENDBRANCH   9  12
ENDBRANCH   6   8
ENDBRANCH   1   2
BRANCH   1  20
ATOM     17  N   UNL     1       0.453  -0.455  -1.159  0.00  0.00    -0.282 N 
ATOM     18  C   UNL     1      -0.258  -0.704  -2.276  0.00  0.00    +0.303 C 
ATOM     19  O   UNL     1       0.279  -1.222  -3.236  0.00  0.00    -0.253 OA
ATOM     20  N   UNL     1      -1.565  -0.381  -2.329  0.00  0.00    -0.295 N 
ATOM     21  H   UNL     1      -1.994   0.032  -1.563  0.00  0.00    +0.151 HD
BRANCH  17  23
ATOM     22  C   UNL     1      -0.214   1.594  -0.001  0.00  0.00    +0.024 C 
ATOM     23  C   UNL     1      -0.217   0.064   0.036  0.00  0.00    +0.106 C 
ENDBRANCH  17  23
BRANCH  17  24
ATOM     24  C   UNL     1       1.897  -0.701  -1.139  0.00  0.00    +0.144 C 
BRANCH  24  25
ATOM     25  C   UNL     1       2.165  -2.071  -0.572  0.00  0.00    -0.027 A 
ATOM     26  C   UNL     1       1.110  -2.911  -0.266  0.00  0.00    +0.005 A 
ATOM     27  C   UNL     1       1.356  -4.168   0.255  0.00  0.00    +0.000 A 
ATOM     28  C   UNL     1       2.656  -4.585   0.469  0.00  0.00    +0.000 A 
ATOM     29  C   UNL     1       3.711  -3.746   0.163  0.00  0.00    +0.003 A 
ATOM     30  C   UNL     1       3.465  -2.490  -0.362  0.00  0.00    -0.046 A 
ATOM     31  C   UNL     1       4.615  -1.577  -0.702  0.00  0.00    +0.044 C 
ENDBRANCH  24  25
ENDBRANCH  17  24
ENDBRANCH   1  20
TORSDOF 8
