REMARK  Name = ZINC45670510
REMARK  11 active torsions:
REMARK  status: ('A' for Active; 'I' for Inactive)
REMARK    1  A    between atoms: C_1  and  C_2
REMARK    2  A    between atoms: C_5  and  C_31
REMARK    3  A    between atoms: C_6  and  N_8
REMARK    4  A    between atoms: C_9  and  C_11
REMARK    5  A    between atoms: C_11  and  C_13
REMARK    6  A    between atoms: C_11  and  O_14
REMARK    7  A    between atoms: O_14  and  C_15
REMARK    8  A    between atoms: C_15  and  C_17
REMARK    9  A    between atoms: C_18  and  C_30
REMARK   10  A    between atoms: C_20  and  N_22
REMARK   11  A    between atoms: C_23  and  C_25
REMARK                            x       y       z     vdW  Elec       q    Type
REMARK                         _______ _______ _______ _____ _____    ______ ____
ROOT
ATOM      1  C   UNL     1       1.209  -2.426   6.981  0.00  0.00    +0.347 C 
ATOM      2  O   UNL     1       1.655  -3.558   6.980  0.00  0.00    -0.244 OA
ENDROOT
BRANCH   1   3
ATOM      3  C   UNL     1       1.450  -1.571   8.084  0.00  0.00    +0.101 A 
ATOM      4  C   UNL     1       2.168  -1.827   9.246  0.00  0.00    -0.028 A 
ATOM      5  C   UNL     1       2.233  -0.798  10.149  0.00  0.00    +0.035 A 
ATOM      6  C   UNL     1       1.599   0.386   9.847  0.00  0.00    +0.073 A 
ATOM      7  S   UNL     1       0.918   0.112   8.335  0.00  0.00    -0.067 S 
ATOM      8  C   UNL     1       2.833  -3.155   9.499  0.00  0.00    +0.045 C 
BRANCH   6   9
ATOM      9  N   UNL     1       1.540   1.542  10.611  0.00  0.00    -0.273 N 
ATOM     10  C   UNL     1       0.868   2.618  10.156  0.00  0.00    +0.284 C 
ATOM     11  O   UNL     1       0.313   2.576   9.074  0.00  0.00    -0.266 OA
ATOM     12  H   UNL     1       1.983   1.576  11.474  0.00  0.00    +0.156 HD
BRANCH  10  13
ATOM     13  C   UNL     1       0.806   3.840  10.964  0.00  0.00    +0.189 A 
ATOM     14  C   UNL     1       0.159   4.994  10.627  0.00  0.00    +0.054 A 
ATOM     15  C   UNL     1       0.360   5.894  11.684  0.00  0.00    +0.042 A 
ATOM     16  C   UNL     1       1.113   5.259  12.610  0.00  0.00    +0.196 A 
ATOM     17  O   UNL     1       1.374   4.019  12.175  0.00  0.00    -0.458 OA
ENDBRANCH  10  13
ENDBRANCH   6   9
ENDBRANCH   1   3
BRANCH   1  18
ATOM     18  O   UNL     1       0.484  -1.985   5.931  0.00  0.00    -0.448 OA
BRANCH  18  19
ATOM     19  C   UNL     1       0.280  -2.900   4.854  0.00  0.00    +0.259 C 
ATOM     20  C   UNL     1      -0.998  -3.703   5.101  0.00  0.00    +0.062 C 
BRANCH  19  22
ATOM     21  N   UNL     1       0.052  -2.797   2.393  0.00  0.00    -0.282 N 
ATOM     22  C   UNL     1       0.150  -2.135   3.562  0.00  0.00    +0.258 C 
ATOM     23  O   UNL     1       0.134  -0.922   3.575  0.00  0.00    -0.271 OA
ATOM     24  H   UNL     1      -0.016  -3.765   2.388  0.00  0.00    +0.155 HD
BRANCH  21  30
ATOM     25  C   UNL     1       1.264   1.227  -0.158  0.00  0.00    +0.044 C 
ATOM     26  C   UNL     1       0.628  -0.137  -0.079  0.00  0.00    -0.049 A 
ATOM     27  C   UNL     1       0.038  -0.690  -1.201  0.00  0.00    +0.004 A 
ATOM     28  C   UNL     1      -0.546  -1.941  -1.133  0.00  0.00    +0.005 A 
ATOM     29  C   UNL     1      -0.543  -2.643   0.057  0.00  0.00    -0.029 A 
ATOM     30  C   UNL     1       0.048  -2.090   1.185  0.00  0.00    +0.037 A 
ATOM     31  C   UNL     1       0.639  -0.835   1.112  0.00  0.00    +0.027 A 
ATOM     32  C   UNL     1      -1.181  -4.006   0.131  0.00  0.00    +0.045 C 
ENDBRANCH  21  30
ENDBRANCH  19  22
ENDBRANCH  18  19
ENDBRANCH   1  18
TORSDOF 7
