REMARK  Name = ZINC09315703
REMARK  6 active torsions:
REMARK  status: ('A' for Active; 'I' for Inactive)
REMARK    1  A    between atoms: C_4  and  C_7
REMARK    2  A    between atoms: C_7  and  N_8
REMARK    3  A    between atoms: N_8  and  C_9
REMARK    4  A    between atoms: C_11  and  N_18
REMARK    5  A    between atoms: C_14  and  N_15
REMARK    6  A    between atoms: N_21  and  C_24
REMARK                            x       y       z     vdW  Elec       q    Type
REMARK                         _______ _______ _______ _____ _____    ______ ____
ROOT
ATOM      1  N   UNL     1       0.209   0.110  -0.211  0.00  0.00    -0.327 N 
ATOM      2  C   UNL     1       0.331   1.572  -0.131  0.00  0.00    +0.124 C 
ATOM      3  C   UNL     1       1.807   1.951   0.026  0.00  0.00    +0.124 C 
ATOM      4  N   UNL     1       2.358   1.217   1.176  0.00  0.00    -0.323 N 
ATOM      5  C   UNL     1       2.155  -0.239   1.234  0.00  0.00    +0.124 C 
ATOM      6  C   UNL     1       0.665  -0.531   1.029  0.00  0.00    +0.124 C 
ENDROOT
BRANCH   4   7
ATOM      7  C   UNL     1       3.047   1.876   2.173  0.00  0.00    +0.100 C 
ATOM      8  C   UNL     1       4.364   1.621   2.360  0.00  0.00    +0.113 C 
ATOM      9  C   UNL     1       5.120   2.305   3.409  0.00  0.00    +0.207 C 
ATOM     10  O   UNL     1       6.303   2.064   3.562  0.00  0.00    -0.286 OA
ATOM     11  C   UNL     1       4.447   3.292   4.284  0.00  0.00    +0.034 A 
ATOM     12  C   UNL     1       5.149   3.950   5.284  0.00  0.00    +0.012 A 
ATOM     13  C   UNL     1       4.498   4.870   6.093  0.00  0.00    +0.001 A 
ATOM     14  C   UNL     1       3.155   5.136   5.910  0.00  0.00    +0.001 A 
ATOM     15  C   UNL     1       2.440   4.487   4.915  0.00  0.00    +0.012 A 
ATOM     16  C   UNL     1       3.079   3.563   4.097  0.00  0.00    +0.034 A 
ATOM     17  C   UNL     1       2.341   2.861   3.025  0.00  0.00    +0.209 C 
ATOM     18  O   UNL     1       1.161   3.088   2.848  0.00  0.00    -0.285 OA
ATOM     19 CL   UNL     1       5.165   0.466   1.340  0.00  0.00    -0.078 Cl
ENDBRANCH   4   7
BRANCH   1  22
ATOM     20  C   UNL     1      -2.728  -1.981  -0.945  0.00  0.00    +0.060 A 
ATOM     21  C   UNL     1      -1.425  -1.610  -0.639  0.00  0.00    +0.048 A 
ATOM     22  C   UNL     1      -1.100  -0.267  -0.518  0.00  0.00    +0.032 A 
ATOM     23  C   UNL     1      -2.080   0.703  -0.696  0.00  0.00    +0.025 A 
ATOM     24  C   UNL     1      -3.374   0.331  -1.006  0.00  0.00    +0.036 A 
ATOM     25  C   UNL     1      -3.701  -1.006  -1.127  0.00  0.00    +0.147 A 
BRANCH  25  26
ATOM     26  N   UNL     1      -5.090  -1.401  -1.452  0.00  0.00    +0.058 N 
ATOM     27  O   UNL     1      -5.744  -0.736  -2.236  0.00  0.00    -0.126 OA
ATOM     28  O   UNL     1      -5.579  -2.389  -0.936  0.00  0.00    -0.126 OA
ENDBRANCH  25  26
BRANCH  20  29
ATOM     29  N   UNL     1      -3.059  -3.332  -1.068  0.00  0.00    -0.338 N 
ATOM     30  H   UNL     1      -3.947  -3.588  -1.365  0.00  0.00    +0.146 HD
BRANCH  29  31
ATOM     31  C   UNL     1      -2.067  -4.362  -0.750  0.00  0.00    +0.137 C 
BRANCH  31  35
ATOM     32  C   UNL     1      -3.782  -8.227  -1.358  0.00  0.00    +0.000 A 
ATOM     33  C   UNL     1      -3.128  -7.590  -2.396  0.00  0.00    +0.000 A 
ATOM     34  C   UNL     1      -2.573  -6.339  -2.200  0.00  0.00    +0.005 A 
ATOM     35  C   UNL     1      -2.672  -5.725  -0.965  0.00  0.00    -0.030 A 
ATOM     36  C   UNL     1      -3.321  -6.365   0.075  0.00  0.00    +0.005 A 
ATOM     37  C   UNL     1      -3.880  -7.613  -0.123  0.00  0.00    +0.000 A 
ENDBRANCH  31  35
ENDBRANCH  29  31
ENDBRANCH  20  29
ENDBRANCH   1  22
TORSDOF 6
