REMARK  Name = ZINC02819482
REMARK  10 active torsions:
REMARK  status: ('A' for Active; 'I' for Inactive)
REMARK    1  A    between atoms: C_1  and  C_2
REMARK    2  A    between atoms: C_2  and  C_3
REMARK    3  A    between atoms: C_2  and  C_18
REMARK    4  A    between atoms: C_2  and  C_33
REMARK    5  A    between atoms: C_3  and  N_4
REMARK    6  A    between atoms: C_5  and  C_7
REMARK    7  A    between atoms: C_8  and  C_9
REMARK    8  A    between atoms: C_18  and  N_19
REMARK    9  A    between atoms: C_20  and  C_22
REMARK   10  A    between atoms: C_23  and  C_24
REMARK                            x       y       z     vdW  Elec       q    Type
REMARK                         _______ _______ _______ _____ _____    ______ ____
ROOT
ATOM      1  C   UNL     1      -0.019   1.526   0.010  0.00  0.00    +0.014 C 
ATOM      2  C   UNL     1       0.002  -0.004   0.002  0.00  0.00    -0.004 C 
ATOM      3  C   UNL     1       0.718  -0.497  -1.257  0.00  0.00    +0.014 C 
ENDROOT
BRANCH   2   4
ATOM      4  C   UNL     1       0.742  -0.511   1.242  0.00  0.00    +0.112 C 
BRANCH   4   5
ATOM      5  N   UNL     1       2.116  -0.004   1.231  0.00  0.00    -0.311 N 
ATOM      6  C   UNL     1       2.960  -0.324   2.232  0.00  0.00    +0.237 C 
ATOM      7  O   UNL     1       2.580  -1.034   3.145  0.00  0.00    -0.271 OA
ATOM      8  H   UNL     1       2.419   0.562   0.504  0.00  0.00    +0.149 HD
BRANCH   6   9
ATOM      9  C   UNL     1       4.332   0.183   2.222  0.00  0.00    +0.068 C 
ATOM     10  C   UNL     1       5.178  -0.138   3.224  0.00  0.00    +0.013 C 
BRANCH  10  11
ATOM     11  C   UNL     1       6.557   0.371   3.214  0.00  0.00    -0.021 A 
ATOM     12  C   UNL     1       7.437   0.036   4.250  0.00  0.00    +0.057 A 
ATOM     13  C   UNL     1       8.731   0.516   4.235  0.00  0.00    +0.167 A 
ATOM     14  C   UNL     1       9.160   1.334   3.188  0.00  0.00    +0.166 A 
ATOM     15  C   UNL     1       8.287   1.667   2.162  0.00  0.00    +0.050 A 
ATOM     16  C   UNL     1       6.996   1.188   2.166  0.00  0.00    +0.012 A 
ATOM     17  O   UNL     1      10.464   1.670   3.407  0.00  0.00    -0.453 OA
ATOM     18  C   UNL     1      10.707   1.390   4.798  0.00  0.00    +0.466 C 
ATOM     19  O   UNL     1       9.768   0.342   5.106  0.00  0.00    -0.453 OA
ENDBRANCH  10  11
ENDBRANCH   6   9
ENDBRANCH   4   5
ENDBRANCH   2   4
BRANCH   2  20
ATOM     20  C   UNL     1      -1.433  -0.534   0.013  0.00  0.00    +0.112 C 
BRANCH  20  21
ATOM     21  N   UNL     1      -2.142  -0.048  -1.174  0.00  0.00    -0.311 N 
ATOM     22  C   UNL     1      -3.430  -0.390  -1.377  0.00  0.00    +0.237 C 
ATOM     23  O   UNL     1      -4.004  -1.102  -0.574  0.00  0.00    -0.271 OA
ATOM     24  H   UNL     1      -1.684   0.519  -1.814  0.00  0.00    +0.149 HD
BRANCH  22  25
ATOM     25  C   UNL     1      -4.137   0.094  -2.562  0.00  0.00    +0.068 C 
ATOM     26  C   UNL     1      -5.427  -0.248  -2.765  0.00  0.00    +0.013 C 
BRANCH  26  27
ATOM     27  C   UNL     1      -6.138   0.239  -3.956  0.00  0.00    -0.021 A 
ATOM     28  C   UNL     1      -7.477  -0.110  -4.166  0.00  0.00    +0.057 A 
ATOM     29  C   UNL     1      -8.140   0.350  -5.285  0.00  0.00    +0.167 A 
ATOM     30  C   UNL     1      -7.476   1.162  -6.206  0.00  0.00    +0.166 A 
ATOM     31  C   UNL     1      -6.147   1.508  -5.998  0.00  0.00    +0.050 A 
ATOM     32  C   UNL     1      -5.480   1.057  -4.880  0.00  0.00    +0.012 A 
ATOM     33  O   UNL     1      -8.342   1.478  -7.211  0.00  0.00    -0.453 OA
ATOM     34  C   UNL     1      -9.414   0.523  -7.111  0.00  0.00    +0.466 C 
ATOM     35  O   UNL     1      -9.421   0.160  -5.718  0.00  0.00    -0.453 OA
ENDBRANCH  26  27
ENDBRANCH  22  25
ENDBRANCH  20  21
ENDBRANCH   2  20
TORSDOF 8
