REMARK  Name = ZINC00298466
REMARK  4 active torsions:
REMARK  status: ('A' for Active; 'I' for Inactive)
REMARK    1  A    between atoms: C_4  and  C_7
REMARK    2  A    between atoms: N_11  and  N_12
REMARK    3  A    between atoms: C_13  and  C_15
REMARK    4  A    between atoms: C_20  and  O_21
REMARK                            x       y       z     vdW  Elec       q    Type
REMARK                         _______ _______ _______ _____ _____    ______ ____
ROOT
ATOM      1  C   UNL     1      -0.171   1.816  -1.365  0.00  0.00    +0.020 C 
ATOM      2  C   UNL     1       0.579   1.361  -0.112  0.00  0.00    +0.014 C 
ATOM      3  C   UNL     1      -0.282   1.636   1.125  0.00  0.00    +0.053 C 
ATOM      4  C   UNL     1      -0.667   3.099   1.126  0.00  0.00    +0.037 C 
ATOM      5  N   UNL     1      -0.476   3.828   2.161  0.00  0.00    -0.189 NA
ATOM      6  C   UNL     1      -1.285   3.679  -0.127  0.00  0.00    +0.053 C 
ATOM      7  C   UNL     1      -0.387   3.329  -1.319  0.00  0.00    +0.014 C 
ENDROOT
BRANCH   1  11
ATOM      8  C   UNL     1       2.117   0.818  -4.832  0.00  0.00    +0.000 A 
ATOM      9  C   UNL     1       0.847   0.297  -4.668  0.00  0.00    +0.000 A 
ATOM     10  C   UNL     1       0.106   0.620  -3.547  0.00  0.00    +0.004 A 
ATOM     11  C   UNL     1       0.636   1.463  -2.588  0.00  0.00    -0.044 A 
ATOM     12  C   UNL     1       1.904   1.988  -2.753  0.00  0.00    +0.004 A 
ATOM     13  C   UNL     1       2.646   1.661  -3.873  0.00  0.00    +0.000 A 
ENDBRANCH   1  11
BRANCH   5  14
ATOM     14  N   UNL     1      -0.032   3.245   3.356  0.00  0.00    -0.203 N 
ATOM     15  C   UNL     1       0.273   4.024   4.412  0.00  0.00    +0.267 C 
ATOM     16  O   UNL     1       0.163   5.232   4.330  0.00  0.00    -0.268 OA
ATOM     17  H   UNL     1       0.056   2.281   3.421  0.00  0.00    +0.178 HD
BRANCH  15  18
ATOM     18  C   UNL     1       0.741   3.410   5.670  0.00  0.00    +0.080 A 
ATOM     19  C   UNL     1       0.864   2.022   5.771  0.00  0.00    +0.017 A 
ATOM     20  C   UNL     1       1.306   1.456   6.947  0.00  0.00    +0.001 A 
ATOM     21  C   UNL     1       1.621   2.256   8.033  0.00  0.00    +0.004 A 
ATOM     22  C   UNL     1       1.498   3.628   7.948  0.00  0.00    +0.046 A 
ATOM     23  C   UNL     1       1.059   4.216   6.771  0.00  0.00    +0.129 A 
BRANCH  23  24
ATOM     24  O   UNL     1       0.938   5.565   6.687  0.00  0.00    -0.506 OA
ATOM     25  H   UNL     1       0.068   5.898   6.945  0.00  0.00    +0.292 HD
ENDBRANCH  23  24
ENDBRANCH  15  18
ENDBRANCH   5  14
TORSDOF 4
