REMARK  Name = ZINC24912401
REMARK  6 active torsions:
REMARK  status: ('A' for Active; 'I' for Inactive)
REMARK    1  A    between atoms: C_4  and  N_7
REMARK    2  A    between atoms: N_15  and  C_18
REMARK    3  A    between atoms: N_20  and  C_22
REMARK    4  A    between atoms: C_22  and  C_23
REMARK    5  A    between atoms: C_27  and  O_29
REMARK    6  A    between atoms: O_29  and  C_30
REMARK                            x       y       z     vdW  Elec       q    Type
REMARK                         _______ _______ _______ _____ _____    ______ ____
ROOT
ATOM      1  N   UNL     1      -1.377  -0.531   0.055  0.00  0.00    -0.300 N 
ATOM      2  C   UNL     1      -1.626  -0.612  -1.403  0.00  0.00    +0.214 C 
ATOM      3  N   UNL     1      -0.318  -0.843  -2.030  0.00  0.00    -0.298 N 
ATOM      4  C   UNL     1       0.663  -0.524  -1.159  0.00  0.00    +0.238 C 
ATOM      5  O   UNL     1       1.854  -0.592  -1.375  0.00  0.00    -0.273 OA
ATOM      6  C   UNL     1       0.024  -0.068   0.130  0.00  0.00    +0.115 C 
ATOM      7  C   UNL     1       0.068   1.454   0.238  0.00  0.00    +0.051 C 
ATOM      8  C   UNL     1       1.525   1.911   0.358  0.00  0.00    +0.087 C 
ATOM      9  N   UNL     1       2.138   1.284   1.536  0.00  0.00    -0.303 NA
ATOM     10  C   UNL     1       2.160  -0.179   1.412  0.00  0.00    +0.087 C 
ATOM     11  C   UNL     1       0.725  -0.705   1.327  0.00  0.00    +0.051 C 
ATOM     12  H   UNL     1      -0.261  -1.222  -3.061  0.00  0.00    +0.150 HD
ENDROOT
BRANCH   1  16
ATOM     13  C   UNL     1      -3.951   2.199   1.859  0.00  0.00    +0.000 A 
ATOM     14  C   UNL     1      -4.118   1.870   0.527  0.00  0.00    +0.002 A 
ATOM     15  C   UNL     1      -3.266   0.965  -0.075  0.00  0.00    +0.023 A 
ATOM     16  C   UNL     1      -2.240   0.385   0.660  0.00  0.00    +0.032 A 
ATOM     17  C   UNL     1      -2.079   0.713   2.000  0.00  0.00    +0.023 A 
ATOM     18  C   UNL     1      -2.931   1.623   2.594  0.00  0.00    +0.002 A 
ENDBRANCH   1  16
BRANCH   9  19
ATOM     19  C   UNL     1       3.489   1.813   1.770  0.00  0.00    +0.024 C 
ATOM     20  C   UNL     1       3.881   1.875   3.258  0.00  0.00    -0.061 C 
ATOM     21  N   UNL     1       4.468   3.197   2.946  0.00  0.00    +0.384 N 
ATOM     22  C   UNL     1       3.558   3.350   1.790  0.00  0.00    -0.061 C 
ATOM     23  H   UNL     1       5.555   3.311   2.822  0.00  0.00    -0.081 HD
BRANCH  21  24
ATOM     24  C   UNL     1       4.154   4.174   3.997  0.00  0.00    -0.043 C 
BRANCH  24  25
ATOM     25  C   UNL     1       4.927   3.834   5.245  0.00  0.00    -0.060 A 
ATOM     26  C   UNL     1       4.373   2.992   6.193  0.00  0.00    +0.002 A 
ATOM     27  C   UNL     1       5.082   2.674   7.336  0.00  0.00    +0.004 A 
ATOM     28  C   UNL     1       6.340   3.207   7.541  0.00  0.00    +0.046 A 
ATOM     29  C   UNL     1       6.895   4.056   6.595  0.00  0.00    +0.130 A 
ATOM     30  C   UNL     1       6.184   4.369   5.445  0.00  0.00    +0.047 A 
BRANCH  29  31
ATOM     31  O   UNL     1       8.133   4.582   6.795  0.00  0.00    -0.406 OA
BRANCH  31  32
ATOM     32  C   UNL     1       8.806   4.216   8.001  0.00  0.00    +0.575 C 
ATOM     33  F   UNL     1       8.977   2.828   8.037  0.00  0.00    -0.133 F 
ATOM     34  F   UNL     1      10.057   4.841   8.044  0.00  0.00    -0.133 F 
ATOM     35  F   UNL     1       8.044   4.621   9.102  0.00  0.00    -0.133 F 
ENDBRANCH  31  32
ENDBRANCH  29  31
ENDBRANCH  24  25
ENDBRANCH  21  24
ENDBRANCH   9  19
TORSDOF 6
