REMARK  Name = ZINC63994286
REMARK  14 active torsions:
REMARK  status: ('A' for Active; 'I' for Inactive)
REMARK    1  A    between atoms: C_1  and  C_2
REMARK    2  A    between atoms: C_4  and  C_36
REMARK    3  A    between atoms: C_7  and  C_13
REMARK    4  A    between atoms: C_9  and  C_12
REMARK    5  A    between atoms: C_20  and  C_28
REMARK    6  A    between atoms: N_22  and  C_23
REMARK    7  A    between atoms: C_23  and  C_24
REMARK    8  A    between atoms: C_24  and  C_25
REMARK    9  A    between atoms: C_25  and  C_26
REMARK   10  A    between atoms: C_25  and  C_27
REMARK   11  A    between atoms: N_30  and  C_31
REMARK   12  A    between atoms: C_31  and  C_32
REMARK   13  A    between atoms: C_32  and  O_33
REMARK   14  A    between atoms: O_33  and  C_34
REMARK                            x       y       z     vdW  Elec       q    Type
REMARK                         _______ _______ _______ _____ _____    ______ ____
ROOT
ATOM      1  C   UNL     1       1.314  -5.168   1.842  0.00  0.00    +0.242 C 
ATOM      2  O   UNL     1       2.270  -5.167   1.096  0.00  0.00    -0.273 OA
ATOM      3  N   UNL     1       1.366  -5.850   3.003  0.00  0.00    -0.295 N 
ATOM      4  C   UNL     1       0.215  -5.870   3.918  0.00  0.00    +0.114 C 
ATOM      5  C   UNL     1      -0.322  -7.302   4.029  0.00  0.00    +0.074 C 
ATOM      6  C   UNL     1       0.842  -8.243   4.210  0.00  0.00    +0.046 A 
ATOM      7  C   UNL     1       2.129  -7.930   3.921  0.00  0.00    +0.023 A 
ATOM      8  C   UNL     1       2.885  -9.073   4.225  0.00  0.00    +0.152 A 
ATOM      9  N   UNL     1       2.034  -9.982   4.670  0.00  0.00    -0.166 NA
ATOM     10  N   UNL     1       0.836  -9.507   4.668  0.00  0.00    -0.267 N 
ATOM     11  C   UNL     1       2.577  -6.601   3.385  0.00  0.00    +0.147 C 
ENDROOT
BRANCH   1  18
ATOM     12  C   UNL     1      -0.018   1.503   0.010  0.00  0.00    +0.044 C 
ATOM     13  C   UNL     1       0.002  -0.004   0.002  0.00  0.00    -0.050 A 
ATOM     14  C   UNL     1       0.005  -0.680  -1.226  0.00  0.00    +0.008 A 
ATOM     15  C   UNL     1       0.023  -2.026  -1.317  0.00  0.00    -0.027 A 
ATOM     16  C   UNL     1       0.039  -2.826  -0.141  0.00  0.00    +0.046 A 
ATOM     17  N   UNL     1       0.057  -4.126   0.030  0.00  0.00    -0.370 N 
ATOM     18  C   UNL     1       0.067  -4.408   1.470  0.00  0.00    +0.193 C 
ATOM     19  C   UNL     1       0.052  -3.060   2.156  0.00  0.00    -0.033 C 
ATOM     20  C   UNL     1       0.036  -2.137   1.168  0.00  0.00    -0.000 A 
ATOM     21  C   UNL     1       0.022  -0.669   1.180  0.00  0.00    +0.013 A 
ATOM     22  C   UNL     1       0.055  -2.799   3.641  0.00  0.00    +0.042 C 
ATOM     23  C   UNL     1       0.026  -2.686  -2.672  0.00  0.00    +0.046 C 
ATOM     24  H   UNL     1       0.062  -4.790  -0.677  0.00  0.00    +0.161 HD
ENDBRANCH   1  18
BRANCH   8  25
ATOM     25  C   UNL     1       4.346  -9.231   4.076  0.00  0.00    +0.265 C 
ATOM     26  O   UNL     1       5.016  -8.310   3.651  0.00  0.00    -0.268 OA
ATOM     27  N   UNL     1       4.936 -10.395   4.411  0.00  0.00    -0.308 N 
ATOM     28  H   UNL     1       4.401 -11.130   4.750  0.00  0.00    +0.149 HD
BRANCH  27  29
ATOM     29  C   UNL     1       6.385 -10.551   4.263  0.00  0.00    +0.132 C 
BRANCH  29  30
ATOM     30  C   UNL     1       6.795 -11.956   4.709  0.00  0.00    +0.178 C 
BRANCH  30  31
ATOM     31  O   UNL     1       6.219 -12.923   3.829  0.00  0.00    -0.381 OA
ATOM     32  C   UNL     1       6.541 -14.275   4.160  0.00  0.00    +0.194 C 
ENDBRANCH  30  31
ENDBRANCH  29  30
ENDBRANCH  27  29
ENDBRANCH   8  25
BRANCH  10  33
ATOM     33  C   UNL     1      -0.357 -10.238   5.100  0.00  0.00    +0.144 C 
BRANCH  33  34
ATOM     34  C   UNL     1      -0.963 -10.978   3.906  0.00  0.00    +0.026 C 
BRANCH  34  35
ATOM     35  C   UNL     1      -2.210 -11.741   4.358  0.00  0.00    -0.015 C 
ATOM     36  C   UNL     1      -3.283 -10.746   4.804  0.00  0.00    +0.007 C 
ATOM     37  C   UNL     1      -2.744 -12.580   3.195  0.00  0.00    +0.007 C 
ENDBRANCH  34  35
ENDBRANCH  33  34
ENDBRANCH  10  33
TORSDOF 8
