REMARK  Name = ZINC64188232
REMARK  10 active torsions:
REMARK  status: ('A' for Active; 'I' for Inactive)
REMARK    1  A    between atoms: C_1  and  C_2
REMARK    2  A    between atoms: N_5  and  S_11
REMARK    3  A    between atoms: C_7  and  C_10
REMARK    4  A    between atoms: S_11  and  N_14
REMARK    5  A    between atoms: N_14  and  C_15
REMARK    6  A    between atoms: C_15  and  C_16
REMARK    7  A    between atoms: C_16  and  C_18
REMARK    8  A    between atoms: C_16  and  C_26
REMARK    9  A    between atoms: C_21  and  O_24
REMARK   10  A    between atoms: O_24  and  C_25
REMARK                            x       y       z     vdW  Elec       q    Type
REMARK                         _______ _______ _______ _____ _____    ______ ____
ROOT
ATOM      1  C   UNL     1       0.194  -5.816  -2.670  0.00  0.00    +0.063 C 
ENDROOT
BRANCH   1   2
ATOM      2  C   UNL     1      -0.886  -6.809  -3.011  0.00  0.00    -0.033 C 
ATOM      3  C   UNL     1      -1.582  -6.889  -4.168  0.00  0.00    -0.000 A 
ATOM      4  C   UNL     1      -1.543  -6.103  -5.408  0.00  0.00    +0.010 A 
ATOM      5  C   UNL     1      -2.382  -6.429  -6.417  0.00  0.00    +0.001 A 
ATOM      6  C   UNL     1      -3.286  -7.495  -6.310  0.00  0.00    +0.002 A 
ATOM      7  C   UNL     1      -3.380  -8.263  -5.203  0.00  0.00    +0.026 A 
ATOM      8  C   UNL     1      -2.545  -8.010  -4.080  0.00  0.00    +0.043 A 
ATOM      9  N   UNL     1      -2.448  -8.601  -2.914  0.00  0.00    -0.380 N 
ATOM     10  C   UNL     1      -1.407  -7.924  -2.132  0.00  0.00    +0.145 C 
ATOM     11  H   UNL     1      -2.974  -9.360  -2.619  0.00  0.00    +0.160 HD
ENDBRANCH   1   2
BRANCH   1  12
ATOM     12  C   UNL     1       1.479  -6.550  -2.381  0.00  0.00    -0.039 A 
ATOM     13  C   UNL     1       1.530  -7.473  -1.353  0.00  0.00    +0.008 A 
ATOM     14  C   UNL     1       2.706  -8.146  -1.086  0.00  0.00    +0.046 A 
ATOM     15  C   UNL     1       3.836  -7.896  -1.850  0.00  0.00    +0.120 A 
ATOM     16  C   UNL     1       3.782  -6.970  -2.881  0.00  0.00    +0.046 A 
ATOM     17  C   UNL     1       2.602  -6.303  -3.148  0.00  0.00    +0.008 A 
BRANCH  15  18
ATOM     18  O   UNL     1       4.995  -8.557  -1.589  0.00  0.00    -0.495 OA
ATOM     19  C   UNL     1       6.118  -8.249  -2.416  0.00  0.00    +0.277 C 
ENDBRANCH  15  18
ENDBRANCH   1  12
BRANCH   1  20
ATOM     20  C   UNL     1      -0.223  -5.013  -1.436  0.00  0.00    +0.119 C 
BRANCH  20  21
ATOM     21  N   UNL     1      -1.404  -4.207  -1.755  0.00  0.00    -0.179 NA
ATOM     22  H   UNL     1      -1.661  -4.068  -2.680  0.00  0.00    +0.149 HD
BRANCH  21  23
ATOM     23  S   UNL     1      -2.299  -3.532  -0.536  0.00  0.00    +0.097 S 
ATOM     24  O   UNL     1      -2.588  -4.578   0.382  0.00  0.00    -0.141 OA
ATOM     25  O   UNL     1      -3.318  -2.762  -1.159  0.00  0.00    -0.141 OA
BRANCH  23  29
ATOM     26  C   UNL     1       0.041  -2.096   3.771  0.00  0.00    +0.039 C 
ATOM     27  C   UNL     1      -0.853  -1.814   2.562  0.00  0.00    +0.131 C 
ATOM     28  C   UNL     1      -0.589  -2.861   1.474  0.00  0.00    +0.142 C 
ATOM     29  N   UNL     1      -1.317  -2.462   0.259  0.00  0.00    -0.162 NA
ATOM     30  C   UNL     1      -1.146  -1.084  -0.229  0.00  0.00    +0.142 C 
ATOM     31  C   UNL     1      -1.383  -0.124   0.942  0.00  0.00    +0.131 C 
ATOM     32  O   UNL     1      -0.562  -0.513   2.045  0.00  0.00    -0.371 OA
ATOM     33  C   UNL     1      -2.855  -0.177   1.356  0.00  0.00    +0.039 C 
ENDBRANCH  23  29
ENDBRANCH  21  23
ENDBRANCH  20  21
ENDBRANCH   1  20
TORSDOF 7
