REMARK  Name = ZINC40000799
REMARK  12 active torsions:
REMARK  status: ('A' for Active; 'I' for Inactive)
REMARK    1  A    between atoms: C_1  and  C_2
REMARK    2  A    between atoms: C_3  and  C_32
REMARK    3  A    between atoms: C_4  and  C_31
REMARK    4  A    between atoms: C_7  and  C_8
REMARK    5  A    between atoms: C_8  and  C_10
REMARK    6  A    between atoms: C_10  and  C_12
REMARK    7  A    between atoms: C_10  and  O_13
REMARK    8  A    between atoms: O_13  and  C_14
REMARK    9  A    between atoms: C_14  and  C_16
REMARK   10  A    between atoms: C_20  and  C_22
REMARK   11  A    between atoms: C_27  and  N_28
REMARK   12  A    between atoms: C_32  and  C_34
REMARK                            x       y       z     vdW  Elec       q    Type
REMARK                         _______ _______ _______ _____ _____    ______ ____
ROOT
ATOM      1  O   UNL     1       0.718  -1.786   4.427  0.00  0.00    -0.451 OA
ENDROOT
BRANCH   1   2
ATOM      2  C   UNL     1       0.678  -2.589   3.245  0.00  0.00    +0.245 C 
ATOM      3  C   UNL     1      -0.635  -3.374   3.207  0.00  0.00    +0.061 C 
BRANCH   2   4
ATOM      4  C   UNL     1       0.767  -1.700   2.031  0.00  0.00    +0.219 C 
ATOM      5  O   UNL     1       0.583  -0.505   2.139  0.00  0.00    -0.287 OA
BRANCH   4  12
ATOM      6  C   UNL     1       1.004  -0.080  -0.610  0.00  0.00    +0.047 C 
ATOM      7  C   UNL     1       1.176  -1.565  -0.420  0.00  0.00    -0.012 A 
ATOM      8  C   UNL     1       1.488  -2.513  -1.421  0.00  0.00    +0.041 A 
ATOM      9  C   UNL     1       1.549  -3.753  -0.803  0.00  0.00    +0.024 A 
ATOM     10  N   UNL     1       1.292  -3.595   0.502  0.00  0.00    -0.355 N 
ATOM     11  H   UNL     1       1.272  -4.308   1.160  0.00  0.00    +0.166 HD
ATOM     12  C   UNL     1       1.065  -2.259   0.765  0.00  0.00    +0.090 A 
ATOM     13  C   UNL     1       1.854  -5.061  -1.487  0.00  0.00    +0.064 C 
BRANCH   8  14
ATOM     14  C   UNL     1       1.706  -2.236  -2.845  0.00  0.00    +0.162 C 
ATOM     15  O   UNL     1       0.772  -2.268  -3.618  0.00  0.00    -0.292 OA
ATOM     16  C   UNL     1       3.089  -1.912  -3.347  0.00  0.00    +0.091 C 
ENDBRANCH   8  14
ENDBRANCH   4  12
ENDBRANCH   2   4
ENDBRANCH   1   2
BRANCH   1  17
ATOM     17  C   UNL     1       1.256  -2.343   5.523  0.00  0.00    +0.349 C 
ATOM     18  O   UNL     1       1.679  -3.474   5.481  0.00  0.00    -0.247 OA
BRANCH  17  19
ATOM     19  C   UNL     1       1.333  -1.557   6.807  0.00  0.00    +0.285 C 
ATOM     20  C   UNL     1      -0.080  -1.310   7.389  0.00  0.00    +0.087 C 
ATOM     21  C   UNL     1       0.171  -1.450   8.881  0.00  0.00    +0.023 C 
ATOM     22  C   UNL     1       1.356  -2.038   9.027  0.00  0.00    +0.127 C 
ATOM     23  O   UNL     1       1.956  -2.333   7.849  0.00  0.00    -0.477 OA
BRANCH  22  24
ATOM     24  C   UNL     1       1.959  -2.339  10.345  0.00  0.00    +0.047 A 
ATOM     25  C   UNL     1       1.340  -3.244  11.208  0.00  0.00    +0.014 A 
ATOM     26  C   UNL     1       1.907  -3.521  12.435  0.00  0.00    +0.001 A 
ATOM     27  C   UNL     1       3.087  -2.902  12.811  0.00  0.00    +0.002 A 
ATOM     28  C   UNL     1       3.704  -2.003  11.960  0.00  0.00    +0.033 A 
ATOM     29  C   UNL     1       3.150  -1.723  10.727  0.00  0.00    +0.137 A 
BRANCH  29  30
ATOM     30  N   UNL     1       3.815  -0.766   9.815  0.00  0.00    +0.057 N 
ATOM     31  O   UNL     1       4.906  -0.324  10.093  0.00  0.00    -0.126 OA
ATOM     32  O   UNL     1       3.268  -0.426   8.792  0.00  0.00    -0.126 OA
ENDBRANCH  29  30
ENDBRANCH  22  24
ENDBRANCH  17  19
ENDBRANCH   1  17
TORSDOF 8
