REMARK  Name = ZINC52955754
REMARK  7 active torsions:
REMARK  status: ('A' for Active; 'I' for Inactive)
REMARK    1  A    between atoms: C_1  and  C_2
REMARK    2  A    between atoms: C_2  and  N_26
REMARK    3  A    between atoms: C_6  and  C_19
REMARK    4  A    between atoms: C_16  and  O_18
REMARK    5  A    between atoms: C_19  and  C_20
REMARK    6  A    between atoms: C_27  and  C_29
REMARK    7  A    between atoms: N_32  and  C_48
REMARK                            x       y       z     vdW  Elec       q    Type
REMARK                         _______ _______ _______ _____ _____    ______ ____
ROOT
ATOM      1  C   UNL     1      -0.019   1.526   0.010  0.00  0.00    +0.074 C 
ATOM      2  C   UNL     1       0.002  -0.004   0.002  0.00  0.00    +0.215 C 
ATOM      3  C   UNL     1      -1.409  -0.538   0.038  0.00  0.00    +0.271 C 
ATOM      4  O   UNL     1      -2.262  -0.347  -0.802  0.00  0.00    -0.270 OA
ATOM      5  N   UNL     1      -1.556  -1.259   1.157  0.00  0.00    -0.233 N 
ATOM      6  C   UNL     1      -2.781  -1.907   1.647  0.00  0.00    +0.171 C 
ATOM      7  C   UNL     1      -2.820  -1.774   3.151  0.00  0.00    +0.237 C 
ATOM      8  O   UNL     1      -3.840  -2.038   3.752  0.00  0.00    -0.274 OA
ATOM      9  N   UNL     1      -1.738  -1.367   3.829  0.00  0.00    -0.290 N 
ATOM     10  C   UNL     1      -1.499  -1.506   5.281  0.00  0.00    +0.108 C 
ATOM     11  C   UNL     1      -0.011  -1.947   5.340  0.00  0.00    +0.021 C 
ATOM     12  C   UNL     1       0.637  -1.097   4.219  0.00  0.00    +0.031 C 
ATOM     13  C   UNL     1      -0.525  -0.734   3.279  0.00  0.00    +0.156 C 
ATOM     14  C   UNL     1      -0.272  -1.306   1.880  0.00  0.00    +0.269 C 
ATOM     15  O   UNL     1       0.663  -0.490   1.176  0.00  0.00    -0.299 OA
ENDROOT
BRANCH   2  16
ATOM     16  N   UNL     1       0.693  -0.487  -1.196  0.00  0.00    -0.280 N 
ATOM     17  C   UNL     1       0.216  -0.179  -2.419  0.00  0.00    +0.223 C 
ATOM     18  O   UNL     1      -0.784   0.497  -2.527  0.00  0.00    -0.275 OA
ATOM     19  H   UNL     1       1.493  -1.029  -1.110  0.00  0.00    +0.152 HD
BRANCH  17  20
ATOM     20  C   UNL     1       0.927  -0.676  -3.651  0.00  0.00    +0.112 C 
ATOM     21  C   UNL     1       0.196  -0.181  -4.904  0.00  0.00    +0.101 C 
ATOM     22  N   UNL     1       0.963  -0.594  -6.083  0.00  0.00    -0.297 NA
ATOM     23  C   UNL     1       2.275   0.035  -6.158  0.00  0.00    +0.091 C 
ATOM     24  C   UNL     1       3.144  -0.704  -7.184  0.00  0.00    +0.061 C 
ATOM     25  C   UNL     1       4.535  -0.126  -7.170  0.00  0.00    -0.020 A 
ATOM     26  C   UNL     1       5.532  -0.051  -8.045  0.00  0.00    +0.087 A 
ATOM     27  N   UNL     1       6.618   0.601  -7.482  0.00  0.00    -0.360 N 
ATOM     28  H   UNL     1       7.458   0.770  -7.936  0.00  0.00    +0.165 HD
ATOM     29  C   UNL     1       6.339   0.972  -6.202  0.00  0.00    +0.047 A 
ATOM     30  C   UNL     1       5.031   0.535  -5.969  0.00  0.00    +0.010 A 
ATOM     31  C   UNL     1       4.308   0.715  -4.772  0.00  0.00    -0.011 A 
ATOM     32  C   UNL     1       4.981   1.361  -3.760  0.00  0.00    +0.009 A 
ATOM     33  C   UNL     1       6.288   1.796  -3.969  0.00  0.00    +0.003 A 
ATOM     34  C   UNL     1       6.990   1.625  -5.156  0.00  0.00    +0.026 A 
ATOM     35  C   UNL     1       2.938   0.169  -4.812  0.00  0.00    -0.025 C 
ATOM     36  C   UNL     1       2.333  -0.139  -3.677  0.00  0.00    -0.007 C 
ATOM     37  C   UNL     1       0.198  -0.364  -7.316  0.00  0.00    +0.105 C 
ENDBRANCH  17  20
ENDBRANCH   2  16
BRANCH  14  38
ATOM     38  O   UNL     1       0.197  -2.653   1.973  0.00  0.00    -0.348 OA
ATOM     39  H   UNL     1       0.334  -3.081   1.117  0.00  0.00    +0.214 HD
ENDBRANCH  14  38
BRANCH   6  40
ATOM     40  C   UNL     1      -2.772  -3.387   1.259  0.00  0.00    +0.067 C 
BRANCH  40  41
ATOM     41  C   UNL     1      -2.829  -3.514  -0.241  0.00  0.00    -0.045 A 
ATOM     42  C   UNL     1      -4.051  -3.587  -0.883  0.00  0.00    +0.004 A 
ATOM     43  C   UNL     1      -4.103  -3.703  -2.260  0.00  0.00    +0.000 A 
ATOM     44  C   UNL     1      -2.933  -3.747  -2.994  0.00  0.00    +0.000 A 
ATOM     45  C   UNL     1      -1.711  -3.674  -2.353  0.00  0.00    +0.000 A 
ATOM     46  C   UNL     1      -1.659  -3.553  -0.977  0.00  0.00    +0.004 A 
ENDBRANCH  40  41
ENDBRANCH   6  40
TORSDOF 5
