REMARK  Name = ZINC08739532
REMARK  8 active torsions:
REMARK  status: ('A' for Active; 'I' for Inactive)
REMARK    1  A    between atoms: C_1  and  C_2
REMARK    2  A    between atoms: C_2  and  C_3
REMARK    3  A    between atoms: C_3  and  C_4
REMARK    4  A    between atoms: C_4  and  C_5
REMARK    5  A    between atoms: C_5  and  C_6
REMARK    6  A    between atoms: C_6  and  N_7
REMARK    7  A    between atoms: C_16  and  C_28
REMARK    8  A    between atoms: C_29  and  O_33
REMARK                            x       y       z     vdW  Elec       q    Type
REMARK                         _______ _______ _______ _____ _____    ______ ____
ROOT
ATOM      1  N   UNL     1      -0.651   1.531   6.210  0.00  0.00    -0.223 N 
ATOM      2  C   UNL     1      -0.292   2.705   6.753  0.00  0.00    +0.240 C 
ATOM      3  O   UNL     1       0.593   3.353   6.235  0.00  0.00    -0.274 OA
ATOM      4  C   UNL     1      -0.968   3.237   7.985  0.00  0.00    +0.143 C 
ATOM      5  C   UNL     1       0.074   3.443   9.088  0.00  0.00    +0.066 C 
ATOM      6  C   UNL     1      -0.529   4.260  10.203  0.00  0.00    -0.007 A 
ATOM      7  C   UNL     1       0.107   4.261  11.412  0.00  0.00    +0.017 A 
ATOM      8  C   UNL     1      -0.435   5.028  12.461  0.00  0.00    -0.001 A 
ATOM      9  C   UNL     1       0.169   5.071  13.726  0.00  0.00    +0.013 A 
ATOM     10  C   UNL     1      -0.388   5.828  14.713  0.00  0.00    -0.050 A 
ATOM     11  C   UNL     1      -1.549   6.561  14.481  0.00  0.00    +0.005 A 
ATOM     12  C   UNL     1      -2.161   6.541  13.265  0.00  0.00    +0.026 A 
ATOM     13  C   UNL     1      -1.618   5.770  12.223  0.00  0.00    +0.048 A 
ATOM     14  C   UNL     1      -1.700   5.004  10.026  0.00  0.00    +0.103 A 
ATOM     15  N   UNL     1      -2.396   5.028   8.828  0.00  0.00    -0.312 N 
ATOM     16  C   UNL     1      -1.604   4.598   7.678  0.00  0.00    +0.099 C 
ATOM     17  C   UNL     1      -2.503   4.467   6.446  0.00  0.00    +0.024 C 
ATOM     18  C   UNL     1      -3.167   5.817   6.160  0.00  0.00    +0.003 C 
ATOM     19  C   UNL     1      -3.955   6.262   7.395  0.00  0.00    +0.019 C 
ATOM     20  C   UNL     1      -3.010   6.342   8.596  0.00  0.00    +0.107 C 
ATOM     21  C   UNL     1       0.262   5.874  16.072  0.00  0.00    +0.044 C 
ATOM     22  C   UNL     1      -2.026   2.284   8.463  0.00  0.00    +0.198 C 
ATOM     23  N   UNL     1      -2.281   1.167   7.853  0.00  0.00    -0.131 NA
ATOM     24  C   UNL     1      -1.621   0.778   6.752  0.00  0.00    +0.335 C 
ATOM     25  O   UNL     1      -1.910  -0.282   6.231  0.00  0.00    -0.250 OA
ATOM     26  N   UNL     1      -2.265   5.771  11.008  0.00  0.00    -0.343 N 
ATOM     27  H   UNL     1      -3.122   6.314  10.849  0.00  0.00    +0.167 HD
ENDROOT
BRANCH  22  28
ATOM     28  O   UNL     1      -2.733   2.599   9.559  0.00  0.00    -0.496 OA
ATOM     29  H   UNL     1      -3.407   1.967   9.844  0.00  0.00    +0.293 HD
ENDBRANCH  22  28
BRANCH   1  30
ATOM     30  C   UNL     1       0.035   1.059   5.005  0.00  0.00    +0.118 C 
BRANCH  30  31
ATOM     31  C   UNL     1      -0.705   1.566   3.765  0.00  0.00    +0.019 C 
BRANCH  31  32
ATOM     32  C   UNL     1       0.011   1.072   2.506  0.00  0.00    +0.002 C 
BRANCH  32  33
ATOM     33  C   UNL     1      -0.729   1.579   1.267  0.00  0.00    -0.000 C 
BRANCH  33  35
ATOM     34  C   UNL     1      -0.753   1.593  -1.232  0.00  0.00    +0.004 C 
ATOM     35  C   UNL     1      -0.013   1.086   0.008  0.00  0.00    -0.003 C 
ENDBRANCH  33  35
ENDBRANCH  32  33
ENDBRANCH  31  32
ENDBRANCH  30  31
ENDBRANCH   1  30
TORSDOF 6
