REMARK  Name = ZINC05417730
REMARK  5 active torsions:
REMARK  status: ('A' for Active; 'I' for Inactive)
REMARK    1  A    between atoms: C_1  and  C_2
REMARK    2  A    between atoms: C_5  and  C_7
REMARK    3  A    between atoms: C_7  and  C_9
REMARK    4  A    between atoms: C_7  and  N_16
REMARK    5  A    between atoms: C_9  and  O_15
REMARK                            x       y       z     vdW  Elec       q    Type
REMARK                         _______ _______ _______ _____ _____    ______ ____
ROOT
ATOM      1  C   UNL     1       2.498   3.360  -0.004  0.00  0.00    +0.177 C 
ENDROOT
BRANCH   1   2
ATOM      2  N   UNL     1       2.158   4.123   1.199  0.00  0.00    -0.233 N 
ATOM      3  C   UNL     1       3.025   4.538   2.183  0.00  0.00    +0.090 A 
ATOM      4  C   UNL     1       4.395   4.405   2.382  0.00  0.00    +0.029 A 
ATOM      5  C   UNL     1       4.975   4.947   3.495  0.00  0.00    +0.002 A 
ATOM      6  C   UNL     1       4.208   5.631   4.430  0.00  0.00    +0.002 A 
ATOM      7  C   UNL     1       2.862   5.775   4.257  0.00  0.00    +0.032 A 
ATOM      8  C   UNL     1       2.243   5.229   3.125  0.00  0.00    +0.113 A 
ATOM      9  N   UNL     1       0.967   5.208   2.691  0.00  0.00    -0.129 NA
ATOM     10  N   UNL     1       0.885   4.579   1.572  0.00  0.00    -0.064 NA
ENDBRANCH   1   2
BRANCH   1  15
ATOM     11  C   UNL     1      -1.155  -0.969   0.007  0.00  0.00    +0.051 C 
ATOM     12  C   UNL     1       0.002  -0.004   0.002  0.00  0.00    -0.013 A 
ATOM     13  C   UNL     1       1.332  -0.266  -0.012  0.00  0.00    +0.011 A 
ATOM     14  C   UNL     1       2.223   0.790  -0.015  0.00  0.00    +0.014 A 
ATOM     15  C   UNL     1       1.742   2.057  -0.004  0.00  0.00    +0.017 A 
ATOM     16  S   UNL     1      -0.022   1.781   0.012  0.00  0.00    -0.096 S 
ENDBRANCH   1  15
BRANCH   1  17
ATOM     17  C   UNL     1       2.119   4.170  -1.246  0.00  0.00    +0.093 C 
ATOM     18  C   UNL     1       0.641   4.560  -1.168  0.00  0.00    +0.037 C 
ATOM     19  C   UNL     1       0.261   5.370  -2.409  0.00  0.00    +0.003 C 
ATOM     20  C   UNL     1       0.500   4.524  -3.662  0.00  0.00    +0.000 C 
ATOM     21  C   UNL     1       1.978   4.135  -3.740  0.00  0.00    +0.003 C 
ATOM     22  C   UNL     1       2.358   3.325  -2.498  0.00  0.00    +0.037 C 
BRANCH  17  23
ATOM     23  O   UNL     1       2.920   5.351  -1.307  0.00  0.00    -0.386 OA
ATOM     24  H   UNL     1       2.733   5.914  -2.071  0.00  0.00    +0.210 HD
ENDBRANCH  17  23
ENDBRANCH   1  17
TORSDOF 4
