REMARK  Name = ZINC08855487
REMARK  5 active torsions:
REMARK  status: ('A' for Active; 'I' for Inactive)
REMARK    1  A    between atoms: C_15  and  C_16
REMARK    2  A    between atoms: N_17  and  C_18
REMARK    3  A    between atoms: C_23  and  O_24
REMARK    4  A    between atoms: O_24  and  C_25
REMARK    5  A    between atoms: C_28  and  C_31
REMARK                            x       y       z     vdW  Elec       q    Type
REMARK                         _______ _______ _______ _____ _____    ______ ____
ROOT
ATOM      1  C   UNL     1      -2.289   3.007  -2.425  0.00  0.00    +0.076 C 
ATOM      2  N   UNL     1      -3.501   3.595  -2.408  0.00  0.00    -0.361 N 
ATOM      3  H   UNL     1      -3.974   3.851  -1.448  0.00  0.00    +0.165 HD
ENDROOT
BRANCH   1  17
ATOM      4  C   UNL     1      -0.300  -1.085   4.259  0.00  0.00    +0.000 A 
ATOM      5  C   UNL     1       0.747  -0.933   3.369  0.00  0.00    +0.000 A 
ATOM      6  C   UNL     1       0.693   0.057   2.410  0.00  0.00    +0.006 A 
ATOM      7  C   UNL     1      -0.405   0.902   2.333  0.00  0.00    -0.023 A 
ATOM      8  C   UNL     1      -1.454   0.746   3.213  0.00  0.00    -0.041 A 
ATOM      9  C   UNL     1      -1.395  -0.250   4.180  0.00  0.00    +0.004 A 
ATOM     10  C   UNL     1      -2.680   1.619   3.172  0.00  0.00    +0.054 C 
ATOM     11  C   UNL     1      -2.381   2.942   2.470  0.00  0.00    +0.113 C 
ATOM     12  N   UNL     1      -1.685   2.637   1.201  0.00  0.00    -0.293 N 
ATOM     13  C   UNL     1      -0.403   1.984   1.283  0.00  0.00    +0.114 C 
ATOM     14  C   UNL     1       0.226   1.504   0.007  0.00  0.00    +0.102 C 
ATOM     15  C   UNL     1      -0.482   1.891  -1.246  0.00  0.00    +0.152 C 
ATOM     16  O   UNL     1      -0.006   1.561  -2.313  0.00  0.00    -0.296 OA
ATOM     17  C   UNL     1      -1.685   2.630  -1.238  0.00  0.00    +0.180 C 
ATOM     18  C   UNL     1      -2.284   2.990   0.053  0.00  0.00    +0.232 C 
ATOM     19  O   UNL     1      -3.329   3.612   0.083  0.00  0.00    -0.274 OA
ENDBRANCH   1  17
BRANCH   2  20
ATOM     20  C   UNL     1      -4.159   3.878  -3.610  0.00  0.00    +0.082 A 
ATOM     21  C   UNL     1      -3.564   3.555  -4.821  0.00  0.00    +0.029 A 
ATOM     22  C   UNL     1      -4.216   3.836  -6.007  0.00  0.00    +0.002 A 
ATOM     23  C   UNL     1      -5.461   4.438  -5.990  0.00  0.00    +0.004 A 
ATOM     24  C   UNL     1      -6.060   4.763  -4.788  0.00  0.00    +0.048 A 
ATOM     25  C   UNL     1      -5.416   4.480  -3.594  0.00  0.00    +0.154 A 
BRANCH  25  26
ATOM     26  O   UNL     1      -6.006   4.794  -2.410  0.00  0.00    -0.435 OA
BRANCH  26  27
ATOM     27  C   UNL     1      -5.696   5.986  -1.840  0.00  0.00    +0.239 A 
ATOM     28  C   UNL     1      -6.357   6.389  -0.685  0.00  0.00    +0.103 A 
ATOM     29  C   UNL     1      -6.031   7.607  -0.113  0.00  0.00    +0.039 A 
ATOM     30  C   UNL     1      -5.051   8.382  -0.720  0.00  0.00    +0.074 A 
ATOM     31  C   UNL     1      -4.436   7.918  -1.865  0.00  0.00    +0.127 A 
ATOM     32  N   UNL     1      -4.764   6.750  -2.384  0.00  0.00    -0.219 NA
ATOM     33 CL   UNL     1      -7.575   5.380   0.030  0.00  0.00    -0.078 Cl
BRANCH  30  34
ATOM     34  C   UNL     1      -4.663   9.715  -0.134  0.00  0.00    +0.419 C 
ATOM     35  F   UNL     1      -3.621   9.536   0.783  0.00  0.00    -0.166 F 
ATOM     36  F   UNL     1      -4.242  10.570  -1.158  0.00  0.00    -0.166 F 
ATOM     37  F   UNL     1      -5.766  10.277   0.518  0.00  0.00    -0.166 F 
ENDBRANCH  30  34
ENDBRANCH  26  27
ENDBRANCH  25  26
ENDBRANCH   2  20
TORSDOF 5
