REMARK  Name = ZINC39923124
REMARK  7 active torsions:
REMARK  status: ('A' for Active; 'I' for Inactive)
REMARK    1  A    between atoms: C_5  and  C_7
REMARK    2  A    between atoms: C_7  and  O_8
REMARK    3  A    between atoms: O_8  and  C_9
REMARK    4  A    between atoms: C_14  and  C_15
REMARK    5  A    between atoms: C_17  and  C_21
REMARK    6  A    between atoms: N_23  and  N_24
REMARK    7  A    between atoms: C_25  and  C_26
REMARK                            x       y       z     vdW  Elec       q    Type
REMARK                         _______ _______ _______ _____ _____    ______ ____
ROOT
ATOM      1  C   UNL     1      -2.735  -3.720   0.145  0.00  0.00    +0.095 C 
ATOM      2  C   UNL     1      -2.708  -2.374   0.119  0.00  0.00    +0.041 C 
ATOM      3  C   UNL     1      -4.171  -1.983   0.010  0.00  0.00    +0.240 C 
ATOM      4  N   UNL     1      -4.865  -3.281  -0.011  0.00  0.00    -0.170 NA
ATOM      5  N   UNL     1      -4.014  -4.171   0.061  0.00  0.00    -0.153 NA
ENDROOT
BRANCH   1  11
ATOM      6  C   UNL     1      -0.273  -4.023   0.440  0.00  0.00    +0.130 A 
ATOM      7  C   UNL     1       0.840  -4.843   0.538  0.00  0.00    +0.046 A 
ATOM      8  C   UNL     1       0.701  -6.214   0.438  0.00  0.00    +0.004 A 
ATOM      9  C   UNL     1      -0.548  -6.777   0.239  0.00  0.00    +0.001 A 
ATOM     10  C   UNL     1      -1.665  -5.972   0.140  0.00  0.00    +0.014 A 
ATOM     11  C   UNL     1      -1.537  -4.589   0.245  0.00  0.00    +0.044 A 
BRANCH   6  12
ATOM     12  O   UNL     1      -0.138  -2.675   0.539  0.00  0.00    -0.487 OA
BRANCH  12  13
ATOM     13  C   UNL     1       1.192  -2.162   0.633  0.00  0.00    +0.266 C 
BRANCH  13  18
ATOM     14  C   UNL     1      -0.126   1.317   1.278  0.00  0.00    +0.000 A 
ATOM     15  C   UNL     1       1.046   2.044   1.372  0.00  0.00    +0.001 A 
ATOM     16  C   UNL     1       2.266   1.411   1.226  0.00  0.00    +0.020 A 
ATOM     17  C   UNL     1       2.314   0.049   0.987  0.00  0.00    +0.047 A 
ATOM     18  C   UNL     1       1.141  -0.678   0.894  0.00  0.00    +0.008 A 
ATOM     19  C   UNL     1      -0.079  -0.044   1.039  0.00  0.00    +0.008 A 
ATOM     20 CL   UNL     1       3.846  -0.748   0.804  0.00  0.00    -0.083 Cl
ENDBRANCH  13  18
ENDBRANCH  12  13
ENDBRANCH   6  12
ENDBRANCH   1  11
BRANCH   3  21
ATOM     21  C   UNL     1      -4.424  -1.219  -1.264  0.00  0.00    +0.263 C 
ATOM     22  O   UNL     1      -4.903  -1.784  -2.225  0.00  0.00    -0.271 OA
ATOM     23  N   UNL     1      -4.119   0.091  -1.337  0.00  0.00    -0.205 N 
ATOM     24  H   UNL     1      -3.736   0.543  -0.568  0.00  0.00    +0.177 HD
BRANCH  23  25
ATOM     25  N   UNL     1      -4.354   0.801  -2.521  0.00  0.00    -0.188 NA
ATOM     26  C   UNL     1      -4.060   2.063  -2.591  0.00  0.00    +0.139 C 
BRANCH  26  27
ATOM     27  C   UNL     1      -4.308   2.810  -3.838  0.00  0.00    +0.013 A 
ATOM     28  C   UNL     1      -3.987   4.168  -3.918  0.00  0.00    +0.012 A 
ATOM     29  C   UNL     1      -4.221   4.860  -5.087  0.00  0.00    +0.021 A 
ATOM     30  C   UNL     1      -4.774   4.214  -6.181  0.00  0.00    +0.042 A 
ATOM     31  C   UNL     1      -5.094   2.869  -6.109  0.00  0.00    +0.040 A 
ATOM     32  C   UNL     1      -4.860   2.162  -4.947  0.00  0.00    +0.051 A 
ATOM     33 CL   UNL     1      -5.256   0.474  -4.860  0.00  0.00    -0.083 Cl
ATOM     34 CL   UNL     1      -5.066   5.095  -7.648  0.00  0.00    -0.083 Cl
ENDBRANCH  26  27
ENDBRANCH  23  25
ENDBRANCH   3  21
TORSDOF 7
