REMARK  Name = ZINC38994408
REMARK  11 active torsions:
REMARK  status: ('A' for Active; 'I' for Inactive)
REMARK    1  A    between atoms: C_1  and  O_2
REMARK    2  A    between atoms: O_2  and  C_3
REMARK    3  A    between atoms: C_6  and  N_9
REMARK    4  A    between atoms: N_9  and  C_10
REMARK    5  A    between atoms: N_9  and  S_25
REMARK    6  A    between atoms: C_10  and  C_11
REMARK    7  A    between atoms: C_16  and  O_23
REMARK    8  A    between atoms: O_23  and  C_24
REMARK    9  A    between atoms: S_25  and  C_28
REMARK   10  A    between atoms: C_31  and  O_34
REMARK   11  A    between atoms: O_34  and  C_35
REMARK                            x       y       z     vdW  Elec       q    Type
REMARK                         _______ _______ _______ _____ _____    ______ ____
ROOT
ATOM      1  N   UNL     1      -4.944  -2.657  -0.015  0.00  0.00    -0.202 N 
ENDROOT
BRANCH   1   5
ATOM      2  C   UNL     1      -0.945  -2.132  -1.069  0.00  0.00    +0.120 A 
ATOM      3  C   UNL     1      -1.819  -1.056  -1.107  0.00  0.00    +0.047 A 
ATOM      4  C   UNL     1      -3.144  -1.229  -0.758  0.00  0.00    +0.028 A 
ATOM      5  C   UNL     1      -3.601  -2.481  -0.369  0.00  0.00    +0.052 A 
ATOM      6  C   UNL     1      -2.725  -3.558  -0.330  0.00  0.00    +0.028 A 
ATOM      7  C   UNL     1      -1.402  -3.384  -0.685  0.00  0.00    +0.047 A 
BRANCH   2   9
ATOM      8  C   UNL     1       0.762  -0.644  -1.797  0.00  0.00    +0.277 C 
ATOM      9  O   UNL     1       0.360  -1.961  -1.412  0.00  0.00    -0.495 OA
ENDBRANCH   2   9
ENDBRANCH   1   5
BRANCH   1  10
ATOM     10  S   UNL     1      -5.851  -1.358   0.465  0.00  0.00    +0.075 S 
ATOM     11  O   UNL     1      -6.988  -1.882   1.137  0.00  0.00    -0.150 OA
ATOM     12  O   UNL     1      -4.956  -0.443   1.082  0.00  0.00    -0.150 OA
BRANCH  10  13
ATOM     13  C   UNL     1      -6.447  -0.572  -0.995  0.00  0.00    +0.109 A 
ATOM     14  C   UNL     1      -5.781   0.525  -1.510  0.00  0.00    +0.032 A 
ATOM     15  C   UNL     1      -6.246   1.144  -2.654  0.00  0.00    +0.047 A 
ATOM     16  C   UNL     1      -7.383   0.663  -3.287  0.00  0.00    +0.120 A 
ATOM     17  C   UNL     1      -8.050  -0.438  -2.769  0.00  0.00    +0.047 A 
ATOM     18  C   UNL     1      -7.577  -1.056  -1.628  0.00  0.00    +0.032 A 
BRANCH  16  19
ATOM     19  O   UNL     1      -7.843   1.270  -4.413  0.00  0.00    -0.495 OA
ATOM     20  C   UNL     1      -9.019   0.721  -5.011  0.00  0.00    +0.277 C 
ENDBRANCH  16  19
ENDBRANCH  10  13
ENDBRANCH   1  10
BRANCH   1  21
ATOM     21  C   UNL     1      -5.546  -3.992  -0.068  0.00  0.00    +0.148 C 
BRANCH  21  22
ATOM     22  C   UNL     1      -5.114  -4.796   1.160  0.00  0.00    +0.118 C 
ATOM     23  C   UNL     1      -5.433  -6.255   0.896  0.00  0.00    -0.003 C 
ATOM     24  C   UNL     1      -6.262  -6.882   1.777  0.00  0.00    -0.004 A 
ATOM     25  C   UNL     1      -6.622  -8.289   1.597  0.00  0.00    +0.055 A 
ATOM     26  C   UNL     1      -7.454  -8.875   2.501  0.00  0.00    +0.121 A 
ATOM     27  C   UNL     1      -7.965  -8.158   3.590  0.00  0.00    +0.047 A 
ATOM     28  C   UNL     1      -7.667  -6.851   3.809  0.00  0.00    +0.027 A 
ATOM     29  C   UNL     1      -6.816  -6.154   2.932  0.00  0.00    +0.041 A 
ATOM     30  N   UNL     1      -6.532  -4.871   3.160  0.00  0.00    -0.284 N 
ATOM     31  C   UNL     1      -5.743  -4.157   2.377  0.00  0.00    +0.226 C 
ATOM     32  O   UNL     1      -5.521  -2.989   2.637  0.00  0.00    -0.275 OA
ATOM     33  H   UNL     1      -6.925  -4.442   3.937  0.00  0.00    +0.155 HD
BRANCH  26  34
ATOM     34  O   UNL     1      -7.795 -10.181   2.345  0.00  0.00    -0.495 OA
ATOM     35  C   UNL     1      -8.671 -10.745   3.323  0.00  0.00    +0.277 C 
ENDBRANCH  26  34
ENDBRANCH  21  22
ENDBRANCH   1  21
TORSDOF 8
