REMARK  Name = ZINC14527745
REMARK  6 active torsions:
REMARK  status: ('A' for Active; 'I' for Inactive)
REMARK    1  A    between atoms: C_1  and  C_2
REMARK    2  A    between atoms: C_7  and  C_8
REMARK    3  A    between atoms: C_7  and  N_61
REMARK    4  A    between atoms: C_14  and  C_16
REMARK    5  A    between atoms: C_16  and  C_17
REMARK    6  A    between atoms: C_17  and  N_18
REMARK                            x       y       z     vdW  Elec       q    Type
REMARK                         _______ _______ _______ _____ _____    ______ ____
ROOT
ATOM      1  C   UNL     1       5.183 -10.369  -5.051  0.00  0.00    +0.034 A 
ATOM      2  C   UNL     1       5.823 -10.737  -3.914  0.00  0.00    +0.070 A 
ATOM      3  S   UNL     1       5.117  -9.582  -2.747  0.00  0.00    -0.060 S 
ATOM      4  C   UNL     1       4.072  -8.750  -3.857  0.00  0.00    +0.164 A 
ATOM      5  N   UNL     1       4.312  -9.380  -4.990  0.00  0.00    -0.231 NA
ATOM      6  N   UNL     1       3.201  -7.695  -3.612  0.00  0.00    -0.265 N 
ATOM      7  C   UNL     1       3.091  -7.187  -2.368  0.00  0.00    +0.220 C 
ATOM      8  O   UNL     1       3.752  -7.650  -1.463  0.00  0.00    -0.275 OA
ATOM      9  H   UNL     1       2.672  -7.325  -4.335  0.00  0.00    +0.157 HD
ENDROOT
BRANCH   1  10
ATOM     10  C   UNL     1       5.455 -11.077  -6.353  0.00  0.00    -0.022 C 
BRANCH  10  17
ATOM     11  C   UNL     1       1.207 -14.613  -7.811  0.00  0.00    +0.007 C 
ATOM     12  C   UNL     1       2.156 -13.415  -7.745  0.00  0.00    -0.018 C 
ATOM     13  C   UNL     1       3.586 -13.878  -8.039  0.00  0.00    -0.016 C 
ATOM     14  C   UNL     1       4.539 -12.687  -7.912  0.00  0.00    -0.078 C 
ATOM     15  C   UNL     1       3.102 -11.639  -6.266  0.00  0.00    -0.078 C 
ATOM     16  C   UNL     1       2.106 -12.799  -6.344  0.00  0.00    -0.016 C 
ATOM     17  N   UNL     1       4.461 -12.155  -6.534  0.00  0.00    +0.383 N 
ATOM     18  H   UNL     1       4.666 -12.913  -5.873  0.00  0.00    -0.081 HD
ENDBRANCH  10  17
ENDBRANCH   1  10
BRANCH   7  19
ATOM     19  C   UNL     1       2.147  -6.043  -2.103  0.00  0.00    +0.118 C 
BRANCH  19  20
ATOM     20  C   UNL     1       2.213  -5.659  -0.623  0.00  0.00    +0.135 C 
BRANCH  20  21
ATOM     21  N   UNL     1       1.295  -4.547  -0.365  0.00  0.00    -0.298 N 
ATOM     22  C   UNL     1       0.019  -4.832  -0.011  0.00  0.00    +0.203 A 
ATOM     23  N   UNL     1      -0.879  -3.905   0.240  0.00  0.00    -0.230 NA
ATOM     24  C   UNL     1      -0.494  -2.637   0.136  0.00  0.00    +0.116 A 
ATOM     25  C   UNL     1       0.812  -2.239  -0.226  0.00  0.00    +0.076 A 
ATOM     26  C   UNL     1       1.762  -3.282  -0.491  0.00  0.00    +0.262 A 
ATOM     27  O   UNL     1       2.914  -3.045  -0.810  0.00  0.00    -0.267 OA
ATOM     28  C   UNL     1       1.051  -0.808  -0.290  0.00  0.00    -0.023 A 
ATOM     29  C   UNL     1       0.002  -0.004   0.002  0.00  0.00    -0.004 A 
ATOM     30  S   UNL     1      -1.339  -1.106   0.372  0.00  0.00    -0.073 S 
ATOM     31  C   UNL     1      -0.018   1.493   0.010  0.00  0.00    +0.043 C 
ATOM     32  C   UNL     1       1.431   1.999  -0.001  0.00  0.00    +0.005 C 
ATOM     33  C   UNL     1       2.205   1.245  -1.085  0.00  0.00    +0.005 C 
ATOM     34  C   UNL     1       2.405  -0.211  -0.663  0.00  0.00    +0.037 C 
ENDBRANCH  20  21
ENDBRANCH  19  20
ENDBRANCH   7  19
TORSDOF 5
