REMARK  Name = ZINC09934817
REMARK  5 active torsions:
REMARK  status: ('A' for Active; 'I' for Inactive)
REMARK    1  A    between atoms: C_2  and  C_3
REMARK    2  A    between atoms: C_3  and  N_4
REMARK    3  A    between atoms: N_12  and  N_13
REMARK    4  A    between atoms: C_14  and  C_16
REMARK    5  A    between atoms: C_25  and  O_26
REMARK                            x       y       z     vdW  Elec       q    Type
REMARK                         _______ _______ _______ _____ _____    ______ ____
ROOT
ATOM      1  N   UNL     1       4.219   3.068  -2.881  0.00  0.00    -0.202 N 
ATOM      2  C   UNL     1       5.233   3.451  -3.683  0.00  0.00    +0.267 C 
ATOM      3  O   UNL     1       6.281   3.830  -3.198  0.00  0.00    -0.268 OA
ATOM      4  H   UNL     1       3.383   2.765  -3.268  0.00  0.00    +0.178 HD
ENDROOT
BRANCH   1  13
ATOM      5  N   UNL     1       1.357   1.975  -0.000  0.00  0.00    -0.254 N 
ATOM      6  C   UNL     1       2.104   2.235   1.143  0.00  0.00    +0.047 A 
ATOM      7  C   UNL     1       1.801   2.105   2.494  0.00  0.00    +0.025 A 
ATOM      8  C   UNL     1       2.740   2.438   3.450  0.00  0.00    +0.017 A 
ATOM      9  C   UNL     1       3.990   2.904   3.079  0.00  0.00    +0.019 A 
ATOM     10  C   UNL     1       4.309   3.039   1.742  0.00  0.00    +0.027 A 
ATOM     11  C   UNL     1       3.370   2.706   0.772  0.00  0.00    +0.029 A 
ATOM     12  C   UNL     1       3.388   2.733  -0.709  0.00  0.00    +0.153 C 
ATOM     13  N   UNL     1       4.374   3.106  -1.489  0.00  0.00    -0.174 NA
ATOM     14  C   UNL     1       2.056   2.242  -1.116  0.00  0.00    +0.272 C 
ATOM     15  O   UNL     1       1.661   2.107  -2.259  0.00  0.00    -0.268 OA
ATOM     16 BR   UNL     1       5.262   3.356   4.403  0.00  0.00    -0.050 Br
BRANCH   5  17
ATOM     17  C   UNL     1      -0.018   1.468   0.010  0.00  0.00    +0.202 C 
BRANCH  17  19
ATOM     18  C   UNL     1       0.018  -1.178  -0.004  0.00  0.00    +0.005 C 
ATOM     19  C   UNL     1       0.002  -0.004   0.002  0.00  0.00    -0.086 C 
ENDBRANCH  17  19
ENDBRANCH   5  17
ENDBRANCH   1  13
BRANCH   2  20
ATOM     20  C   UNL     1       5.070   3.411  -5.148  0.00  0.00    +0.080 A 
ATOM     21  C   UNL     1       3.870   2.984  -5.696  0.00  0.00    +0.025 A 
ATOM     22  C   UNL     1       3.721   2.949  -7.089  0.00  0.00    -0.017 A 
ATOM     23  C   UNL     1       2.518   2.522  -7.680  0.00  0.00    +0.008 A 
ATOM     24  C   UNL     1       2.403   2.499  -9.035  0.00  0.00    +0.001 A 
ATOM     25  C   UNL     1       3.462   2.894  -9.851  0.00  0.00    +0.001 A 
ATOM     26  C   UNL     1       4.641   3.312  -9.317  0.00  0.00    +0.008 A 
ATOM     27  C   UNL     1       4.799   3.350  -7.920  0.00  0.00    -0.014 A 
ATOM     28  C   UNL     1       6.005   3.779  -7.340  0.00  0.00    +0.054 A 
ATOM     29  C   UNL     1       6.134   3.813  -5.983  0.00  0.00    +0.130 A 
BRANCH  29  30
ATOM     30  O   UNL     1       7.300   4.234  -5.430  0.00  0.00    -0.506 OA
ATOM     31  H   UNL     1       7.942   3.527  -5.281  0.00  0.00    +0.292 HD
ENDBRANCH  29  30
ENDBRANCH   2  20
TORSDOF 5
