REMARK  Name = ZINC23716359
REMARK  7 active torsions:
REMARK  status: ('A' for Active; 'I' for Inactive)
REMARK    1  A    between atoms: C_1  and  C_2
REMARK    2  A    between atoms: C_3  and  C_17
REMARK    3  A    between atoms: C_4  and  C_10
REMARK    4  A    between atoms: N_19  and  C_20
REMARK    5  A    between atoms: C_25  and  C_26
REMARK    6  A    between atoms: C_26  and  C_27
REMARK    7  A    between atoms: C_26  and  C_28
REMARK                            x       y       z     vdW  Elec       q    Type
REMARK                         _______ _______ _______ _____ _____    ______ ____
ROOT
ATOM      1  C   UNL     1       0.150   5.286  -0.002  0.00  0.00    +0.061 C 
ATOM      2  C   UNL     1       0.007   3.785   0.002  0.00  0.00    +0.017 C 
ATOM      3  C   UNL     1      -1.226   3.236   0.021  0.00  0.00    +0.056 C 
ATOM      4  C   UNL     1      -1.325   1.724   0.018  0.00  0.00    +0.139 C 
ATOM      5  N   UNL     1      -0.058   0.973   0.007  0.00  0.00    -0.315 N 
ATOM      6  C   UNL     1       1.098   1.665  -0.010  0.00  0.00    +0.135 C 
ATOM      7  S   UNL     1       2.578   0.805  -0.028  0.00  0.00    -0.019 S 
ATOM      8  N   UNL     1       1.127   3.004  -0.012  0.00  0.00    -0.300 N 
ATOM      9  H   UNL     1      -0.071  -0.127   0.014  0.00  0.00    +0.149 HD
ATOM     10  H   UNL     1       2.123   3.470  -0.027  0.00  0.00    +0.154 HD
ENDROOT
BRANCH   4  11
ATOM     11  C   UNL     1      -2.100   1.312   1.243  0.00  0.00    -0.022 A 
ATOM     12  C   UNL     1      -1.459   1.209   2.463  0.00  0.00    +0.008 A 
ATOM     13  C   UNL     1      -2.169   0.836   3.588  0.00  0.00    +0.038 A 
ATOM     14  C   UNL     1      -3.522   0.555   3.491  0.00  0.00    +0.123 A 
ATOM     15  C   UNL     1      -4.162   0.654   2.267  0.00  0.00    +0.038 A 
ATOM     16  C   UNL     1      -3.450   1.032   1.144  0.00  0.00    +0.008 A 
ATOM     17  F   UNL     1      -4.216   0.185   4.589  0.00  0.00    -0.205 F 
ENDBRANCH   4  11
BRANCH   3  18
ATOM     18  C   UNL     1      -2.388   4.046   0.036  0.00  0.00    +0.248 C 
ATOM     19  O   UNL     1      -3.007   4.242  -0.994  0.00  0.00    -0.270 OA
ATOM     20  N   UNL     1      -2.808   4.600   1.191  0.00  0.00    -0.281 N 
ATOM     21  H   UNL     1      -2.200   4.499   2.102  0.00  0.00    +0.155 HD
BRANCH  20  22
ATOM     22  C   UNL     1      -4.016   5.303   1.230  0.00  0.00    +0.037 A 
ATOM     23  C   UNL     1      -5.014   5.025   0.304  0.00  0.00    +0.023 A 
ATOM     24  C   UNL     1      -6.207   5.719   0.348  0.00  0.00    +0.002 A 
ATOM     25  C   UNL     1      -6.406   6.696   1.307  0.00  0.00    +0.000 A 
ATOM     26  C   UNL     1      -5.413   6.979   2.226  0.00  0.00    +0.006 A 
ATOM     27  C   UNL     1      -4.218   6.286   2.191  0.00  0.00    -0.024 A 
BRANCH  27  28
ATOM     28  C   UNL     1      -3.137   6.594   3.193  0.00  0.00    +0.015 C 
ATOM     29  C   UNL     1      -2.805   8.087   3.142  0.00  0.00    +0.012 C 
ATOM     30  C   UNL     1      -3.623   6.228   4.597  0.00  0.00    +0.012 C 
ENDBRANCH  27  28
ENDBRANCH  20  22
ENDBRANCH   3  18
TORSDOF 4
