REMARK  Name = ZINC34829811
REMARK  8 active torsions:
REMARK  status: ('A' for Active; 'I' for Inactive)
REMARK    1  A    between atoms: C_1  and  C_2
REMARK    2  A    between atoms: C_7  and  C_8
REMARK    3  A    between atoms: N_17  and  C_18
REMARK    4  A    between atoms: C_18  and  C_19
REMARK    5  A    between atoms: C_25  and  C_28
REMARK    6  A    between atoms: C_29  and  C_31
REMARK    7  A    between atoms: C_31  and  C_32
REMARK    8  A    between atoms: C_32  and  C_33
REMARK                            x       y       z     vdW  Elec       q    Type
REMARK                         _______ _______ _______ _____ _____    ______ ____
ROOT
ATOM      1  C   UNL     1       2.035  -1.041   3.220  0.00  0.00    +0.020 C 
ENDROOT
BRANCH   1   2
ATOM      2  C   UNL     1       2.623  -2.001   4.221  0.00  0.00    +0.199 C 
ATOM      3  O   UNL     1       1.935  -2.438   5.120  0.00  0.00    -0.278 OA
ATOM      4  N   UNL     1       3.914  -2.375   4.118  0.00  0.00    -0.300 N 
ATOM      5  C   UNL     1       4.761  -1.850   3.038  0.00  0.00    +0.126 C 
ATOM      6  C   UNL     1       5.363  -3.032   2.269  0.00  0.00    +0.127 C 
ATOM      7  N   UNL     1       5.949  -3.972   3.234  0.00  0.00    -0.296 N 
ATOM      8  C   UNL     1       5.102  -4.497   4.314  0.00  0.00    +0.090 C 
ATOM      9  C   UNL     1       4.501  -3.311   5.088  0.00  0.00    +0.130 C 
ATOM     10  C   UNL     1       3.981  -5.351   3.718  0.00  0.00    +0.029 C 
ATOM     11  C   UNL     1       7.240  -4.346   3.131  0.00  0.00    +0.216 C 
ATOM     12  O   UNL     1       7.712  -5.122   3.934  0.00  0.00    -0.276 OA
BRANCH  11  13
ATOM     13  C   UNL     1       8.096  -3.799   2.018  0.00  0.00    +0.096 C 
BRANCH  13  14
ATOM     14  C   UNL     1       9.508  -4.378   2.130  0.00  0.00    +0.013 C 
BRANCH  14  15
ATOM     15  C   UNL     1      10.377  -3.823   1.000  0.00  0.00    -0.011 C 
ATOM     16  C   UNL     1      10.670  -2.320   1.230  0.00  0.00    +0.003 C 
ATOM     17  C   UNL     1      11.971  -2.097   0.419  0.00  0.00    +0.000 C 
ATOM     18  C   UNL     1      12.784  -3.389   0.645  0.00  0.00    +0.000 C 
ATOM     19  C   UNL     1      11.770  -4.487   1.014  0.00  0.00    +0.003 C 
ENDBRANCH  14  15
ENDBRANCH  13  14
ENDBRANCH  11  13
ENDBRANCH   1   2
BRANCH   1  28
ATOM     20  C   UNL     1       0.025   0.045   2.504  0.00  0.00    -0.005 C 
ATOM     21  C   UNL     1      -1.408   0.381   2.904  0.00  0.00    -0.047 A 
ATOM     22  C   UNL     1      -2.385   0.814   2.011  0.00  0.00    +0.010 A 
ATOM     23  C   UNL     1      -3.634   1.088   2.455  0.00  0.00    +0.045 A 
ATOM     24  S   UNL     1      -3.490   0.739   4.202  0.00  0.00    -0.101 S 
ATOM     25  C   UNL     1      -1.786   0.260   4.208  0.00  0.00    -0.010 A 
ATOM     26  C   UNL     1      -0.922  -0.178   5.345  0.00  0.00    +0.024 C 
ATOM     27  C   UNL     1       0.538  -0.138   4.860  0.00  0.00    -0.072 C 
ATOM     28  N   UNL     1       0.625  -0.795   3.549  0.00  0.00    +0.393 N 
ATOM     29  H   UNL     1       0.135  -1.676   3.587  0.00  0.00    -0.080 HD
BRANCH  20  36
ATOM     30  C   UNL     1      -0.018   1.503   0.010  0.00  0.00    +0.044 C 
ATOM     31  C   UNL     1       0.002  -0.004   0.002  0.00  0.00    -0.049 A 
ATOM     32  C   UNL     1       0.006  -0.689  -1.199  0.00  0.00    +0.003 A 
ATOM     33  C   UNL     1       0.025  -2.071  -1.207  0.00  0.00    +0.000 A 
ATOM     34  C   UNL     1       0.040  -2.768  -0.013  0.00  0.00    +0.000 A 
ATOM     35  C   UNL     1       0.037  -2.084   1.188  0.00  0.00    +0.002 A 
ATOM     36  C   UNL     1       0.023  -0.702   1.195  0.00  0.00    -0.054 A 
ENDBRANCH  20  36
ENDBRANCH   1  28
TORSDOF 6
