REMARK  Name = ZINC43548255
REMARK  8 active torsions:
REMARK  status: ('A' for Active; 'I' for Inactive)
REMARK    1  A    between atoms: C_1  and  C_2
REMARK    2  A    between atoms: N_9  and  C_10
REMARK    3  A    between atoms: C_10  and  C_11
REMARK    4  A    between atoms: C_14  and  C_35
REMARK    5  A    between atoms: C_17  and  O_34
REMARK    6  A    between atoms: C_19  and  C_23
REMARK    7  A    between atoms: C_23  and  C_25
REMARK    8  A    between atoms: C_23  and  C_26
REMARK                            x       y       z     vdW  Elec       q    Type
REMARK                         _______ _______ _______ _____ _____    ______ ____
ROOT
ATOM      1  C   UNL     1      -1.654   0.996   0.441  0.00  0.00    +0.014 C 
ATOM      2  C   UNL     1      -1.371  -0.507   0.412  0.00  0.00    +0.039 C 
ATOM      3  C   UNL     1      -2.549  -1.259   1.014  0.00  0.00    +0.031 A 
ATOM      4  C   UNL     1      -2.482  -1.738   2.281  0.00  0.00    +0.013 A 
ATOM      5  S   UNL     1      -4.066  -2.506   2.486  0.00  0.00    -0.059 S 
ATOM      6  C   UNL     1      -4.678  -2.160   0.955  0.00  0.00    +0.137 A 
ATOM      7  N   UNL     1      -3.694  -1.503   0.381  0.00  0.00    -0.340 N 
ATOM      8  N   UNL     1      -5.918  -2.488   0.429  0.00  0.00    -0.321 N 
ATOM      9  C   UNL     1      -1.347  -1.630   3.239  0.00  0.00    +0.051 C 
ATOM     10  C   UNL     1      -0.363  -0.564   2.721  0.00  0.00    -0.022 C 
ATOM     11  C   UNL     1      -0.116  -0.806   1.226  0.00  0.00    +0.033 C 
ATOM     12  C   UNL     1       0.331  -2.252   1.018  0.00  0.00    +0.123 C 
ATOM     13  C   UNL     1       1.644  -2.483   1.771  0.00  0.00    +0.029 C 
ATOM     14  C   UNL     1       1.443  -2.200   3.260  0.00  0.00    +0.007 C 
ATOM     15  C   UNL     1       0.970  -0.756   3.460  0.00  0.00    +0.008 C 
ATOM     16  C   UNL     1      -0.916   0.841   2.967  0.00  0.00    +0.012 C 
ATOM     17  H   UNL     1      -6.145  -2.225  -0.477  0.00  0.00    +0.148 HD
ATOM     18  H   UNL     1      -3.806  -1.187  -0.530  0.00  0.00    +0.167 HD
ENDROOT
BRANCH  13  19
ATOM     19  C   UNL     1       2.087  -3.936   1.586  0.00  0.00    +0.078 C 
ATOM     20  C   UNL     1       1.067  -4.868   2.242  0.00  0.00    +0.017 C 
BRANCH  19  21
ATOM     21  C   UNL     1       3.436  -4.135   2.228  0.00  0.00    +0.219 C 
ATOM     22  O   UNL     1       3.510  -4.548   3.366  0.00  0.00    -0.275 OA
ATOM     23  N   UNL     1       4.559  -3.855   1.538  0.00  0.00    -0.297 N 
ATOM     24  C   UNL     1       4.494  -3.251   0.198  0.00  0.00    +0.136 C 
ATOM     25  C   UNL     1       5.423  -2.032   0.171  0.00  0.00    +0.179 C 
ATOM     26  O   UNL     1       6.720  -2.418   0.631  0.00  0.00    -0.377 OA
ATOM     27  C   UNL     1       6.748  -2.881   1.983  0.00  0.00    +0.179 C 
ATOM     28  C   UNL     1       5.887  -4.139   2.105  0.00  0.00    +0.136 C 
ENDBRANCH  19  21
ENDBRANCH  13  19
BRANCH  12  29
ATOM     29  O   UNL     1       0.528  -2.495  -0.377  0.00  0.00    -0.391 OA
ATOM     30  H   UNL     1       0.732  -3.416  -0.590  0.00  0.00    +0.210 HD
ENDBRANCH  12  29
BRANCH   8  31
ATOM     31  C   UNL     1      -6.884  -3.232   1.240  0.00  0.00    +0.130 C 
BRANCH  31  32
ATOM     32  C   UNL     1      -8.142  -3.459   0.441  0.00  0.00    -0.016 C 
ATOM     33  C   UNL     1      -8.604  -4.674   0.278  0.00  0.00    +0.005 C 
ENDBRANCH  31  32
ENDBRANCH   8  31
TORSDOF 5
