REMARK  Name = ZINC36497498
REMARK  14 active torsions:
REMARK  status: ('A' for Active; 'I' for Inactive)
REMARK    1  A    between atoms: C_1  and  C_2
REMARK    2  A    between atoms: C_2  and  C_3
REMARK    3  A    between atoms: C_3  and  C_4
REMARK    4  A    between atoms: C_4  and  C_5
REMARK    5  A    between atoms: C_5  and  C_6
REMARK    6  A    between atoms: C_6  and  C_8
REMARK    7  A    between atoms: C_6  and  N_22
REMARK    8  A    between atoms: N_10  and  C_11
REMARK    9  A    between atoms: C_11  and  S_12
REMARK   10  A    between atoms: S_12  and  C_15
REMARK   11  A    between atoms: C_18  and  C_21
REMARK   12  A    between atoms: N_22  and  C_23
REMARK   13  A    between atoms: C_23  and  C_24
REMARK   14  A    between atoms: C_29  and  C_31
REMARK                            x       y       z     vdW  Elec       q    Type
REMARK                         _______ _______ _______ _____ _____    ______ ____
ROOT
ATOM      1  C   UNL     1       2.348 -16.545  -6.501  0.00  0.00    +0.163 C 
ENDROOT
BRANCH   1   2
ATOM      2  C   UNL     1       3.344 -16.055  -7.520  0.00  0.00    +0.235 C 
ATOM      3  O   UNL     1       4.341 -15.466  -7.160  0.00  0.00    -0.274 OA
ATOM      4  N   UNL     1       3.126 -16.270  -8.833  0.00  0.00    -0.295 N 
ATOM      5  H   UNL     1       2.328 -16.741  -9.121  0.00  0.00    +0.150 HD
BRANCH   4   6
ATOM      6  C   UNL     1       4.093 -15.793  -9.824  0.00  0.00    +0.278 C 
BRANCH   6   7
ATOM      7  S   UNL     1       5.245 -17.133 -10.238  0.00  0.00    +0.013 S 
ATOM      8  O   UNL     1       6.151 -16.705 -11.245  0.00  0.00    -0.168 OA
ATOM      9  O   UNL     1       5.721 -17.753  -9.052  0.00  0.00    -0.168 OA
BRANCH   7  10
ATOM     10  C   UNL     1       4.250 -18.359 -11.020  0.00  0.00    +0.090 A 
ATOM     11  C   UNL     1       3.647 -19.345 -10.262  0.00  0.00    +0.027 A 
ATOM     12  C   UNL     1       2.866 -20.308 -10.875  0.00  0.00    +0.005 A 
ATOM     13  C   UNL     1       2.689 -20.284 -12.246  0.00  0.00    -0.050 A 
ATOM     14  C   UNL     1       3.292 -19.297 -13.003  0.00  0.00    +0.005 A 
ATOM     15  C   UNL     1       4.069 -18.332 -12.390  0.00  0.00    +0.027 A 
ATOM     16  C   UNL     1       1.839 -21.333 -12.914  0.00  0.00    +0.044 C 
ENDBRANCH   7  10
ENDBRANCH   6   7
ENDBRANCH   4   6
ENDBRANCH   1   2
BRANCH   1  17
ATOM     17  N   UNL     1       2.689 -16.002  -5.184  0.00  0.00    -0.279 N 
ATOM     18  C   UNL     1       1.799 -15.241  -4.518  0.00  0.00    +0.248 C 
ATOM     19  O   UNL     1       0.728 -14.971  -5.027  0.00  0.00    -0.270 OA
BRANCH  18  20
ATOM     20  C   UNL     1       2.123 -14.735  -3.167  0.00  0.00    +0.037 A 
ATOM     21  C   UNL     1       2.897 -15.504  -2.298  0.00  0.00    +0.014 A 
ATOM     22  C   UNL     1       3.197 -15.026  -1.039  0.00  0.00    +0.021 A 
ATOM     23  C   UNL     1       2.731 -13.785  -0.638  0.00  0.00    +0.041 A 
ATOM     24  C   UNL     1       1.962 -13.017  -1.496  0.00  0.00    +0.021 A 
ATOM     25  C   UNL     1       1.661 -13.482  -2.759  0.00  0.00    +0.014 A 
ATOM     26 CL   UNL     1       3.112 -13.191   0.948  0.00  0.00    -0.084 Cl
ENDBRANCH  18  20
BRANCH  17  27
ATOM     27  C   UNL     1       3.999 -16.284  -4.592  0.00  0.00    +0.183 C 
BRANCH  27  28
ATOM     28  C   UNL     1       3.984 -17.658  -3.972  0.00  0.00    +0.122 A 
ATOM     29  C   UNL     1       4.714 -18.051  -2.913  0.00  0.00    +0.046 A 
ATOM     30  C   UNL     1       4.390 -19.406  -2.672  0.00  0.00    +0.041 A 
ATOM     31  C   UNL     1       3.482 -19.760  -3.599  0.00  0.00    +0.195 A 
ATOM     32  O   UNL     1       3.236 -18.696  -4.380  0.00  0.00    -0.466 OA
ENDBRANCH  27  28
ENDBRANCH  17  27
ENDBRANCH   1  17
BRANCH   1  33
ATOM     33  C   UNL     1       2.385 -18.074  -6.446  0.00  0.00    +0.032 C 
BRANCH  33  34
ATOM     34  C   UNL     1       1.290 -18.578  -5.504  0.00  0.00    +0.002 C 
BRANCH  34  35
ATOM     35  C   UNL     1       1.327 -20.106  -5.450  0.00  0.00    -0.000 C 
BRANCH  35  37
ATOM     36  C   UNL     1       0.269 -22.138  -4.453  0.00  0.00    +0.004 C 
ATOM     37  C   UNL     1       0.232 -20.610  -4.508  0.00  0.00    -0.003 C 
ENDBRANCH  35  37
ENDBRANCH  34  35
ENDBRANCH  33  34
ENDBRANCH   1  33
TORSDOF 12
