REMARK  Name = ZINC63140220
REMARK  10 active torsions:
REMARK  status: ('A' for Active; 'I' for Inactive)
REMARK    1  A    between atoms: C_1  and  O_2
REMARK    2  A    between atoms: O_2  and  C_3
REMARK    3  A    between atoms: C_5  and  C_13
REMARK    4  A    between atoms: C_7  and  O_11
REMARK    5  A    between atoms: C_8  and  O_9
REMARK    6  A    between atoms: O_9  and  C_10
REMARK    7  A    between atoms: O_11  and  C_12
REMARK    8  A    between atoms: N_32  and  C_35
REMARK    9  A    between atoms: C_35  and  C_36
REMARK   10  A    between atoms: C_36  and  C_37
REMARK                            x       y       z     vdW  Elec       q    Type
REMARK                         _______ _______ _______ _____ _____    ______ ____
ROOT
ATOM      1  C   UNL     1      -4.871   0.264   0.038  0.00  0.00    +0.134 C 
ATOM      2  C   UNL     1      -5.510   0.207   1.429  0.00  0.00    +0.131 C 
ATOM      3  C   UNL     1      -6.026  -1.214   1.617  0.00  0.00    -0.034 C 
ATOM      4  C   UNL     1      -5.469  -1.671   2.732  0.00  0.00    -0.001 A 
ATOM      5  C   UNL     1      -5.636  -2.938   3.463  0.00  0.00    +0.010 A 
ATOM      6  C   UNL     1      -4.885  -3.084   4.587  0.00  0.00    +0.001 A 
ATOM      7  C   UNL     1      -3.997  -2.110   5.051  0.00  0.00    +0.002 A 
ATOM      8  C   UNL     1      -3.785  -0.914   4.446  0.00  0.00    +0.026 A 
ATOM      9  C   UNL     1      -4.520  -0.641   3.256  0.00  0.00    +0.043 A 
ATOM     10  N   UNL     1      -4.529   0.434   2.491  0.00  0.00    -0.375 N 
ATOM     11  C   UNL     1      -6.928  -1.886   0.611  0.00  0.00    +0.065 C 
ATOM     12  C   UNL     1      -6.266  -1.697  -0.767  0.00  0.00    +0.167 C 
ATOM     13  N   UNL     1      -5.837  -0.310  -0.925  0.00  0.00    -0.279 N 
ATOM     14  C   UNL     1      -6.283   0.478  -1.911  0.00  0.00    +0.234 C 
ATOM     15  O   UNL     1      -5.880   1.621  -1.943  0.00  0.00    -0.274 OA
ATOM     16  C   UNL     1      -7.239   0.049  -2.973  0.00  0.00    +0.203 C 
ATOM     17  N   UNL     1      -7.636  -1.341  -2.827  0.00  0.00    -0.291 N 
ATOM     18  C   UNL     1      -7.208  -2.133  -1.841  0.00  0.00    +0.237 C 
ATOM     19  O   UNL     1      -7.606  -3.278  -1.816  0.00  0.00    -0.274 OA
ATOM     20  H   UNL     1      -3.986   1.231   2.601  0.00  0.00    +0.160 HD
ENDROOT
BRANCH   1  23
ATOM     21  C   UNL     1      -2.465  -2.637   0.320  0.00  0.00    +0.165 A 
ATOM     22  C   UNL     1      -3.634  -1.891   0.330  0.00  0.00    +0.055 A 
ATOM     23  C   UNL     1      -3.598  -0.543   0.028  0.00  0.00    -0.018 A 
ATOM     24  C   UNL     1      -2.398   0.068  -0.284  0.00  0.00    +0.055 A 
ATOM     25  C   UNL     1      -1.224  -0.671  -0.296  0.00  0.00    +0.165 A 
ATOM     26  C   UNL     1      -1.255  -2.026   0.013  0.00  0.00    +0.204 A 
BRANCH  21  28
ATOM     27  C   UNL     1      -3.779  -4.525   0.924  0.00  0.00    +0.277 C 
ATOM     28  O   UNL     1      -2.501  -3.964   0.617  0.00  0.00    -0.491 OA
ENDBRANCH  21  28
BRANCH  26  29
ATOM     29  O   UNL     1      -0.105  -2.753   0.008  0.00  0.00    -0.488 OA
ATOM     30  C   UNL     1       0.267  -3.370  -1.226  0.00  0.00    +0.277 C 
ENDBRANCH  26  29
BRANCH  25  31
ATOM     31  O   UNL     1      -0.044  -0.069  -0.603  0.00  0.00    -0.491 OA
ATOM     32  C   UNL     1      -0.087   1.327  -0.904  0.00  0.00    +0.277 C 
ENDBRANCH  25  31
ENDBRANCH   1  23
BRANCH  17  33
ATOM     33  C   UNL     1      -8.560  -1.905  -3.814  0.00  0.00    +0.113 C 
BRANCH  33  34
ATOM     34  C   UNL     1      -7.763  -2.507  -4.973  0.00  0.00    +0.054 C 
BRANCH  34  35
ATOM     35  C   UNL     1      -8.713  -3.087  -5.989  0.00  0.00    -0.046 A 
ATOM     36  C   UNL     1      -9.119  -4.404  -5.882  0.00  0.00    +0.004 A 
ATOM     37  C   UNL     1      -9.991  -4.936  -6.814  0.00  0.00    +0.000 A 
ATOM     38  C   UNL     1     -10.456  -4.151  -7.852  0.00  0.00    +0.000 A 
ATOM     39  C   UNL     1     -10.050  -2.834  -7.958  0.00  0.00    +0.000 A 
ATOM     40  C   UNL     1      -9.182  -2.300  -7.024  0.00  0.00    +0.004 A 
ENDBRANCH  34  35
ENDBRANCH  33  34
ENDBRANCH  17  33
TORSDOF 7
