REMARK  Name = ZINC36208020
REMARK  12 active torsions:
REMARK  status: ('A' for Active; 'I' for Inactive)
REMARK    1  A    between atoms: C_1  and  C_2
REMARK    2  A    between atoms: C_15  and  C_17
REMARK    3  A    between atoms: C_17  and  N_18
REMARK    4  A    between atoms: N_18  and  C_19
REMARK    5  A    between atoms: N_18  and  C_25
REMARK    6  A    between atoms: C_19  and  C_20
REMARK    7  A    between atoms: C_25  and  C_26
REMARK    8  A    between atoms: C_26  and  C_28
REMARK    9  A    between atoms: C_26  and  O_36
REMARK   10  A    between atoms: C_28  and  O_29
REMARK   11  A    between atoms: O_29  and  C_30
REMARK   12  A    between atoms: C_30  and  C_31
REMARK                            x       y       z     vdW  Elec       q    Type
REMARK                         _______ _______ _______ _____ _____    ______ ____
ROOT
ATOM      1  N   UNL     1       0.672  -8.206   3.612  0.00  0.00    +0.391 N 
ATOM      2  H   UNL     1       0.513  -7.891   4.557  0.00  0.00    -0.080 HD
ENDROOT
BRANCH   1   3
ATOM      3  C   UNL     1      -0.512  -7.914   2.793  0.00  0.00    -0.003 C 
BRANCH   3  17
ATOM      4  C   UNL     1      -8.050 -11.863   7.963  0.00  0.00    +0.008 C 
ATOM      5  C   UNL     1      -7.072 -10.948   7.222  0.00  0.00    -0.009 C 
ATOM      6  C   UNL     1      -7.325 -11.041   5.714  0.00  0.00    +0.008 C 
ATOM      7  C   UNL     1      -6.531  -9.956   4.987  0.00  0.00    +0.037 C 
ATOM      8  C   UNL     1      -5.068 -10.045   5.412  0.00  0.00    -0.023 A 
ATOM      9  C   UNL     1      -4.720 -10.699   6.545  0.00  0.00    -0.004 A 
ATOM     10  S   UNL     1      -2.953 -10.553   6.641  0.00  0.00    -0.073 S 
ATOM     11  C   UNL     1      -2.686  -9.619   5.167  0.00  0.00    +0.116 A 
ATOM     12  C   UNL     1      -3.988  -9.450   4.645  0.00  0.00    +0.075 A 
ATOM     13  C   UNL     1      -4.107  -8.714   3.419  0.00  0.00    +0.260 A 
ATOM     14  O   UNL     1      -5.185  -8.513   2.885  0.00  0.00    -0.267 OA
ATOM     15  N   UNL     1      -2.946  -8.257   2.892  0.00  0.00    -0.312 N 
ATOM     16  H   UNL     1      -2.981  -7.754   2.063  0.00  0.00    +0.170 HD
ATOM     17  C   UNL     1      -1.739  -8.470   3.469  0.00  0.00    +0.094 A 
ATOM     18  N   UNL     1      -1.589  -9.139   4.591  0.00  0.00    -0.229 NA
ATOM     19  C   UNL     1      -5.631 -11.392   7.511  0.00  0.00    +0.046 C 
ENDBRANCH   3  17
ENDBRANCH   1   3
BRANCH   1  20
ATOM     20  C   UNL     1       1.838  -7.509   3.053  0.00  0.00    -0.002 C 
BRANCH  20  21
ATOM     21  C   UNL     1       1.601  -6.021   3.095  0.00  0.00    +0.089 A 
ATOM     22  C   UNL     1       2.005  -5.188   4.070  0.00  0.00    +0.042 A 
ATOM     23  C   UNL     1       1.573  -3.892   3.706  0.00  0.00    +0.041 A 
ATOM     24  C   UNL     1       0.932  -4.011   2.530  0.00  0.00    +0.195 A 
ATOM     25  O   UNL     1       0.957  -5.302   2.161  0.00  0.00    -0.470 OA
ENDBRANCH  20  21
ENDBRANCH   1  20
BRANCH   1  26
ATOM     26  C   UNL     1       0.922  -9.654   3.613  0.00  0.00    -0.044 C 
BRANCH  26  27
ATOM     27  C   UNL     1       2.039  -9.978   4.607  0.00  0.00    +0.124 C 
BRANCH  27  28
ATOM     28  O   UNL     1       3.278  -9.463   4.115  0.00  0.00    -0.391 OA
ATOM     29  H   UNL     1       3.543  -9.826   3.260  0.00  0.00    +0.210 HD
ENDBRANCH  27  28
BRANCH  27  30
ATOM     30  C   UNL     1       2.148 -11.495   4.775  0.00  0.00    +0.189 C 
BRANCH  30  31
ATOM     31  O   UNL     1       3.111 -11.794   5.788  0.00  0.00    -0.370 OA
BRANCH  31  32
ATOM     32  C   UNL     1       3.290 -13.191   6.025  0.00  0.00    +0.234 C 
BRANCH  32  33
ATOM     33  C   UNL     1       4.321 -13.389   7.106  0.00  0.00    +0.130 A 
ATOM     34  C   UNL     1       4.072 -13.471   8.425  0.00  0.00    +0.047 A 
ATOM     35  C   UNL     1       5.318 -13.656   9.067  0.00  0.00    +0.041 A 
ATOM     36  C   UNL     1       6.255 -13.676   8.101  0.00  0.00    +0.195 A 
ATOM     37  O   UNL     1       5.644 -13.520   6.915  0.00  0.00    -0.465 OA
ENDBRANCH  32  33
ENDBRANCH  31  32
ENDBRANCH  30  31
ENDBRANCH  27  30
ENDBRANCH  26  27
ENDBRANCH   1  26
TORSDOF 11
