REMARK  Name = ZINC09029370
REMARK  14 active torsions:
REMARK  status: ('A' for Active; 'I' for Inactive)
REMARK    1  A    between atoms: C_1  and  C_2
REMARK    2  A    between atoms: C_4  and  O_35
REMARK    3  A    between atoms: C_5  and  S_9
REMARK    4  A    between atoms: C_7  and  C_8
REMARK    5  A    between atoms: S_9  and  N_12
REMARK    6  A    between atoms: N_12  and  C_13
REMARK    7  A    between atoms: C_13  and  C_15
REMARK    8  A    between atoms: C_13  and  C_31
REMARK    9  A    between atoms: C_18  and  S_20
REMARK   10  A    between atoms: S_20  and  C_23
REMARK   11  A    between atoms: C_23  and  C_24
REMARK   12  A    between atoms: C_31  and  C_33
REMARK   13  A    between atoms: C_31  and  C_34
REMARK   14  A    between atoms: O_35  and  C_36
REMARK                            x       y       z     vdW  Elec       q    Type
REMARK                         _______ _______ _______ _____ _____    ______ ____
ROOT
ATOM      1  C   UNL     1      -3.077   1.653  -4.074  0.00  0.00    +0.166 C 
ENDROOT
BRANCH   1   2
ATOM      2  C   UNL     1      -2.276   2.213  -2.927  0.00  0.00    +0.238 A 
ATOM      3  N   UNL     1      -1.708   3.385  -2.882  0.00  0.00    -0.109 NA
ATOM      4  N   UNL     1      -1.115   3.529  -1.750  0.00  0.00    -0.090 NA
ATOM      5  C   UNL     1      -1.276   2.451  -1.037  0.00  0.00    +0.361 A 
ATOM      6  O   UNL     1      -2.016   1.595  -1.762  0.00  0.00    -0.406 OA
BRANCH   5   7
ATOM      7  S   UNL     1      -0.646   2.169   0.584  0.00  0.00    +0.053 S 
ATOM      8  O   UNL     1      -0.532   0.756   0.688  0.00  0.00    -0.165 OA
ATOM      9  O   UNL     1       0.506   2.996   0.674  0.00  0.00    -0.165 OA
BRANCH   7  10
ATOM     10  C   UNL     1      -1.940   2.776   1.700  0.00  0.00    +0.215 C 
BRANCH  10  11
ATOM     11  C   UNL     1      -1.503   2.582   3.130  0.00  0.00    +0.009 A 
ATOM     12  C   UNL     1      -1.811   1.409   3.794  0.00  0.00    +0.008 A 
ATOM     13  C   UNL     1      -1.405   1.229   5.103  0.00  0.00    +0.000 A 
ATOM     14  C   UNL     1      -0.700   2.226   5.753  0.00  0.00    +0.003 A 
ATOM     15  C   UNL     1      -0.397   3.401   5.093  0.00  0.00    +0.038 A 
ATOM     16  C   UNL     1      -0.798   3.580   3.779  0.00  0.00    +0.128 A 
ATOM     17  F   UNL     1      -0.502   4.729   3.133  0.00  0.00    -0.205 F 
ENDBRANCH  10  11
ENDBRANCH   7  10
ENDBRANCH   5   7
ENDBRANCH   1   2
BRANCH   1  18
ATOM     18  C   UNL     1      -2.130   1.236  -5.201  0.00  0.00    +0.011 C 
ATOM     19  C   UNL     1      -1.245   0.083  -4.724  0.00  0.00    +0.009 C 
ATOM     20  C   UNL     1      -1.250   2.425  -5.594  0.00  0.00    +0.009 C 
ENDBRANCH   1  18
BRANCH   1  21
ATOM     21  N   UNL     1      -4.004   2.675  -4.567  0.00  0.00    -0.178 NA
ATOM     22  H   UNL     1      -3.737   3.607  -4.577  0.00  0.00    +0.149 HD
BRANCH  21  23
ATOM     23  S   UNL     1      -5.506   2.237  -5.108  0.00  0.00    +0.063 S 
ATOM     24  O   UNL     1      -6.171   3.438  -5.476  0.00  0.00    -0.153 OA
ATOM     25  O   UNL     1      -5.314   1.163  -6.018  0.00  0.00    -0.153 OA
BRANCH  23  30
ATOM     26  C   UNL     1      -8.515  -0.025  -0.388  0.00  0.00    +0.044 C 
ATOM     27  C   UNL     1      -7.764   0.542  -1.565  0.00  0.00    -0.044 A 
ATOM     28  C   UNL     1      -7.390   1.872  -1.569  0.00  0.00    +0.051 A 
ATOM     29  C   UNL     1      -6.699   2.394  -2.652  0.00  0.00    +0.147 A 
ATOM     30  C   UNL     1      -6.385   1.578  -3.730  0.00  0.00    +0.147 A 
ATOM     31  C   UNL     1      -6.766   0.251  -3.724  0.00  0.00    +0.036 A 
ATOM     32  C   UNL     1      -7.450  -0.268  -2.640  0.00  0.00    -0.045 A 
ATOM     33  C   UNL     1      -7.859  -1.719  -2.633  0.00  0.00    +0.044 C 
BRANCH  29  34
ATOM     34  O   UNL     1      -6.329   3.702  -2.658  0.00  0.00    -0.493 OA
ATOM     35  C   UNL     1      -6.686   4.482  -1.515  0.00  0.00    +0.277 C 
ENDBRANCH  29  34
ENDBRANCH  23  30
ENDBRANCH  21  23
ENDBRANCH   1  21
TORSDOF 9
