REMARK  Name = ZINC03244482
REMARK  5 active torsions:
REMARK  status: ('A' for Active; 'I' for Inactive)
REMARK    1  A    between atoms: C_1  and  N_58
REMARK    2  A    between atoms: C_6  and  C_14
REMARK    3  A    between atoms: C_14  and  O_16
REMARK    4  A    between atoms: O_16  and  C_17
REMARK    5  A    between atoms: C_17  and  C_18
REMARK                            x       y       z     vdW  Elec       q    Type
REMARK                         _______ _______ _______ _____ _____    ______ ____
ROOT
ATOM      1  C   UNL     1       6.996   3.837   1.385  0.00  0.00    +0.341 C 
ATOM      2  O   UNL     1       7.258   4.869   0.798  0.00  0.00    -0.245 OA
ENDROOT
BRANCH   1   8
ATOM      3  C   UNL     1       9.392   0.724  -1.928  0.00  0.00    -0.096 C 
ATOM      4  C   UNL     1      10.033  -0.054   0.276  0.00  0.00    -0.073 C 
ATOM      5  C   UNL     1      10.684   0.431   1.570  0.00  0.00    +0.037 C 
ATOM      6  C   UNL     1       9.820   1.486   2.218  0.00  0.00    +0.042 A 
ATOM      7  C   UNL     1       8.825   2.141   1.500  0.00  0.00    -0.028 A 
ATOM      8  C   UNL     1       8.055   3.118   2.124  0.00  0.00    +0.071 A 
ATOM      9  C   UNL     1       8.310   3.400   3.488  0.00  0.00    +0.015 A 
ATOM     10  C   UNL     1       7.574   4.365   4.188  0.00  0.00    +0.011 A 
ATOM     11  C   UNL     1       7.853   4.604   5.500  0.00  0.00    +0.001 A 
ATOM     12  C   UNL     1       8.860   3.899   6.156  0.00  0.00    +0.002 A 
ATOM     13  C   UNL     1       9.594   2.955   5.506  0.00  0.00    +0.028 A 
ATOM     14  C   UNL     1       9.336   2.682   4.150  0.00  0.00    +0.072 A 
ATOM     15  N   UNL     1      10.039   1.764   3.487  0.00  0.00    -0.251 NA
ATOM     16  C   UNL     1       8.555   1.835   0.051  0.00  0.00    -0.041 C 
ATOM     17  N   UNL     1       9.706   1.132  -0.540  0.00  0.00    +0.381 N 
ATOM     18  H   UNL     1      10.515   1.764  -0.552  0.00  0.00    -0.082 HD
ENDBRANCH   1   8
BRANCH   1  19
ATOM     19  O   UNL     1       5.741   3.349   1.361  0.00  0.00    -0.452 OA
BRANCH  19  20
ATOM     20  C   UNL     1       4.752   4.107   0.615  0.00  0.00    +0.328 C 
BRANCH  20  21
ATOM     21  C   UNL     1       3.417   3.414   0.701  0.00  0.00    +0.262 C 
ATOM     22  O   UNL     1       3.354   2.265   1.087  0.00  0.00    -0.271 OA
ATOM     23  N   UNL     1       2.293   4.069   0.349  0.00  0.00    -0.235 N 
ATOM     24  C   UNL     1       1.075   3.378   0.346  0.00  0.00    +0.055 A 
ATOM     25  C   UNL     1       1.021   2.056  -0.067  0.00  0.00    +0.025 A 
ATOM     26  C   UNL     1      -0.186   1.381  -0.069  0.00  0.00    +0.002 A 
ATOM     27  C   UNL     1      -1.345   2.017   0.334  0.00  0.00    +0.001 A 
ATOM     28  C   UNL     1      -1.303   3.336   0.755  0.00  0.00    +0.017 A 
ATOM     29  C   UNL     1      -0.098   4.015   0.759  0.00  0.00    +0.035 A 
ATOM     30  S   UNL     1      -0.013   5.698   1.285  0.00  0.00    -0.086 S 
ATOM     31  C   UNL     1       1.365   6.311   0.366  0.00  0.00    +0.035 A 
ATOM     32  C   UNL     1       2.376   5.422  -0.005  0.00  0.00    +0.055 A 
ATOM     33  C   UNL     1       3.463   5.891  -0.726  0.00  0.00    +0.025 A 
ATOM     34  C   UNL     1       3.538   7.228  -1.073  0.00  0.00    +0.002 A 
ATOM     35  C   UNL     1       2.534   8.104  -0.704  0.00  0.00    +0.001 A 
ATOM     36  C   UNL     1       1.444   7.647   0.017  0.00  0.00    +0.017 A 
ENDBRANCH  20  21
ENDBRANCH  19  20
ENDBRANCH   1  19
TORSDOF 4
