REMARK  Name = ZINC36556728
REMARK  15 active torsions:
REMARK  status: ('A' for Active; 'I' for Inactive)
REMARK    1  A    between atoms: C_1  and  C_2
REMARK    2  A    between atoms: C_2  and  O_3
REMARK    3  A    between atoms: O_3  and  C_4
REMARK    4  A    between atoms: C_4  and  C_6
REMARK    5  A    between atoms: C_8  and  C_34
REMARK    6  A    between atoms: C_10  and  C_29
REMARK    7  A    between atoms: C_12  and  C_27
REMARK    8  A    between atoms: C_12  and  O_28
REMARK    9  A    between atoms: N_15  and  N_16
REMARK   10  A    between atoms: N_16  and  S_17
REMARK   11  A    between atoms: S_17  and  C_20
REMARK   12  A    between atoms: C_23  and  C_26
REMARK   13  A    between atoms: C_29  and  O_31
REMARK   14  A    between atoms: O_31  and  C_32
REMARK   15  A    between atoms: C_32  and  C_33
REMARK                            x       y       z     vdW  Elec       q    Type
REMARK                         _______ _______ _______ _____ _____    ______ ____
ROOT
ATOM      1  C   UNL     1       1.513  -2.382   2.498  0.00  0.00    +0.152 C 
ATOM      2  C   UNL     1       1.473  -3.912   2.411  0.00  0.00    +0.055 C 
ATOM      3  C   UNL     1       2.059  -4.508   3.692  0.00  0.00    +0.138 C 
ATOM      4  C   UNL     1       1.190  -4.121   4.889  0.00  0.00    +0.082 C 
ATOM      5  C   UNL     1       1.219  -2.600   5.069  0.00  0.00    +0.088 C 
ATOM      6  C   UNL     1       0.810  -1.950   3.765  0.00  0.00    +0.055 C 
ATOM      7  N   UNL     1      -0.110  -1.060   3.735  0.00  0.00    -0.174 NA
ATOM      8  C   UNL     1      -0.250  -4.578   4.644  0.00  0.00    +0.042 C 
ENDROOT
BRANCH   2   9
ATOM      9  C   UNL     1       2.284  -4.369   1.226  0.00  0.00    -0.042 A 
ATOM     10  C   UNL     1       3.632  -4.071   1.154  0.00  0.00    +0.004 A 
ATOM     11  C   UNL     1       4.375  -4.491   0.067  0.00  0.00    +0.000 A 
ATOM     12  C   UNL     1       3.771  -5.210  -0.947  0.00  0.00    +0.000 A 
ATOM     13  C   UNL     1       2.424  -5.509  -0.875  0.00  0.00    +0.000 A 
ATOM     14  C   UNL     1       1.681  -5.093   0.214  0.00  0.00    +0.004 A 
ENDBRANCH   2   9
BRANCH   1  15
ATOM     15  C   UNL     1       0.813  -1.789   1.303  0.00  0.00    +0.316 C 
ATOM     16  O   UNL     1       0.335  -2.513   0.461  0.00  0.00    -0.250 OA
BRANCH  15  17
ATOM     17  O   UNL     1       0.719  -0.456   1.173  0.00  0.00    -0.464 OA
BRANCH  17  19
ATOM     18  C   UNL     1       0.035   1.567   0.041  0.00  0.00    +0.048 C 
ATOM     19  C   UNL     1       0.042   0.037   0.015  0.00  0.00    +0.229 C 
ENDBRANCH  17  19
ENDBRANCH  15  17
ENDBRANCH   1  15
BRANCH   7  20
ATOM     20  N   UNL     1      -0.815  -0.741   4.903  0.00  0.00    -0.137 N 
ATOM     21  H   UNL     1      -0.553  -1.134   5.750  0.00  0.00    +0.197 HD
BRANCH  20  22
ATOM     22  S   UNL     1      -2.097   0.305   4.836  0.00  0.00    +0.086 S 
ATOM     23  O   UNL     1      -2.684   0.311   6.130  0.00  0.00    -0.149 OA
ATOM     24  O   UNL     1      -1.623   1.489   4.209  0.00  0.00    -0.149 OA
BRANCH  22  25
ATOM     25  C   UNL     1      -3.289  -0.399   3.746  0.00  0.00    +0.110 A 
ATOM     26  C   UNL     1      -3.243  -0.114   2.394  0.00  0.00    +0.029 A 
ATOM     27  C   UNL     1      -4.178  -0.667   1.540  0.00  0.00    +0.005 A 
ATOM     28  C   UNL     1      -5.159  -1.505   2.036  0.00  0.00    -0.050 A 
ATOM     29  C   UNL     1      -5.204  -1.791   3.388  0.00  0.00    +0.005 A 
ATOM     30  C   UNL     1      -4.266  -1.242   4.242  0.00  0.00    +0.029 A 
ATOM     31  C   UNL     1      -6.179  -2.107   1.104  0.00  0.00    +0.044 C 
ENDBRANCH  22  25
ENDBRANCH  20  22
ENDBRANCH   7  20
BRANCH   4  32
ATOM     32  O   UNL     1       1.695  -4.751   6.069  0.00  0.00    -0.388 OA
ATOM     33  H   UNL     1       1.191  -4.549   6.869  0.00  0.00    +0.210 HD
ENDBRANCH   4  32
BRANCH   3  34
ATOM     34  C   UNL     1       2.102  -6.010   3.571  0.00  0.00    +0.314 C 
ATOM     35  O   UNL     1       1.705  -6.546   2.563  0.00  0.00    -0.250 OA
BRANCH  34  36
ATOM     36  O   UNL     1       2.581  -6.752   4.581  0.00  0.00    -0.465 OA
BRANCH  36  37
ATOM     37  C   UNL     1       2.592  -8.169   4.398  0.00  0.00    +0.229 C 
ATOM     38  C   UNL     1       3.169  -8.840   5.646  0.00  0.00    +0.048 C 
ENDBRANCH  36  37
ENDBRANCH  34  36
ENDBRANCH   3  34
TORSDOF 11
