REMARK  Name = ZINC08450483
REMARK  9 active torsions:
REMARK  status: ('A' for Active; 'I' for Inactive)
REMARK    1  A    between atoms: C_1  and  N_2
REMARK    2  A    between atoms: C_6  and  C_7
REMARK    3  A    between atoms: N_9  and  C_16
REMARK    4  A    between atoms: C_16  and  C_17
REMARK    5  A    between atoms: N_19  and  C_20
REMARK    6  A    between atoms: C_20  and  C_21
REMARK    7  A    between atoms: N_28  and  C_29
REMARK    8  A    between atoms: C_32  and  O_35
REMARK    9  A    between atoms: O_35  and  C_36
REMARK                            x       y       z     vdW  Elec       q    Type
REMARK                         _______ _______ _______ _____ _____    ______ ____
ROOT
ATOM      1  C   UNL     1      -3.310  -1.294   0.784  0.00  0.00    +0.001 A 
ATOM      2  C   UNL     1      -2.149  -0.664   1.136  0.00  0.00    +0.095 A 
ATOM      3  N   UNL     1      -1.438  -0.359   0.020  0.00  0.00    -0.337 N 
ATOM      4  C   UNL     1      -2.107  -0.786  -1.109  0.00  0.00    +0.050 A 
ATOM      5  C   UNL     1      -3.304  -1.389  -0.688  0.00  0.00    +0.007 A 
ATOM      6  C   UNL     1      -4.187  -1.916  -1.626  0.00  0.00    +0.010 A 
ATOM      7  C   UNL     1      -3.881  -1.844  -2.967  0.00  0.00    +0.001 A 
ATOM      8  C   UNL     1      -2.700  -1.249  -3.385  0.00  0.00    +0.002 A 
ATOM      9  C   UNL     1      -1.816  -0.723  -2.467  0.00  0.00    +0.026 A 
ENDROOT
BRANCH   1  15
ATOM     10  C   UNL     1      -5.245  -3.062   6.363  0.00  0.00    +0.140 C 
ATOM     11  N   UNL     1      -4.426  -2.518   5.277  0.00  0.00    -0.249 N 
ATOM     12  C   UNL     1      -4.909  -2.471   4.047  0.00  0.00    +0.259 C 
ATOM     13  O   UNL     1      -6.032  -2.875   3.801  0.00  0.00    -0.269 OA
ATOM     14  C   UNL     1      -4.083  -1.935   3.015  0.00  0.00    +0.078 C 
ATOM     15  C   UNL     1      -4.351  -1.782   1.690  0.00  0.00    +0.030 C 
ATOM     16  S   UNL     1      -2.600  -1.525   3.925  0.00  0.00    -0.049 S 
ATOM     17  C   UNL     1      -3.152  -2.056   5.539  0.00  0.00    +0.168 C 
ATOM     18  N   UNL     1      -2.506  -2.021   6.683  0.00  0.00    -0.226 NA
BRANCH  18  19
ATOM     19  C   UNL     1      -1.233  -1.518   6.736  0.00  0.00    +0.067 A 
ATOM     20  C   UNL     1      -0.293  -1.890   5.773  0.00  0.00    +0.031 A 
ATOM     21  C   UNL     1       0.987  -1.377   5.828  0.00  0.00    +0.048 A 
ATOM     22  C   UNL     1       1.343  -0.501   6.844  0.00  0.00    +0.120 A 
ATOM     23  C   UNL     1       0.412  -0.133   7.807  0.00  0.00    +0.048 A 
ATOM     24  C   UNL     1      -0.871  -0.637   7.757  0.00  0.00    +0.031 A 
BRANCH  22  25
ATOM     25  O   UNL     1       2.607  -0.003   6.898  0.00  0.00    -0.495 OA
ATOM     26  C   UNL     1       3.513  -0.423   5.876  0.00  0.00    +0.277 C 
ENDBRANCH  22  25
ENDBRANCH  18  19
ENDBRANCH   1  15
BRANCH   3  27
ATOM     27  C   UNL     1      -0.141   0.323   0.015  0.00  0.00    +0.217 C 
BRANCH  27  28
ATOM     28  C   UNL     1      -0.351   1.801  -0.194  0.00  0.00    +0.233 C 
ATOM     29  O   UNL     1      -1.473   2.240  -0.331  0.00  0.00    -0.274 OA
ATOM     30  N   UNL     1       0.708   2.633  -0.234  0.00  0.00    -0.307 N 
ATOM     31  H   UNL     1       1.606   2.281  -0.129  0.00  0.00    +0.149 HD
BRANCH  30  32
ATOM     32  C   UNL     1       0.504   4.069  -0.438  0.00  0.00    +0.178 C 
BRANCH  32  33
ATOM     33  C   UNL     1       1.837   4.771  -0.443  0.00  0.00    +0.122 A 
ATOM     34  C   UNL     1       2.605   4.994  -1.524  0.00  0.00    +0.046 A 
ATOM     35  C   UNL     1       3.759   5.677  -1.075  0.00  0.00    +0.041 A 
ATOM     36  C   UNL     1       3.627   5.829   0.255  0.00  0.00    +0.195 A 
ATOM     37  O   UNL     1       2.459   5.284   0.632  0.00  0.00    -0.466 OA
ENDBRANCH  32  33
ENDBRANCH  30  32
ENDBRANCH  27  28
ENDBRANCH   3  27
TORSDOF 7
