REMARK  Name = ZINC16792266
REMARK  9 active torsions:
REMARK  status: ('A' for Active; 'I' for Inactive)
REMARK    1  A    between atoms: C_1  and  C_2
REMARK    2  A    between atoms: C_2  and  C_4
REMARK    3  A    between atoms: C_2  and  S_15
REMARK    4  A    between atoms: N_6  and  C_7
REMARK    5  A    between atoms: S_15  and  C_16
REMARK    6  A    between atoms: C_19  and  C_22
REMARK    7  A    between atoms: N_20  and  N_21
REMARK    8  A    between atoms: C_25  and  O_28
REMARK    9  A    between atoms: O_28  and  C_29
REMARK                            x       y       z     vdW  Elec       q    Type
REMARK                         _______ _______ _______ _____ _____    ______ ____
ROOT
ATOM      1  C   UNL     1      -3.818  -5.033  -1.149  0.00  0.00    +0.209 A 
ATOM      2  N   UNL     1      -4.885  -4.447  -0.655  0.00  0.00    -0.121 NA
ATOM      3  N   UNL     1      -5.920  -5.186  -0.838  0.00  0.00    -0.127 NA
ATOM      4  C   UNL     1      -5.577  -6.294  -1.453  0.00  0.00    +0.182 A 
ATOM      5  N   UNL     1      -4.220  -6.230  -1.671  0.00  0.00    -0.224 N 
ENDROOT
BRANCH   4   6
ATOM      6  C   UNL     1      -6.477  -7.401  -1.838  0.00  0.00    +0.021 A 
ATOM      7  C   UNL     1      -7.858  -7.199  -1.872  0.00  0.00    +0.015 A 
ATOM      8  C   UNL     1      -8.695  -8.233  -2.236  0.00  0.00    +0.046 A 
ATOM      9  C   UNL     1      -8.166  -9.476  -2.558  0.00  0.00    +0.127 A 
ATOM     10  C   UNL     1      -6.793  -9.682  -2.520  0.00  0.00    +0.046 A 
ATOM     11  C   UNL     1      -5.950  -8.652  -2.162  0.00  0.00    +0.015 A 
BRANCH   9  12
ATOM     12  O   UNL     1      -8.994 -10.494  -2.911  0.00  0.00    -0.434 OA
BRANCH  12  13
ATOM     13  C   UNL     1     -10.395 -10.213  -2.929  0.00  0.00    +0.541 C 
ATOM     14  F   UNL     1     -10.809  -9.818  -1.653  0.00  0.00    -0.166 F 
ATOM     15  F   UNL     1     -10.653  -9.185  -3.842  0.00  0.00    -0.166 F 
ENDBRANCH  12  13
ENDBRANCH   9  12
ENDBRANCH   4   6
BRANCH   5  16
ATOM     16  N   UNL     1      -3.437  -7.168  -2.282  0.00  0.00    -0.295 N 
ATOM     17  H   UNL     1      -3.152  -7.883  -1.629  0.00  0.00    +0.163 HD
ATOM     18  H   UNL     1      -3.910  -7.572  -3.077  0.00  0.00    +0.163 HD
ENDBRANCH   5  16
BRANCH   1  19
ATOM     19  S   UNL     1      -2.175  -4.398  -1.134  0.00  0.00    -0.072 S 
BRANCH  19  21
ATOM     20  C   UNL     1      -2.917  -3.077   1.139  0.00  0.00    +0.029 C 
ATOM     21  C   UNL     1      -2.456  -2.818  -0.296  0.00  0.00    +0.137 C 
BRANCH  21  22
ATOM     22  C   UNL     1      -1.175  -2.025  -0.277  0.00  0.00    +0.230 C 
ATOM     23  O   UNL     1      -0.111  -2.586  -0.435  0.00  0.00    -0.274 OA
ATOM     24  N   UNL     1      -1.211  -0.692  -0.083  0.00  0.00    -0.284 N 
ATOM     25  H   UNL     1      -2.052  -0.253   0.118  0.00  0.00    +0.155 HD
BRANCH  24  26
ATOM     26  C   UNL     1      -0.033   0.061  -0.173  0.00  0.00    +0.036 A 
ATOM     27  C   UNL     1       0.139   1.180   0.631  0.00  0.00    +0.026 A 
ATOM     28  C   UNL     1       1.301   1.922   0.542  0.00  0.00    +0.043 A 
ATOM     29  C   UNL     1       2.295   1.550  -0.347  0.00  0.00    +0.159 A 
ATOM     30  C   UNL     1       2.126   0.433  -1.151  0.00  0.00    +0.160 A 
ATOM     31  C   UNL     1       0.963  -0.312  -1.064  0.00  0.00    +0.064 A 
ATOM     32  F   UNL     1       3.097   0.071  -2.018  0.00  0.00    -0.202 F 
ATOM     33  F   UNL     1       3.430   2.277  -0.432  0.00  0.00    -0.202 F 
ENDBRANCH  24  26
ENDBRANCH  21  22
ENDBRANCH  19  21
ENDBRANCH   1  19
TORSDOF 8
