REMARK  Name = ZINC52820986
REMARK  5 active torsions:
REMARK  status: ('A' for Active; 'I' for Inactive)
REMARK    1  A    between atoms: C_4  and  C_7
REMARK    2  A    between atoms: C_10  and  C_12
REMARK    3  A    between atoms: C_12  and  N_13
REMARK    4  A    between atoms: C_14  and  C_16
REMARK    5  A    between atoms: C_16  and  N_17
REMARK                            x       y       z     vdW  Elec       q    Type
REMARK                         _______ _______ _______ _____ _____    ______ ____
ROOT
ATOM      1  N   UNL     1       7.851   0.056   1.318  0.00  0.00    -0.308 N 
ATOM      2  C   UNL     1       9.080   0.555   1.560  0.00  0.00    +0.233 C 
ATOM      3  O   UNL     1       9.802   0.863   0.635  0.00  0.00    -0.274 OA
ATOM      4  H   UNL     1       7.274  -0.190   2.058  0.00  0.00    +0.149 HD
ENDROOT
BRANCH   1   5
ATOM      5  C   UNL     1       7.389  -0.116  -0.061  0.00  0.00    +0.167 C 
BRANCH   5   9
ATOM      6  C   UNL     1       3.699  -0.689  -0.037  0.00  0.00    +0.078 A 
ATOM      7  C   UNL     1       3.762  -2.056  -0.051  0.00  0.00    +0.075 A 
ATOM      8  S   UNL     1       5.530  -2.304  -0.067  0.00  0.00    -0.078 S 
ATOM      9  C   UNL     1       5.994  -0.686  -0.056  0.00  0.00    +0.096 A 
ATOM     10  N   UNL     1       4.856  -0.043  -0.046  0.00  0.00    -0.242 NA
BRANCH   6  14
ATOM     11  C   UNL     1      -0.017   1.379   0.010  0.00  0.00    +0.000 A 
ATOM     12  C   UNL     1       1.169   2.092   0.002  0.00  0.00    +0.001 A 
ATOM     13  C   UNL     1       2.377   1.426  -0.013  0.00  0.00    +0.010 A 
ATOM     14  C   UNL     1       2.402   0.033  -0.021  0.00  0.00    +0.001 A 
ATOM     15  C   UNL     1       1.205  -0.680  -0.013  0.00  0.00    +0.010 A 
ATOM     16  C   UNL     1       0.002  -0.004   0.002  0.00  0.00    +0.001 A 
ENDBRANCH   6  14
ENDBRANCH   5   9
ENDBRANCH   1   5
BRANCH   2  17
ATOM     17  C   UNL     1       9.555   0.732   2.979  0.00  0.00    +0.220 C 
BRANCH  17  18
ATOM     18  N   UNL     1      10.911   1.287   2.974  0.00  0.00    -0.305 N 
ATOM     19  C   UNL     1      11.979   0.449   2.952  0.00  0.00    +0.105 A 
ATOM     20  C   UNL     1      13.242   0.938   2.946  0.00  0.00    +0.034 A 
ATOM     21  C   UNL     1      13.455   2.324   2.963  0.00  0.00    +0.022 A 
ATOM     22  C   UNL     1      12.381   3.164   2.985  0.00  0.00    +0.071 A 
ATOM     23  C   UNL     1      11.084   2.622   2.985  0.00  0.00    +0.252 A 
ATOM     24  O   UNL     1      10.114   3.363   3.000  0.00  0.00    -0.268 OA
ATOM     25 BR   UNL     1      14.716  -0.246   2.917  0.00  0.00    -0.049 Br
ENDBRANCH  17  18
ENDBRANCH   2  17
TORSDOF 5
