REMARK  Name = ZINC25609293
REMARK  8 active torsions:
REMARK  status: ('A' for Active; 'I' for Inactive)
REMARK    1  A    between atoms: C_1  and  N_2
REMARK    2  A    between atoms: N_2  and  C_3
REMARK    3  A    between atoms: N_2  and  C_24
REMARK    4  A    between atoms: C_3  and  C_4
REMARK    5  A    between atoms: C_9  and  N_10
REMARK    6  A    between atoms: C_11  and  C_13
REMARK    7  A    between atoms: C_13  and  C_14
REMARK    8  A    between atoms: C_17  and  C_19
REMARK                            x       y       z     vdW  Elec       q    Type
REMARK                         _______ _______ _______ _____ _____    ______ ____
ROOT
ATOM      1  C   UNL     1      -0.674   1.308  -4.827  0.00  0.00    -0.043 A 
ATOM      2  C   UNL     1      -1.431   1.709  -5.911  0.00  0.00    +0.003 A 
ATOM      3  C   UNL     1      -2.555   2.491  -5.720  0.00  0.00    +0.000 A 
ATOM      4  C   UNL     1      -2.929   2.869  -4.443  0.00  0.00    +0.002 A 
ATOM      5  C   UNL     1      -2.179   2.467  -3.355  0.00  0.00    +0.023 A 
ATOM      6  C   UNL     1      -1.050   1.681  -3.544  0.00  0.00    +0.035 A 
ENDROOT
BRANCH   6   7
ATOM      7  N   UNL     1      -0.288   1.272  -2.443  0.00  0.00    -0.285 N 
ATOM      8  C   UNL     1      -0.309   1.992  -1.304  0.00  0.00    +0.223 C 
ATOM      9  O   UNL     1      -0.907   3.047  -1.264  0.00  0.00    -0.275 OA
ATOM     10  H   UNL     1       0.327   0.363  -2.508  0.00  0.00    +0.155 HD
BRANCH   8  11
ATOM     11  C   UNL     1       0.410   1.487  -0.080  0.00  0.00    +0.152 C 
BRANCH  11  12
ATOM     12  C   UNL     1       0.233   2.470   1.048  0.00  0.00    +0.058 A 
ATOM     13  C   UNL     1      -0.276   2.056   2.239  0.00  0.00    +0.071 A 
ATOM     14  S   UNL     1      -0.258   3.589   3.159  0.00  0.00    -0.072 S 
ATOM     15  C   UNL     1       0.424   4.614   1.862  0.00  0.00    +0.144 A 
ATOM     16  N   UNL     1       0.574   3.727   0.885  0.00  0.00    -0.240 NA
BRANCH  15  17
ATOM     17  C   UNL     1       0.739   6.051   1.876  0.00  0.00    +0.160 A 
ATOM     18  C   UNL     1       0.554   6.900   2.925  0.00  0.00    +0.052 A 
ATOM     19  C   UNL     1       0.991   8.169   2.500  0.00  0.00    +0.042 A 
ATOM     20  C   UNL     1       1.408   8.038   1.224  0.00  0.00    +0.196 A 
ATOM     21  O   UNL     1       1.255   6.757   0.851  0.00  0.00    -0.461 OA
ENDBRANCH  15  17
ENDBRANCH  11  12
ENDBRANCH   8  11
ENDBRANCH   6   7
BRANCH   1  22
ATOM     22  C   UNL     1       0.555   0.461  -5.037  0.00  0.00    -0.041 C 
BRANCH  22  24
ATOM     23  C   UNL     1      -0.725  -1.469  -5.745  0.00  0.00    -0.095 C 
ATOM     24  N   UNL     1       0.233  -0.946  -4.761  0.00  0.00    +0.382 N 
ATOM     25  H   UNL     1      -0.240  -0.997  -3.769  0.00  0.00    -0.081 HD
BRANCH  24  26
ATOM     26  C   UNL     1       1.450  -1.767  -4.723  0.00  0.00    -0.069 C 
ATOM     27  C   UNL     1       2.098  -1.783  -6.109  0.00  0.00    -0.015 C 
ATOM     28  C   UNL     1       3.366  -2.639  -6.070  0.00  0.00    -0.002 C 
ATOM     29  C   UNL     1       3.004  -4.067  -5.659  0.00  0.00    -0.000 C 
ATOM     30  C   UNL     1       2.357  -4.051  -4.273  0.00  0.00    -0.002 C 
ATOM     31  C   UNL     1       1.089  -3.196  -4.312  0.00  0.00    -0.015 C 
ENDBRANCH  24  26
ENDBRANCH  22  24
ENDBRANCH   1  22
TORSDOF 7
