REMARK  Name = ZINC22312359
REMARK  9 active torsions:
REMARK  status: ('A' for Active; 'I' for Inactive)
REMARK    1  A    between atoms: C_1  and  C_2
REMARK    2  A    between atoms: C_2  and  C_3
REMARK    3  A    between atoms: C_3  and  C_25
REMARK    4  A    between atoms: N_6  and  C_10
REMARK    5  A    between atoms: C_10  and  C_11
REMARK    6  A    between atoms: N_13  and  C_14
REMARK    7  A    between atoms: C_19  and  O_20
REMARK    8  A    between atoms: O_20  and  C_21
REMARK    9  A    between atoms: C_21  and  C_22
REMARK                            x       y       z     vdW  Elec       q    Type
REMARK                         _______ _______ _______ _____ _____    ______ ____
ROOT
ATOM      1  C   UNL     1      -0.713   3.389   0.020  0.00  0.00    +0.138 C 
ATOM      2  C   UNL     1       0.801   3.309   0.002  0.00  0.00    +0.251 C 
ATOM      3  O   UNL     1       1.583   4.235  -0.008  0.00  0.00    -0.272 OA
ATOM      4  N   UNL     1       1.096   1.994   0.001  0.00  0.00    -0.215 N 
ATOM      5  C   UNL     1      -0.009   1.240   0.015  0.00  0.00    +0.310 C 
ATOM      6  O   UNL     1       0.003   0.025   0.017  0.00  0.00    -0.252 OA
ATOM      7  N   UNL     1      -1.134   1.977   0.021  0.00  0.00    -0.281 N 
ATOM      8  H   UNL     1      -2.204   1.722   0.027  0.00  0.00    +0.152 HD
ENDROOT
BRANCH   1   9
ATOM      9  C   UNL     1      -1.192   4.095   1.262  0.00  0.00    -0.015 A 
ATOM     10  C   UNL     1      -1.372   5.465   1.252  0.00  0.00    +0.006 A 
ATOM     11  C   UNL     1      -1.816   6.112   2.391  0.00  0.00    +0.000 A 
ATOM     12  C   UNL     1      -2.071   5.390   3.541  0.00  0.00    +0.000 A 
ATOM     13  C   UNL     1      -1.886   4.020   3.553  0.00  0.00    +0.000 A 
ATOM     14  C   UNL     1      -1.447   3.372   2.413  0.00  0.00    +0.006 A 
ENDBRANCH   1   9
BRANCH   1  16
ATOM     15  C   UNL     1      -0.881   3.267  -2.470  0.00  0.00    +0.007 C 
ATOM     16  C   UNL     1      -1.229   4.098  -1.234  0.00  0.00    +0.037 C 
ENDBRANCH   1  16
BRANCH   4  17
ATOM     17  C   UNL     1       2.459   1.457  -0.014  0.00  0.00    +0.214 C 
BRANCH  17  18
ATOM     18  C   UNL     1       2.910   1.271  -1.439  0.00  0.00    +0.235 C 
ATOM     19  O   UNL     1       2.167   1.558  -2.353  0.00  0.00    -0.274 OA
ATOM     20  N   UNL     1       4.140   0.784  -1.699  0.00  0.00    -0.281 N 
ATOM     21  H   UNL     1       4.841   0.593  -0.873  0.00  0.00    +0.155 HD
BRANCH  20  22
ATOM     22  C   UNL     1       4.526   0.523  -3.020  0.00  0.00    +0.078 A 
ATOM     23  C   UNL     1       4.074   1.335  -4.050  0.00  0.00    +0.047 A 
ATOM     24  C   UNL     1       4.460   1.079  -5.353  0.00  0.00    +0.044 A 
ATOM     25  C   UNL     1       5.289   0.007  -5.634  0.00  0.00    +0.039 A 
ATOM     26  C   UNL     1       5.739  -0.810  -4.612  0.00  0.00    +0.063 A 
ATOM     27  C   UNL     1       5.360  -0.556  -3.304  0.00  0.00    +0.156 A 
ATOM     28 BR   UNL     1       6.871  -2.274  -5.002  0.00  0.00    -0.046 Br
ATOM     29 CL   UNL     1       3.899   2.100  -6.640  0.00  0.00    -0.083 Cl
BRANCH  27  30
ATOM     30  O   UNL     1       5.802  -1.358  -2.298  0.00  0.00    -0.489 OA
BRANCH  30  31
ATOM     31  C   UNL     1       4.993  -2.490  -1.968  0.00  0.00    +0.226 C 
ATOM     32  C   UNL     1       5.646  -3.267  -0.824  0.00  0.00    +0.048 C 
ENDBRANCH  30  31
ENDBRANCH  27  30
ENDBRANCH  20  22
ENDBRANCH  17  18
ENDBRANCH   4  17
TORSDOF 7
