REMARK  Name = ZINC06407527
REMARK  6 active torsions:
REMARK  status: ('A' for Active; 'I' for Inactive)
REMARK    1  A    between atoms: C_1  and  C_2
REMARK    2  A    between atoms: C_5  and  N_27
REMARK    3  A    between atoms: C_7  and  N_8
REMARK    4  A    between atoms: C_9  and  C_11
REMARK    5  A    between atoms: C_11  and  S_12
REMARK    6  A    between atoms: S_12  and  C_13
REMARK                            x       y       z     vdW  Elec       q    Type
REMARK                         _______ _______ _______ _____ _____    ______ ____
ROOT
ATOM      1  S   UNL     1      -0.260  -1.133   6.252  0.00  0.00    -0.078 S 
ENDROOT
BRANCH   1   2
ATOM      2  C   UNL     1      -0.385  -0.118   7.687  0.00  0.00    +0.171 A 
ATOM      3  N   UNL     1      -0.398   1.191   7.550  0.00  0.00    -0.185 NA
ATOM      4  C   UNL     1      -0.490   2.019   8.594  0.00  0.00    +0.282 A 
ATOM      5  O   UNL     1      -0.499   3.228   8.424  0.00  0.00    -0.265 OA
ATOM      6  C   UNL     1      -0.583   1.455   9.962  0.00  0.00    +0.075 A 
ATOM      7  C   UNL     1      -0.689   2.163  11.238  0.00  0.00    -0.023 A 
ATOM      8  C   UNL     1      -0.760   1.406  12.353  0.00  0.00    -0.004 A 
ATOM      9  S   UNL     1      -0.690  -0.267  11.773  0.00  0.00    -0.075 S 
ATOM     10  C   UNL     1      -0.565   0.061  10.035  0.00  0.00    +0.092 A 
ATOM     11  N   UNL     1      -0.473  -0.706   8.914  0.00  0.00    -0.328 N 
ATOM     12  C   UNL     1      -0.872   1.883  13.768  0.00  0.00    +0.043 C 
ATOM     13  C   UNL     1      -0.521   3.378  13.805  0.00  0.00    +0.005 C 
ATOM     14  C   UNL     1      -1.289   4.089  12.687  0.00  0.00    +0.005 C 
ATOM     15  C   UNL     1      -0.721   3.686  11.327  0.00  0.00    +0.037 C 
ATOM     16  H   UNL     1      -0.467  -1.673   8.989  0.00  0.00    +0.168 HD
ENDBRANCH   1   2
BRANCH   1  17
ATOM     17  C   UNL     1      -0.169   0.052   4.882  0.00  0.00    +0.173 C 
BRANCH  17  19
ATOM     18  N   UNL     1       0.025  -0.015   2.417  0.00  0.00    -0.285 N 
ATOM     19  C   UNL     1      -0.057  -0.694   3.578  0.00  0.00    +0.227 C 
ATOM     20  O   UNL     1      -0.040  -1.907   3.573  0.00  0.00    -0.275 OA
ATOM     21  H   UNL     1       0.077   0.954   2.425  0.00  0.00    +0.155 HD
BRANCH  18  28
ATOM     22  C   UNL     1      -1.265   1.183   0.181  0.00  0.00    +0.045 C 
ATOM     23  C   UNL     1      -0.584  -0.158   0.084  0.00  0.00    -0.029 A 
ATOM     24  C   UNL     1      -0.569  -0.841  -1.117  0.00  0.00    +0.007 A 
ATOM     25  C   UNL     1       0.056  -2.071  -1.206  0.00  0.00    +0.033 A 
ATOM     26  C   UNL     1       0.667  -2.622  -0.095  0.00  0.00    +0.128 A 
ATOM     27  C   UNL     1       0.656  -1.944   1.109  0.00  0.00    +0.056 A 
ATOM     28  C   UNL     1       0.034  -0.706   1.201  0.00  0.00    +0.038 A 
BRANCH  26  29
ATOM     29  N   UNL     1       1.334  -3.940  -0.195  0.00  0.00    +0.056 N 
ATOM     30  O   UNL     1       1.344  -4.534  -1.248  0.00  0.00    -0.126 OA
ATOM     31  O   UNL     1       1.868  -4.422   0.776  0.00  0.00    -0.126 OA
ENDBRANCH  26  29
ENDBRANCH  18  28
ENDBRANCH  17  19
ENDBRANCH   1  17
TORSDOF 5
