REMARK  Name = ZINC12910662
REMARK  9 active torsions:
REMARK  status: ('A' for Active; 'I' for Inactive)
REMARK    1  A    between atoms: C_1  and  C_2
REMARK    2  A    between atoms: C_2  and  C_3
REMARK    3  A    between atoms: C_12  and  C_13
REMARK    4  A    between atoms: C_12  and  N_52
REMARK    5  A    between atoms: N_15  and  C_16
REMARK    6  A    between atoms: C_18  and  S_24
REMARK    7  A    between atoms: C_20  and  C_23
REMARK    8  A    between atoms: C_21  and  C_22
REMARK    9  A    between atoms: S_24  and  N_27
REMARK                            x       y       z     vdW  Elec       q    Type
REMARK                         _______ _______ _______ _____ _____    ______ ____
ROOT
ATOM      1  C   UNL     1      -4.810   2.184   1.724  0.00  0.00    +0.201 C 
ATOM      2  O   UNL     1      -4.530   1.707   0.644  0.00  0.00    -0.278 OA
ATOM      3  N   UNL     1      -3.930   2.107   2.743  0.00  0.00    -0.287 N 
ATOM      4  H   UNL     1      -4.180   2.425   3.624  0.00  0.00    +0.155 HD
ENDROOT
BRANCH   3   5
ATOM      5  C   UNL     1      -2.657   1.568   2.528  0.00  0.00    +0.038 A 
ATOM      6  C   UNL     1      -2.138   1.500   1.242  0.00  0.00    +0.052 A 
ATOM      7  C   UNL     1      -0.883   0.962   1.032  0.00  0.00    +0.107 A 
ATOM      8  C   UNL     1      -0.139   0.503   2.104  0.00  0.00    +0.032 A 
ATOM      9  C   UNL     1      -0.650   0.574   3.386  0.00  0.00    -0.044 A 
ATOM     10  C   UNL     1      -1.907   1.106   3.601  0.00  0.00    -0.026 A 
ATOM     11  C   UNL     1      -2.464   1.183   5.000  0.00  0.00    +0.046 C 
ATOM     12  C   UNL     1       0.164   0.072   4.550  0.00  0.00    +0.044 C 
BRANCH   7  13
ATOM     13  S   UNL     1      -0.227   0.868  -0.600  0.00  0.00    +0.056 S 
ATOM     14  O   UNL     1       1.188   0.831  -0.468  0.00  0.00    -0.153 OA
ATOM     15  O   UNL     1      -0.895   1.863  -1.364  0.00  0.00    -0.153 OA
BRANCH  13  16
ATOM     16  N   UNL     1      -0.682  -0.595  -1.228  0.00  0.00    -0.204 NA
ATOM     17  H   UNL     1      -1.214  -1.207  -0.695  0.00  0.00    +0.144 HD
ATOM     18  H   UNL     1      -0.416  -0.841  -2.127  0.00  0.00    +0.144 HD
ENDBRANCH  13  16
ENDBRANCH   7  13
ENDBRANCH   3   5
BRANCH   1  19
ATOM     19  C   UNL     1      -6.140   2.862   1.927  0.00  0.00    +0.020 C 
BRANCH  19  28
ATOM     20  C   UNL     1      -8.325   3.122   0.918  0.00  0.00    -0.036 C 
ATOM     21  C   UNL     1      -9.067   3.080  -0.414  0.00  0.00    -0.051 A 
ATOM     22  C   UNL     1     -10.449   2.954  -0.530  0.00  0.00    +0.010 A 
ATOM     23  C   UNL     1     -11.026   2.924  -1.754  0.00  0.00    +0.045 A 
ATOM     24  S   UNL     1      -9.610   3.076  -2.833  0.00  0.00    -0.101 S 
ATOM     25  C   UNL     1      -8.364   3.169  -1.579  0.00  0.00    -0.010 A 
ATOM     26  C   UNL     1      -6.884   3.312  -1.718  0.00  0.00    +0.024 C 
ATOM     27  C   UNL     1      -6.319   3.696  -0.340  0.00  0.00    -0.072 C 
ATOM     28  N   UNL     1      -6.905   2.780   0.668  0.00  0.00    +0.390 N 
ATOM     29  H   UNL     1      -6.855   1.819   0.310  0.00  0.00    -0.080 HD
BRANCH  20  31
ATOM     30  C   UNL     1      -8.732   0.684   1.282  0.00  0.00    +0.002 C 
ATOM     31  C   UNL     1      -8.921   2.084   1.871  0.00  0.00    -0.014 C 
ENDBRANCH  20  31
ENDBRANCH  19  28
ENDBRANCH   1  19
TORSDOF 6
