REMARK  Name = ZINC64705048
REMARK  9 active torsions:
REMARK  status: ('A' for Active; 'I' for Inactive)
REMARK    1  A    between atoms: C_1  and  O_2
REMARK    2  A    between atoms: O_2  and  C_3
REMARK    3  A    between atoms: C_6  and  O_36
REMARK    4  A    between atoms: C_7  and  C_9
REMARK    5  A    between atoms: C_15  and  C_17
REMARK    6  A    between atoms: C_17  and  N_18
REMARK    7  A    between atoms: C_21  and  C_26
REMARK    8  A    between atoms: C_26  and  C_27
REMARK    9  A    between atoms: O_36  and  C_37
REMARK                            x       y       z     vdW  Elec       q    Type
REMARK                         _______ _______ _______ _____ _____    ______ ____
ROOT
ATOM      1  N   UNL     1       0.964  -4.781  -3.406  0.00  0.00    -0.216 N 
ATOM      2  C   UNL     1       0.616  -5.491  -4.498  0.00  0.00    +0.244 C 
ATOM      3  O   UNL     1      -0.031  -6.516  -4.529  0.00  0.00    -0.273 OA
ATOM      4  C   UNL     1       1.202  -4.742  -5.678  0.00  0.00    +0.165 C 
ATOM      5  N   UNL     1       1.875  -3.588  -5.056  0.00  0.00    -0.287 N 
ATOM      6  C   UNL     1       1.677  -3.696  -3.730  0.00  0.00    +0.310 C 
ATOM      7  O   UNL     1       2.100  -2.898  -2.917  0.00  0.00    -0.252 OA
ATOM      8  H   UNL     1       2.364  -2.887  -5.514  0.00  0.00    +0.151 HD
ENDROOT
BRANCH   1   9
ATOM      9  C   UNL     1       0.602  -5.149  -2.035  0.00  0.00    +0.213 C 
BRANCH   9  15
ATOM     10  C   UNL     1      -2.535  -4.173   0.016  0.00  0.00    +0.110 C 
ATOM     11  C   UNL     1      -2.754  -4.691   1.453  0.00  0.00    +0.029 C 
ATOM     12  C   UNL     1      -1.861  -5.960   1.504  0.00  0.00    +0.021 C 
ATOM     13  C   UNL     1      -0.662  -5.532   0.623  0.00  0.00    +0.108 C 
ATOM     14  N   UNL     1      -1.258  -4.723  -0.460  0.00  0.00    -0.293 N 
ATOM     15  C   UNL     1      -0.722  -4.521  -1.681  0.00  0.00    +0.234 C 
ATOM     16  O   UNL     1      -1.305  -3.834  -2.493  0.00  0.00    -0.274 OA
BRANCH  10  21
ATOM     17  C   UNL     1      -1.201  -0.638   0.010  0.00  0.00    +0.121 A 
ATOM     18  C   UNL     1      -2.374   0.102   0.020  0.00  0.00    +0.049 A 
ATOM     19  C   UNL     1      -3.596  -0.542   0.028  0.00  0.00    +0.049 A 
ATOM     20  C   UNL     1      -3.650  -1.928   0.027  0.00  0.00    +0.125 A 
ATOM     21  C   UNL     1      -2.477  -2.667   0.017  0.00  0.00    +0.018 A 
ATOM     22  C   UNL     1      -1.255  -2.023   0.003  0.00  0.00    +0.054 A 
BRANCH  17  24
ATOM     23  C   UNL     1      -0.017   1.425   0.010  0.00  0.00    +0.277 C 
ATOM     24  O   UNL     1       0.002  -0.004   0.002  0.00  0.00    -0.495 OA
ENDBRANCH  17  24
BRANCH  20  25
ATOM     25  O   UNL     1      -4.853  -2.562   0.036  0.00  0.00    -0.495 OA
ATOM     26  C   UNL     1      -6.021  -1.738   0.046  0.00  0.00    +0.277 C 
ENDBRANCH  20  25
ENDBRANCH  10  21
ENDBRANCH   9  15
ENDBRANCH   1   9
BRANCH   4  27
ATOM     27  C   UNL     1       0.094  -4.277  -6.624  0.00  0.00    +0.065 C 
BRANCH  27  28
ATOM     28  C   UNL     1       0.709  -3.644  -7.846  0.00  0.00    -0.039 C 
ATOM     29  C   UNL     1       0.964  -4.245  -9.031  0.00  0.00    -0.001 A 
ATOM     30  C   UNL     1       0.755  -5.614  -9.518  0.00  0.00    +0.010 A 
ATOM     31  C   UNL     1       1.121  -5.924 -10.782  0.00  0.00    +0.001 A 
ATOM     32  C   UNL     1       1.695  -4.973 -11.637  0.00  0.00    +0.002 A 
ATOM     33  C   UNL     1       1.918  -3.695 -11.262  0.00  0.00    +0.026 A 
ATOM     34  C   UNL     1       1.571  -3.259  -9.954  0.00  0.00    +0.043 A 
ATOM     35  N   UNL     1       1.686  -2.095  -9.363  0.00  0.00    -0.380 N 
ATOM     36  C   UNL     1       1.159  -2.209  -7.998  0.00  0.00    +0.144 C 
ATOM     37  H   UNL     1       2.054  -1.291  -9.762  0.00  0.00    +0.160 HD
ENDBRANCH  27  28
ENDBRANCH   4  27
TORSDOF 7
