REMARK  Name = ZINC09248923
REMARK  10 active torsions:
REMARK  status: ('A' for Active; 'I' for Inactive)
REMARK    1  A    between atoms: C_1  and  C_2
REMARK    2  A    between atoms: C_4  and  C_33
REMARK    3  A    between atoms: N_5  and  C_7
REMARK    4  A    between atoms: C_10  and  C_13
REMARK    5  A    between atoms: C_13  and  O_15
REMARK    6  A    between atoms: O_15  and  C_16
REMARK    7  A    between atoms: C_16  and  C_17
REMARK    8  A    between atoms: N_19  and  C_20
REMARK    9  A    between atoms: C_23  and  N_30
REMARK   10  A    between atoms: C_25  and  C_26
REMARK                            x       y       z     vdW  Elec       q    Type
REMARK                         _______ _______ _______ _____ _____    ______ ____
ROOT
ATOM      1  C   UNL     1      -5.689  -5.368  -0.615  0.00  0.00    +0.328 C 
ENDROOT
BRANCH   1   2
ATOM      2  C   UNL     1      -5.469  -6.627  -1.413  0.00  0.00    +0.255 C 
ATOM      3  O   UNL     1      -4.407  -6.814  -1.970  0.00  0.00    -0.272 OA
ATOM      4  N   UNL     1      -6.451  -7.545  -1.509  0.00  0.00    -0.282 N 
ATOM      5  H   UNL     1      -7.269  -7.435  -1.000  0.00  0.00    +0.155 HD
BRANCH   4   6
ATOM      6  C   UNL     1      -6.290  -8.657  -2.343  0.00  0.00    +0.045 A 
ATOM      7  C   UNL     1      -5.424  -8.595  -3.427  0.00  0.00    +0.026 A 
ATOM      8  C   UNL     1      -5.268  -9.694  -4.248  0.00  0.00    +0.034 A 
ATOM      9  C   UNL     1      -5.972 -10.856  -3.991  0.00  0.00    +0.127 A 
ATOM     10  C   UNL     1      -6.835 -10.921  -2.913  0.00  0.00    +0.047 A 
ATOM     11  C   UNL     1      -6.992  -9.827  -2.085  0.00  0.00    +0.078 A 
BRANCH  11  12
ATOM     12  C   UNL     1      -7.928  -9.901  -0.906  0.00  0.00    +0.419 C 
ATOM     13  F   UNL     1      -8.514 -11.170  -0.855  0.00  0.00    -0.166 F 
ATOM     14  F   UNL     1      -7.212  -9.670   0.273  0.00  0.00    -0.166 F 
ATOM     15  F   UNL     1      -8.927  -8.931  -1.042  0.00  0.00    -0.166 F 
ENDBRANCH  11  12
BRANCH   9  16
ATOM     16  N   UNL     1      -5.802 -12.033  -4.873  0.00  0.00    +0.056 N 
ATOM     17  O   UNL     1      -5.042 -11.977  -5.823  0.00  0.00    -0.126 OA
ATOM     18  O   UNL     1      -6.422 -13.057  -4.649  0.00  0.00    -0.126 OA
ENDBRANCH   9  16
ENDBRANCH   4   6
ENDBRANCH   1   2
BRANCH   1  19
ATOM     19  O   UNL     1      -4.492  -4.547  -0.665  0.00  0.00    -0.452 OA
BRANCH  19  20
ATOM     20  C   UNL     1      -4.524  -3.378   0.003  0.00  0.00    +0.340 C 
ATOM     21  O   UNL     1      -5.524  -3.053   0.611  0.00  0.00    -0.245 OA
BRANCH  20  25
ATOM     22  C   UNL     1      -1.129  -0.827  -0.018  0.00  0.00    +0.066 A 
ATOM     23  C   UNL     1      -1.096  -2.031  -0.713  0.00  0.00    +0.028 A 
ATOM     24  C   UNL     1      -2.193  -2.864  -0.703  0.00  0.00    +0.017 A 
ATOM     25  C   UNL     1      -3.345  -2.492  -0.004  0.00  0.00    +0.059 A 
ATOM     26  C   UNL     1      -3.376  -1.278   0.689  0.00  0.00    +0.017 A 
ATOM     27  C   UNL     1      -2.273  -0.454   0.680  0.00  0.00    +0.028 A 
BRANCH  22  32
ATOM     28  C   UNL     1       1.637   3.286  -0.040  0.00  0.00    +0.069 C 
ATOM     29  C   UNL     1       1.204   1.842  -0.035  0.00  0.00    +0.079 A 
ATOM     30  C   UNL     1       2.056   0.731  -0.038  0.00  0.00    +0.085 A 
ATOM     31  C   UNL     1       1.288  -0.383  -0.032  0.00  0.00    +0.060 A 
ATOM     32  N   UNL     1      -0.012   0.013  -0.025  0.00  0.00    -0.235 N 
ATOM     33  N   UNL     1      -0.032   1.414  -0.028  0.00  0.00    -0.170 NA
ATOM     34  C   UNL     1       1.785  -1.806  -0.033  0.00  0.00    +0.067 C 
ATOM     35 CL   UNL     1       3.791   0.776  -0.049  0.00  0.00    -0.080 Cl
ENDBRANCH  22  32
ENDBRANCH  20  25
ENDBRANCH  19  20
ENDBRANCH   1  19
TORSDOF 8
