REMARK  Name = ZINC39622459
REMARK  7 active torsions:
REMARK  status: ('A' for Active; 'I' for Inactive)
REMARK    1  A    between atoms: C_10  and  C_12
REMARK    2  A    between atoms: C_18  and  C_20
REMARK    3  A    between atoms: C_20  and  O_22
REMARK    4  A    between atoms: O_22  and  C_23
REMARK    5  A    between atoms: C_23  and  C_24
REMARK    6  A    between atoms: N_26  and  C_27
REMARK    7  A    between atoms: C_30  and  N_34
REMARK                            x       y       z     vdW  Elec       q    Type
REMARK                         _______ _______ _______ _____ _____    ______ ____
ROOT
ATOM      1  C   UNL     1       7.147   0.361  -1.465  0.00  0.00    +0.311 C 
ATOM      2  O   UNL     1       6.361  -0.202  -2.190  0.00  0.00    -0.251 OA
ENDROOT
BRANCH   1   8
ATOM      3  C   UNL     1       5.144   0.889  -0.103  0.00  0.00    +0.089 C 
ATOM      4  C   UNL     1       4.649   1.588   1.165  0.00  0.00    +0.013 C 
ATOM      5  C   UNL     1       5.322   0.962   2.388  0.00  0.00    +0.001 C 
ATOM      6  C   UNL     1       6.839   1.123   2.275  0.00  0.00    +0.001 C 
ATOM      7  C   UNL     1       7.333   0.424   1.007  0.00  0.00    +0.015 C 
ATOM      8  C   UNL     1       6.661   1.050  -0.216  0.00  0.00    +0.110 C 
BRANCH   3  18
ATOM      9  C   UNL     1       1.857  -4.790  -0.386  0.00  0.00    +0.000 A 
ATOM     10  C   UNL     1       3.230  -4.708  -0.238  0.00  0.00    +0.002 A 
ATOM     11  C   UNL     1       3.848  -3.479  -0.161  0.00  0.00    +0.024 A 
ATOM     12  C   UNL     1       3.094  -2.306  -0.233  0.00  0.00    +0.039 A 
ATOM     13  C   UNL     1       1.720  -2.398  -0.382  0.00  0.00    -0.024 A 
ATOM     14  C   UNL     1       1.104  -3.633  -0.458  0.00  0.00    +0.005 A 
ATOM     15  C   UNL     1       1.146  -1.000  -0.433  0.00  0.00    +0.056 C 
ATOM     16  C   UNL     1       2.367  -0.075  -0.294  0.00  0.00    +0.118 C 
ATOM     17  N   UNL     1       3.518  -0.975  -0.177  0.00  0.00    -0.271 N 
ATOM     18  C   UNL     1       4.798  -0.577  -0.035  0.00  0.00    +0.224 C 
ATOM     19  O   UNL     1       5.672  -1.398   0.147  0.00  0.00    -0.275 OA
ENDBRANCH   3  18
ENDBRANCH   1   8
BRANCH   1  20
ATOM     20  O   UNL     1       8.454   0.372  -1.772  0.00  0.00    -0.455 OA
BRANCH  20  21
ATOM     21  C   UNL     1       8.845  -0.301  -2.970  0.00  0.00    +0.328 C 
BRANCH  21  22
ATOM     22  C   UNL     1      10.336  -0.183  -3.149  0.00  0.00    +0.255 C 
ATOM     23  O   UNL     1      11.000   0.418  -2.330  0.00  0.00    -0.272 OA
ATOM     24  N   UNL     1      10.934  -0.746  -4.218  0.00  0.00    -0.281 N 
ATOM     25  H   UNL     1      10.396  -1.162  -4.910  0.00  0.00    +0.155 HD
BRANCH  24  26
ATOM     26  C   UNL     1      12.329  -0.729  -4.330  0.00  0.00    +0.052 A 
ATOM     27  C   UNL     1      13.116  -0.596  -3.194  0.00  0.00    +0.027 A 
ATOM     28  C   UNL     1      14.493  -0.581  -3.307  0.00  0.00    +0.034 A 
ATOM     29  C   UNL     1      15.088  -0.698  -4.550  0.00  0.00    +0.128 A 
ATOM     30  C   UNL     1      14.307  -0.831  -5.684  0.00  0.00    +0.054 A 
ATOM     31  C   UNL     1      12.929  -0.852  -5.577  0.00  0.00    +0.064 A 
ATOM     32 CL   UNL     1      11.950  -1.026  -7.000  0.00  0.00    -0.082 Cl
BRANCH  29  33
ATOM     33  N   UNL     1      16.563  -0.681  -4.668  0.00  0.00    +0.056 N 
ATOM     34  O   UNL     1      17.247  -0.565  -3.677  0.00  0.00    -0.126 OA
ATOM     35  O   UNL     1      17.084  -0.783  -5.753  0.00  0.00    -0.126 OA
ENDBRANCH  29  33
ENDBRANCH  24  26
ENDBRANCH  21  22
ENDBRANCH  20  21
ENDBRANCH   1  20
TORSDOF 7
