REMARK  Name = ZINC13190938
REMARK  10 active torsions:
REMARK  status: ('A' for Active; 'I' for Inactive)
REMARK    1  A    between atoms: C_1  and  C_2
REMARK    2  A    between atoms: C_5  and  N_8
REMARK    3  A    between atoms: C_9  and  C_11
REMARK    4  A    between atoms: C_11  and  N_12
REMARK    5  A    between atoms: N_12  and  C_13
REMARK    6  A    between atoms: N_12  and  C_14
REMARK    7  A    between atoms: C_17  and  S_23
REMARK    8  A    between atoms: C_19  and  N_20
REMARK    9  A    between atoms: S_23  and  N_26
REMARK   10  A    between atoms: C_29  and  C_32
REMARK                            x       y       z     vdW  Elec       q    Type
REMARK                         _______ _______ _______ _____ _____    ______ ____
ROOT
ATOM      1  C   UNL     1       3.883  -6.094  -0.259  0.00  0.00    +0.061 A 
ATOM      2  C   UNL     1       3.208  -6.901  -1.166  0.00  0.00    +0.027 A 
ATOM      3  C   UNL     1       3.279  -8.275  -1.052  0.00  0.00    +0.030 A 
ATOM      4  C   UNL     1       4.023  -8.849  -0.037  0.00  0.00    +0.108 A 
ATOM      5  C   UNL     1       4.696  -8.049   0.868  0.00  0.00    +0.063 A 
ATOM      6  C   UNL     1       4.634  -6.674   0.756  0.00  0.00    +0.149 A 
ENDROOT
BRANCH   6   7
ATOM      7  N   UNL     1       5.360  -5.818   1.721  0.00  0.00    +0.058 N 
ATOM      8  O   UNL     1       6.018  -6.327   2.611  0.00  0.00    -0.126 OA
ATOM      9  O   UNL     1       5.300  -4.606   1.625  0.00  0.00    -0.126 OA
ENDBRANCH   6   7
BRANCH   4  10
ATOM     10  S   UNL     1       4.112 -10.603   0.104  0.00  0.00    +0.061 S 
ATOM     11  O   UNL     1       4.425 -10.886   1.461  0.00  0.00    -0.153 OA
ATOM     12  O   UNL     1       2.953 -11.121  -0.534  0.00  0.00    -0.153 OA
BRANCH  10  13
ATOM     13  N   UNL     1       5.410 -11.101  -0.795  0.00  0.00    -0.177 NA
ATOM     14  C   UNL     1       5.248 -11.452  -2.212  0.00  0.00    +0.110 C 
ATOM     15  C   UNL     1       5.814 -12.852  -2.446  0.00  0.00    +0.032 C 
ATOM     16  C   UNL     1       7.259 -12.906  -1.946  0.00  0.00    +0.105 C 
ATOM     17  C   UNL     1       7.292 -12.615  -0.444  0.00  0.00    +0.032 C 
ATOM     18  C   UNL     1       6.744 -11.207  -0.189  0.00  0.00    +0.110 C 
BRANCH  16  19
ATOM     19  C   UNL     1       7.828 -14.277  -2.204  0.00  0.00    +0.359 C 
ATOM     20  O   UNL     1       8.220 -14.952  -1.281  0.00  0.00    -0.246 OA
ATOM     21  O   UNL     1       7.900 -14.749  -3.458  0.00  0.00    -0.246 OA
ENDBRANCH  16  19
ENDBRANCH  10  13
ENDBRANCH   4  10
BRANCH   1  22
ATOM     22  N   UNL     1       3.813  -4.704  -0.371  0.00  0.00    -0.322 N 
ATOM     23  C   UNL     1       4.422  -4.246  -1.627  0.00  0.00    +0.130 C 
BRANCH  22  24
ATOM     24  C   UNL     1       2.425  -4.236  -0.258  0.00  0.00    +0.200 C 
BRANCH  24  26
ATOM     25  N   UNL     1       1.237  -2.079  -0.020  0.00  0.00    -0.284 N 
ATOM     26  C   UNL     1       2.410  -2.734  -0.137  0.00  0.00    +0.234 C 
ATOM     27  O   UNL     1       3.452  -2.114  -0.144  0.00  0.00    -0.274 OA
ATOM     28  H   UNL     1       0.408  -2.578   0.053  0.00  0.00    +0.155 HD
BRANCH  25  33
ATOM     29  C   UNL     1       1.149   3.593   0.042  0.00  0.00    +0.044 C 
ATOM     30  C   UNL     1       1.172   2.086   0.025  0.00  0.00    -0.050 A 
ATOM     31  C   UNL     1       0.142   1.386  -0.577  0.00  0.00    +0.005 A 
ATOM     32  C   UNL     1       0.161   0.005  -0.594  0.00  0.00    +0.023 A 
ATOM     33  C   UNL     1       1.216  -0.680  -0.005  0.00  0.00    +0.033 A 
ATOM     34  C   UNL     1       2.248   0.025   0.598  0.00  0.00    +0.023 A 
ATOM     35  C   UNL     1       2.224   1.406   0.612  0.00  0.00    +0.005 A 
ENDBRANCH  25  33
ENDBRANCH  24  26
ENDBRANCH  22  24
ENDBRANCH   1  22
TORSDOF 8
