REMARK  Name = ZINC10445971
REMARK  5 active torsions:
REMARK  status: ('A' for Active; 'I' for Inactive)
REMARK    1  A    between atoms: C_3  and  S_20
REMARK    2  A    between atoms: C_6  and  N_7
REMARK    3  A    between atoms: C_8  and  C_10
REMARK    4  A    between atoms: C_11  and  C_12
REMARK    5  A    between atoms: S_20  and  N_23
REMARK                            x       y       z     vdW  Elec       q    Type
REMARK                         _______ _______ _______ _____ _____    ______ ____
ROOT
ATOM      1  C   UNL     1      -5.847   4.335   4.714  0.00  0.00    +0.025 A 
ATOM      2  C   UNL     1      -4.640   4.436   4.051  0.00  0.00    +0.031 A 
ATOM      3  C   UNL     1      -4.607   4.445   2.668  0.00  0.00    +0.113 A 
ATOM      4  C   UNL     1      -5.783   4.358   1.945  0.00  0.00    +0.031 A 
ATOM      5  C   UNL     1      -6.993   4.251   2.602  0.00  0.00    +0.025 A 
ATOM      6  C   UNL     1      -7.029   4.242   3.990  0.00  0.00    +0.034 A 
ENDROOT
BRANCH   6   7
ATOM      7  N   UNL     1      -8.253   4.140   4.659  0.00  0.00    -0.282 N 
ATOM      8  C   UNL     1      -9.256   3.417   4.122  0.00  0.00    +0.241 C 
ATOM      9  O   UNL     1      -9.067   2.776   3.105  0.00  0.00    -0.270 OA
ATOM     10  H   UNL     1      -8.380   4.589   5.509  0.00  0.00    +0.155 HD
BRANCH   8  11
ATOM     11  C   UNL     1     -10.573   3.404   4.761  0.00  0.00    +0.068 C 
ATOM     12  C   UNL     1     -11.576   2.682   4.224  0.00  0.00    +0.013 C 
BRANCH  12  13
ATOM     13  C   UNL     1     -12.900   2.668   4.867  0.00  0.00    -0.022 A 
ATOM     14  C   UNL     1     -13.119   3.400   6.038  0.00  0.00    +0.028 A 
ATOM     15  C   UNL     1     -14.365   3.387   6.633  0.00  0.00    +0.043 A 
ATOM     16  C   UNL     1     -15.393   2.643   6.079  0.00  0.00    +0.040 A 
ATOM     17  C   UNL     1     -15.182   1.912   4.921  0.00  0.00    +0.043 A 
ATOM     18  C   UNL     1     -13.943   1.920   4.313  0.00  0.00    +0.028 A 
ATOM     19 CL   UNL     1     -16.478   0.983   4.235  0.00  0.00    -0.083 Cl
ATOM     20 CL   UNL     1     -14.641   4.299   8.084  0.00  0.00    -0.083 Cl
ENDBRANCH  12  13
ENDBRANCH   8  11
ENDBRANCH   6   7
BRANCH   3  21
ATOM     21  S   UNL     1      -3.065   4.574   1.826  0.00  0.00    +0.100 S 
ATOM     22  O   UNL     1      -2.160   5.196   2.728  0.00  0.00    -0.146 OA
ATOM     23  O   UNL     1      -3.348   5.110   0.541  0.00  0.00    -0.146 OA
BRANCH  21  24
ATOM     24  N   UNL     1      -2.508   3.033   1.585  0.00  0.00    -0.118 NA
ATOM     25  C   UNL     1      -1.381   2.840   0.981  0.00  0.00    +0.117 C 
ATOM     26  C   UNL     1      -0.601   4.019   0.511  0.00  0.00    +0.073 C 
ATOM     27  C   UNL     1      -0.934   4.322  -0.966  0.00  0.00    +0.008 C 
ATOM     28  C   UNL     1      -0.388   3.266  -1.847  0.00  0.00    +0.002 C 
ATOM     29  C   UNL     1      -0.987   1.885  -1.623  0.00  0.00    +0.019 C 
ATOM     30  C   UNL     1      -0.279   1.181  -0.491  0.00  0.00    +0.102 C 
ATOM     31  N   UNL     1      -0.931   1.542   0.790  0.00  0.00    -0.331 N 
ATOM     32  H   UNL     1      -1.044   0.877   1.487  0.00  0.00    +0.147 HD
ENDBRANCH  21  24
ENDBRANCH   3  21
TORSDOF 5
