REMARK  Name = ZINC59490214
REMARK  8 active torsions:
REMARK  status: ('A' for Active; 'I' for Inactive)
REMARK    1  A    between atoms: C_3  and  N_34
REMARK    2  A    between atoms: C_6  and  C_7
REMARK    3  A    between atoms: N_8  and  N_9
REMARK    4  A    between atoms: C_10  and  C_12
REMARK    5  A    between atoms: C_12  and  N_13
REMARK    6  A    between atoms: N_13  and  C_14
REMARK    7  A    between atoms: N_13  and  S_21
REMARK    8  A    between atoms: S_21  and  C_24
REMARK                            x       y       z     vdW  Elec       q    Type
REMARK                         _______ _______ _______ _____ _____    ______ ____
ROOT
ATOM      1  N   UNL     1      -3.386  -6.301  -0.030  0.00  0.00    -0.194 N 
ENDROOT
BRANCH   1   2
ATOM      2  C   UNL     1      -3.281  -6.835   1.258  0.00  0.00    +0.052 A 
ATOM      3  C   UNL     1      -2.776  -8.116   1.441  0.00  0.00    +0.027 A 
ATOM      4  C   UNL     1      -2.673  -8.642   2.714  0.00  0.00    +0.040 A 
ATOM      5  C   UNL     1      -3.073  -7.893   3.808  0.00  0.00    +0.124 A 
ATOM      6  C   UNL     1      -3.577  -6.616   3.628  0.00  0.00    +0.040 A 
ATOM      7  C   UNL     1      -3.677  -6.084   2.357  0.00  0.00    +0.027 A 
ATOM      8  F   UNL     1      -2.972  -8.409   5.052  0.00  0.00    -0.205 F 
ENDBRANCH   1   2
BRANCH   1   9
ATOM      9  S   UNL     1      -4.471  -6.939  -1.106  0.00  0.00    +0.075 S 
ATOM     10  O   UNL     1      -5.404  -7.692  -0.343  0.00  0.00    -0.150 OA
ATOM     11  O   UNL     1      -4.867  -5.877  -1.962  0.00  0.00    -0.150 OA
BRANCH   9  12
ATOM     12  C   UNL     1      -3.593  -8.093  -2.108  0.00  0.00    +0.112 A 
ATOM     13  C   UNL     1      -2.870  -7.649  -3.200  0.00  0.00    +0.032 A 
ATOM     14  C   UNL     1      -2.182  -8.550  -3.989  0.00  0.00    +0.051 A 
ATOM     15  C   UNL     1      -2.212  -9.903  -3.686  0.00  0.00    +0.162 A 
ATOM     16  C   UNL     1      -2.936 -10.350  -2.587  0.00  0.00    +0.164 A 
ATOM     17  C   UNL     1      -3.623  -9.439  -1.797  0.00  0.00    +0.078 A 
ATOM     18  O   UNL     1      -2.973 -11.672  -2.268  0.00  0.00    -0.485 OA
ATOM     19  C   UNL     1      -2.577 -12.593  -3.290  0.00  0.00    +0.270 C 
ATOM     20  C   UNL     1      -1.278 -12.077  -3.924  0.00  0.00    +0.270 C 
ATOM     21  O   UNL     1      -1.532 -10.780  -4.474  0.00  0.00    -0.485 OA
ENDBRANCH   9  12
ENDBRANCH   1   9
BRANCH   1  22
ATOM     22  C   UNL     1      -2.536  -5.176  -0.427  0.00  0.00    +0.228 C 
BRANCH  22  24
ATOM     23  N   UNL     1      -0.257  -4.835  -1.326  0.00  0.00    -0.206 N 
ATOM     24  C   UNL     1      -1.206  -5.696  -0.907  0.00  0.00    +0.251 C 
ATOM     25  O   UNL     1      -0.989  -6.889  -0.917  0.00  0.00    -0.272 OA
ATOM     26  H   UNL     1      -0.430  -3.881  -1.319  0.00  0.00    +0.177 HD
BRANCH  23  28
ATOM     27  C   UNL     1       1.893  -4.491  -2.176  0.00  0.00    +0.138 C 
ATOM     28  N   UNL     1       0.980  -5.319  -1.773  0.00  0.00    -0.188 NA
BRANCH  27  34
ATOM     29  C   UNL     1       4.181  -4.111  -3.082  0.00  0.00    +0.012 A 
ATOM     30  C   UNL     1       5.396  -4.594  -3.519  0.00  0.00    +0.033 A 
ATOM     31  C   UNL     1       5.640  -5.956  -3.529  0.00  0.00    +0.126 A 
ATOM     32  C   UNL     1       4.668  -6.843  -3.099  0.00  0.00    +0.033 A 
ATOM     33  C   UNL     1       3.448  -6.374  -2.658  0.00  0.00    +0.012 A 
ATOM     34  C   UNL     1       3.195  -5.000  -2.647  0.00  0.00    -0.005 A 
BRANCH  31  35
ATOM     35  N   UNL     1       6.946  -6.468  -4.001  0.00  0.00    +0.056 N 
ATOM     36  O   UNL     1       7.797  -5.696  -4.377  0.00  0.00    -0.126 OA
ATOM     37  O   UNL     1       7.162  -7.657  -4.011  0.00  0.00    -0.126 OA
ENDBRANCH  31  35
ENDBRANCH  27  34
ENDBRANCH  23  28
ENDBRANCH  22  24
ENDBRANCH   1  22
TORSDOF 8
