REMARK  Name = ZINC13033861
REMARK  9 active torsions:
REMARK  status: ('A' for Active; 'I' for Inactive)
REMARK    1  A    between atoms: C_1  and  C_2
REMARK    2  A    between atoms: C_5  and  C_8
REMARK    3  A    between atoms: C_8  and  N_66
REMARK    4  A    between atoms: C_9  and  C_10
REMARK    5  A    between atoms: C_9  and  N_66
REMARK    6  A    between atoms: C_26  and  C_27
REMARK    7  A    between atoms: C_26  and  N_66
REMARK    8  A    between atoms: N_31  and  C_32
REMARK    9  A    between atoms: C_32  and  C_33
REMARK                            x       y       z     vdW  Elec       q    Type
REMARK                         _______ _______ _______ _____ _____    ______ ____
ROOT
ATOM      1  N   UNL     1       1.565  -2.057  -1.366  0.00  0.00    +0.390 N 
ATOM      2  H   UNL     1       0.845  -1.828  -2.061  0.00  0.00    -0.080 HD
ENDROOT
BRANCH   1   3
ATOM      3  C   UNL     1       2.898  -1.869  -1.976  0.00  0.00    -0.042 C 
BRANCH   3   8
ATOM      4  C   UNL     1       2.916  -4.342  -7.199  0.00  0.00    +0.044 C 
ATOM      5  C   UNL     1       2.911  -3.697  -5.837  0.00  0.00    -0.050 A 
ATOM      6  C   UNL     1       2.415  -2.416  -5.680  0.00  0.00    +0.003 A 
ATOM      7  C   UNL     1       2.411  -1.825  -4.431  0.00  0.00    +0.002 A 
ATOM      8  C   UNL     1       2.903  -2.514  -3.338  0.00  0.00    -0.064 A 
ATOM      9  C   UNL     1       3.404  -3.792  -3.496  0.00  0.00    +0.002 A 
ATOM     10  C   UNL     1       3.404  -4.386  -4.744  0.00  0.00    +0.003 A 
ENDBRANCH   3   8
ENDBRANCH   1   3
BRANCH   1  11
ATOM     11  C   UNL     1       1.396  -3.463  -0.945  0.00  0.00    -0.036 C 
BRANCH  11  12
ATOM     12  C   UNL     1      -0.075  -3.743  -0.778  0.00  0.00    +0.001 A 
ATOM     13  C   UNL     1      -0.787  -4.261  -1.812  0.00  0.00    +0.017 A 
ATOM     14  C   UNL     1      -2.211  -4.527  -1.617  0.00  0.00    +0.002 A 
ATOM     15  C   UNL     1      -2.994  -5.064  -2.646  0.00  0.00    +0.059 A 
ATOM     16  C   UNL     1      -4.336  -5.299  -2.434  0.00  0.00    +0.163 A 
ATOM     17  C   UNL     1      -4.916  -5.004  -1.197  0.00  0.00    +0.164 A 
ATOM     18  C   UNL     1      -4.150  -4.472  -0.174  0.00  0.00    +0.075 A 
ATOM     19  C   UNL     1      -2.797  -4.228  -0.371  0.00  0.00    +0.053 A 
ATOM     20  N   UNL     1      -2.019  -3.697   0.638  0.00  0.00    -0.322 N 
ATOM     21  H   UNL     1      -2.423  -3.492   1.495  0.00  0.00    +0.169 HD
ATOM     22  C   UNL     1      -0.709  -3.462   0.450  0.00  0.00    +0.251 A 
ATOM     23  O   UNL     1      -0.052  -2.992   1.363  0.00  0.00    -0.268 OA
ATOM     24  O   UNL     1      -6.239  -5.237  -0.979  0.00  0.00    -0.485 OA
ATOM     25  C   UNL     1      -7.060  -5.419  -2.137  0.00  0.00    +0.270 C 
ATOM     26  C   UNL     1      -6.346  -6.391  -3.086  0.00  0.00    +0.270 C 
ATOM     27  O   UNL     1      -5.084  -5.819  -3.447  0.00  0.00    -0.485 OA
ENDBRANCH  11  12
ENDBRANCH   1  11
BRANCH   1  28
ATOM     28  C   UNL     1       1.411  -1.158  -0.202  0.00  0.00    +0.001 C 
BRANCH  28  29
ATOM     29  C   UNL     1       1.434   0.270  -0.683  0.00  0.00    +0.135 A 
ATOM     30  N   UNL     1       2.496   1.010  -0.887  0.00  0.00    -0.115 NA
ATOM     31  N   UNL     1       2.102   2.167  -1.295  0.00  0.00    -0.023 NA
ATOM     32  N   UNL     1       0.816   2.184  -1.356  0.00  0.00    -0.044 NA
ATOM     33  N   UNL     1       0.367   1.033  -0.986  0.00  0.00    -0.227 N 
BRANCH  33  34
ATOM     34  C   UNL     1      -1.040   0.631  -0.911  0.00  0.00    +0.182 C 
BRANCH  34  35
ATOM     35  C   UNL     1      -1.512   0.196  -2.275  0.00  0.00    -0.026 A 
ATOM     36  C   UNL     1      -1.963   1.136  -3.182  0.00  0.00    +0.008 A 
ATOM     37  C   UNL     1      -2.391   0.739  -4.434  0.00  0.00    +0.038 A 
ATOM     38  C   UNL     1      -2.378  -0.603  -4.777  0.00  0.00    +0.123 A 
ATOM     39  C   UNL     1      -1.931  -1.544  -3.865  0.00  0.00    +0.038 A 
ATOM     40  C   UNL     1      -1.498  -1.144  -2.615  0.00  0.00    +0.008 A 
ATOM     41  F   UNL     1      -2.801  -0.993  -5.999  0.00  0.00    -0.205 F 
ENDBRANCH  34  35
ENDBRANCH  33  34
ENDBRANCH  28  29
ENDBRANCH   1  28
TORSDOF 8
