REMARK  Name = ZINC13134043
REMARK  8 active torsions:
REMARK  status: ('A' for Active; 'I' for Inactive)
REMARK    1  A    between atoms: C_1  and  C_2
REMARK    2  A    between atoms: C_7  and  N_12
REMARK    3  A    between atoms: C_9  and  C_11
REMARK    4  A    between atoms: C_13  and  C_15
REMARK    5  A    between atoms: C_15  and  C_17
REMARK    6  A    between atoms: C_15  and  S_18
REMARK    7  A    between atoms: S_18  and  C_19
REMARK    8  A    between atoms: N_29  and  C_30
REMARK                            x       y       z     vdW  Elec       q    Type
REMARK                         _______ _______ _______ _____ _____    ______ ____
ROOT
ATOM      1  C   UNL     1       4.651   1.377   0.466  0.00  0.00    +0.177 A 
ATOM      2  N   UNL     1       3.497   1.997   0.511  0.00  0.00    -0.223 NA
ATOM      3  C   UNL     1       2.367   1.422   0.052  0.00  0.00    +0.079 A 
ATOM      4  C   UNL     1       1.137   2.084   0.101  0.00  0.00    +0.028 A 
ATOM      5  C   UNL     1       0.016   1.463  -0.374  0.00  0.00    +0.002 A 
ATOM      6  C   UNL     1       0.079   0.182  -0.906  0.00  0.00    +0.001 A 
ATOM      7  C   UNL     1       1.268  -0.491  -0.967  0.00  0.00    +0.015 A 
ATOM      8  C   UNL     1       2.428   0.118  -0.489  0.00  0.00    +0.065 A 
ATOM      9  C   UNL     1       3.732  -0.557  -0.529  0.00  0.00    +0.267 A 
ATOM     10  O   UNL     1       3.847  -1.681  -0.984  0.00  0.00    -0.267 OA
ATOM     11  N   UNL     1       4.800   0.116  -0.041  0.00  0.00    -0.255 N 
ENDROOT
BRANCH  11  12
ATOM     12  C   UNL     1       6.066  -0.483  -0.056  0.00  0.00    +0.053 A 
ATOM     13  C   UNL     1       6.488  -1.246   1.026  0.00  0.00    +0.029 A 
ATOM     14  C   UNL     1       7.736  -1.836   1.010  0.00  0.00    +0.042 A 
ATOM     15  C   UNL     1       8.569  -1.668  -0.084  0.00  0.00    +0.142 A 
ATOM     16  C   UNL     1       8.151  -0.907  -1.165  0.00  0.00    +0.078 A 
ATOM     17  C   UNL     1       6.899  -0.320  -1.154  0.00  0.00    +0.049 A 
ATOM     18 CL   UNL     1       9.197  -0.698  -2.534  0.00  0.00    -0.081 Cl
ATOM     19  F   UNL     1       9.790  -2.246  -0.098  0.00  0.00    -0.204 F 
ENDBRANCH  11  12
BRANCH   1  20
ATOM     20  S   UNL     1       6.075   2.207   1.087  0.00  0.00    -0.075 S 
BRANCH  20  21
ATOM     21  C   UNL     1       5.327   3.770   1.609  0.00  0.00    +0.137 C 
ATOM     22  C   UNL     1       4.795   4.515   0.383  0.00  0.00    +0.029 C 
BRANCH  21  24
ATOM     23  N   UNL     1       5.982   5.551   3.195  0.00  0.00    -0.311 N 
ATOM     24  C   UNL     1       6.363   4.617   2.301  0.00  0.00    +0.226 C 
ATOM     25  O   UNL     1       7.540   4.458   2.054  0.00  0.00    -0.275 OA
ATOM     26  H   UNL     1       5.041   5.679   3.392  0.00  0.00    +0.149 HD
BRANCH  23  32
ATOM     27  C   UNL     1       6.776   9.878   5.452  0.00  0.00    +0.008 C 
ATOM     28  C   UNL     1       7.409   8.556   5.011  0.00  0.00    -0.009 C 
ATOM     29  C   UNL     1       7.941   7.811   6.237  0.00  0.00    +0.003 C 
ATOM     30  C   UNL     1       8.573   6.490   5.796  0.00  0.00    +0.002 C 
ATOM     31  C   UNL     1       7.521   5.630   5.094  0.00  0.00    +0.022 C 
ATOM     32  C   UNL     1       6.990   6.375   3.868  0.00  0.00    +0.076 C 
ATOM     33  C   UNL     1       6.357   7.696   4.308  0.00  0.00    +0.009 C 
ATOM     34  C   UNL     1       5.825   8.441   3.082  0.00  0.00    +0.009 C 
ENDBRANCH  23  32
ENDBRANCH  21  24
ENDBRANCH  20  21
ENDBRANCH   1  20
TORSDOF 5
