REMARK  Name = ZINC38650365
REMARK  11 active torsions:
REMARK  status: ('A' for Active; 'I' for Inactive)
REMARK    1  A    between atoms: C_1  and  C_2
REMARK    2  A    between atoms: C_2  and  O_3
REMARK    3  A    between atoms: O_3  and  C_4
REMARK    4  A    between atoms: C_7  and  C_11
REMARK    5  A    between atoms: C_11  and  O_13
REMARK    6  A    between atoms: O_13  and  C_14
REMARK    7  A    between atoms: C_21  and  N_35
REMARK    8  A    between atoms: C_22  and  C_33
REMARK    9  A    between atoms: C_23  and  C_25
REMARK   10  A    between atoms: C_28  and  O_31
REMARK   11  A    between atoms: O_31  and  C_32
REMARK                            x       y       z     vdW  Elec       q    Type
REMARK                         _______ _______ _______ _____ _____    ______ ____
ROOT
ATOM      1  C   UNL     1      -2.266  -8.083   1.199  0.00  0.00    +0.135 A 
ATOM      2  C   UNL     1      -2.317  -8.819   0.023  0.00  0.00    +0.047 A 
ATOM      3  C   UNL     1      -2.514 -10.185   0.072  0.00  0.00    +0.012 A 
ATOM      4  C   UNL     1      -2.662 -10.825   1.289  0.00  0.00    +0.008 A 
ATOM      5  C   UNL     1      -2.611 -10.095   2.467  0.00  0.00    +0.138 A 
ATOM      6  C   UNL     1      -2.407  -8.722   2.420  0.00  0.00    +0.093 A 
ATOM      7  O   UNL     1      -2.753 -10.705   3.669  0.00  0.00    -0.441 OA
ATOM      8  C   UNL     1      -3.317 -11.922   3.741  0.00  0.00    +0.199 C 
ATOM      9  C   UNL     1      -3.407 -12.735   2.662  0.00  0.00    +0.098 C 
ATOM     10  C   UNL     1      -2.875 -12.315   1.321  0.00  0.00    +0.098 C 
ENDROOT
BRANCH  10  11
ATOM     11  C   UNL     1      -1.565 -13.013   1.062  0.00  0.00    -0.034 A 
ATOM     12  C   UNL     1      -0.496 -12.813   1.915  0.00  0.00    +0.008 A 
ATOM     13  C   UNL     1       0.706 -13.451   1.680  0.00  0.00    +0.046 A 
ATOM     14  C   UNL     1       0.840 -14.294   0.586  0.00  0.00    +0.120 A 
ATOM     15  C   UNL     1      -0.234 -14.493  -0.269  0.00  0.00    +0.046 A 
ATOM     16  C   UNL     1      -1.436 -13.857  -0.026  0.00  0.00    +0.008 A 
BRANCH  14  17
ATOM     17  O   UNL     1       2.022 -14.922   0.351  0.00  0.00    -0.495 OA
ATOM     18  C   UNL     1       2.088 -15.775  -0.793  0.00  0.00    +0.277 C 
ENDBRANCH  14  17
ENDBRANCH  10  11
BRANCH   8  19
ATOM     19  N   UNL     1      -3.817 -12.354   4.944  0.00  0.00    -0.328 N 
ATOM     20  H   UNL     1      -3.760 -11.784   5.727  0.00  0.00    +0.145 HD
ATOM     21  H   UNL     1      -4.227 -13.231   5.013  0.00  0.00    +0.145 HD
ENDBRANCH   8  19
BRANCH   9  22
ATOM     22  C   UNL     1      -4.020 -14.022   2.803  0.00  0.00    +0.101 C 
ATOM     23  N   UNL     1      -4.506 -15.043   2.914  0.00  0.00    -0.191 NA
ENDBRANCH   9  22
BRANCH   1  24
ATOM     24  O   UNL     1      -2.072  -6.739   1.153  0.00  0.00    -0.422 OA
BRANCH  24  25
ATOM     25  C   UNL     1      -3.119  -5.960   0.815  0.00  0.00    +0.345 C 
ATOM     26  O   UNL     1      -4.170  -6.468   0.477  0.00  0.00    -0.245 OA
BRANCH  25  30
ATOM     27  C   UNL     1      -2.745  -1.731   0.936  0.00  0.00    +0.157 A 
ATOM     28  C   UNL     1      -3.949  -2.310   0.548  0.00  0.00    +0.085 A 
ATOM     29  C   UNL     1      -4.074  -3.682   0.507  0.00  0.00    +0.038 A 
ATOM     30  C   UNL     1      -2.989  -4.492   0.857  0.00  0.00    +0.062 A 
ATOM     31  C   UNL     1      -1.781  -3.906   1.246  0.00  0.00    +0.038 A 
ATOM     32  C   UNL     1      -1.663  -2.533   1.279  0.00  0.00    +0.085 A 
ATOM     33 CL   UNL     1      -0.161  -1.804   1.756  0.00  0.00    -0.080 Cl
ATOM     34 CL   UNL     1      -5.295  -1.304   0.114  0.00  0.00    -0.080 Cl
BRANCH  27  35
ATOM     35  O   UNL     1      -2.626  -0.380   0.975  0.00  0.00    -0.489 OA
BRANCH  35  37
ATOM     36  C   UNL     1      -2.111   1.778   0.015  0.00  0.00    +0.048 C 
ATOM     37  C   UNL     1      -2.184   0.268  -0.220  0.00  0.00    +0.226 C 
ENDBRANCH  35  37
ENDBRANCH  27  35
ENDBRANCH  25  30
ENDBRANCH  24  25
ENDBRANCH   1  24
TORSDOF 9
