REMARK  Name = ZINC09292878
REMARK  11 active torsions:
REMARK  status: ('A' for Active; 'I' for Inactive)
REMARK    1  A    between atoms: C_1  and  C_2
REMARK    2  A    between atoms: C_2  and  C_3
REMARK    3  A    between atoms: C_4  and  C_35
REMARK    4  A    between atoms: C_5  and  C_33
REMARK    5  A    between atoms: C_15  and  N_16
REMARK    6  A    between atoms: N_16  and  N_17
REMARK    7  A    between atoms: C_18  and  C_19
REMARK    8  A    between atoms: C_20  and  C_32
REMARK    9  A    between atoms: N_22  and  C_25
REMARK   10  A    between atoms: C_23  and  C_24
REMARK   11  A    between atoms: C_25  and  C_26
REMARK                            x       y       z     vdW  Elec       q    Type
REMARK                         _______ _______ _______ _____ _____    ______ ____
ROOT
ATOM      1  C   UNL     1      -4.926   0.426   8.982  0.00  0.00    -0.003 A 
ATOM      2  C   UNL     1      -4.929  -0.346  10.135  0.00  0.00    -0.023 A 
ATOM      3  C   UNL     1      -5.509  -1.615  10.111  0.00  0.00    +0.098 A 
ATOM      4  C   UNL     1      -6.106  -2.094   8.860  0.00  0.00    +0.158 A 
ATOM      5  N   UNL     1      -6.711  -3.227   8.555  0.00  0.00    -0.226 NA
ATOM      6  C   UNL     1      -7.096  -3.203   7.257  0.00  0.00    +0.090 A 
ATOM      7  C   UNL     1      -7.760  -4.122   6.436  0.00  0.00    +0.030 A 
ATOM      8  C   UNL     1      -8.016  -3.809   5.131  0.00  0.00    +0.002 A 
ATOM      9  C   UNL     1      -7.624  -2.585   4.607  0.00  0.00    +0.002 A 
ATOM     10  C   UNL     1      -6.969  -1.664   5.397  0.00  0.00    +0.028 A 
ATOM     11  C   UNL     1      -6.699  -1.963   6.725  0.00  0.00    +0.075 A 
ATOM     12  N   UNL     1      -6.077  -1.279   7.754  0.00  0.00    -0.278 N 
ATOM     13  C   UNL     1      -5.498  -0.041   7.819  0.00  0.00    +0.128 A 
ATOM     14  C   UNL     1      -4.305   0.180  11.402  0.00  0.00    +0.045 C 
ENDROOT
BRANCH   1  16
ATOM     15  C   UNL     1      -5.345   2.834   9.402  0.00  0.00    +0.009 C 
ATOM     16  C   UNL     1      -4.295   1.794   9.004  0.00  0.00    +0.035 C 
ENDBRANCH   1  16
BRANCH  13  17
ATOM     17  N   UNL     1      -5.483   0.752   6.699  0.00  0.00    -0.222 N 
ATOM     18  H   UNL     1      -5.982   1.584   6.686  0.00  0.00    +0.176 HD
BRANCH  17  19
ATOM     19  N   UNL     1      -4.746   0.360   5.573  0.00  0.00    -0.189 NA
ATOM     20  C   UNL     1      -4.650   1.155   4.552  0.00  0.00    +0.141 C 
BRANCH  20  21
ATOM     21  C   UNL     1      -3.968   0.700   3.325  0.00  0.00    +0.038 A 
ATOM     22  C   UNL     1      -3.283  -0.523   3.152  0.00  0.00    +0.069 A 
ATOM     23  N   UNL     1      -2.822  -0.561   1.931  0.00  0.00    -0.175 NA
ATOM     24  N   UNL     1      -3.177   0.624   1.276  0.00  0.00    -0.263 N 
ATOM     25  C   UNL     1      -3.881   1.389   2.134  0.00  0.00    +0.045 A 
ATOM     26  C   UNL     1      -4.466   2.748   1.845  0.00  0.00    +0.066 C 
ATOM     27  C   UNL     1      -3.118  -1.599   4.194  0.00  0.00    +0.068 C 
BRANCH  24  28
ATOM     28  C   UNL     1      -2.845   0.972  -0.108  0.00  0.00    +0.178 C 
BRANCH  28  29
ATOM     29  C   UNL     1      -1.528   1.703  -0.140  0.00  0.00    -0.026 A 
ATOM     30  C   UNL     1      -0.348   0.996  -0.279  0.00  0.00    +0.005 A 
ATOM     31  C   UNL     1       0.860   1.666  -0.314  0.00  0.00    +0.000 A 
ATOM     32  C   UNL     1       0.889   3.044  -0.205  0.00  0.00    +0.000 A 
ATOM     33  C   UNL     1      -0.290   3.751  -0.062  0.00  0.00    +0.000 A 
ATOM     34  C   UNL     1      -1.498   3.080  -0.026  0.00  0.00    +0.005 A 
ENDBRANCH  28  29
ENDBRANCH  24  28
ENDBRANCH  20  21
ENDBRANCH  17  19
ENDBRANCH  13  17
BRANCH   3  35
ATOM     35  C   UNL     1      -5.519  -2.435  11.285  0.00  0.00    +0.103 C 
ATOM     36  N   UNL     1      -5.528  -3.085  12.217  0.00  0.00    -0.191 NA
ENDBRANCH   3  35
TORSDOF 7
