REMARK  Name = ZINC40735750
REMARK  10 active torsions:
REMARK  status: ('A' for Active; 'I' for Inactive)
REMARK    1  A    between atoms: C_4  and  N_7
REMARK    2  A    between atoms: C_8  and  S_12
REMARK    3  A    between atoms: S_12  and  C_13
REMARK    4  A    between atoms: C_13  and  C_14
REMARK    5  A    between atoms: C_14  and  N_15
REMARK    6  A    between atoms: N_15  and  C_16
REMARK    7  A    between atoms: C_16  and  C_17
REMARK    8  A    between atoms: C_26  and  O_27
REMARK    9  A    between atoms: O_27  and  C_28
REMARK   10  A    between atoms: C_28  and  C_29
REMARK                            x       y       z     vdW  Elec       q    Type
REMARK                         _______ _______ _______ _____ _____    ______ ____
ROOT
ATOM      1  C   UNL     1       3.847  -8.419   4.544  0.00  0.00    -0.015 A 
ATOM      2  C   UNL     1       3.897  -9.568   3.739  0.00  0.00    -0.013 A 
ATOM      3  C   UNL     1       3.173  -9.648   2.536  0.00  0.00    +0.009 A 
ATOM      4  C   UNL     1       3.245 -10.777   1.780  0.00  0.00    +0.001 A 
ATOM      5  C   UNL     1       4.027 -11.859   2.180  0.00  0.00    +0.001 A 
ATOM      6  C   UNL     1       4.742 -11.818   3.337  0.00  0.00    +0.008 A 
ATOM      7  C   UNL     1       4.693 -10.669   4.144  0.00  0.00    -0.017 A 
ATOM      8  C   UNL     1       5.418 -10.591   5.346  0.00  0.00    +0.012 A 
ATOM      9  C   UNL     1       5.349  -9.464   6.104  0.00  0.00    +0.046 A 
ATOM     10  C   UNL     1       4.568  -8.375   5.703  0.00  0.00    +0.123 A 
ENDROOT
BRANCH   1  11
ATOM     11  C   UNL     1       3.007  -7.238   4.129  0.00  0.00    -0.042 C 
BRANCH  11  12
ATOM     12  N   UNL     1       3.813  -6.330   3.303  0.00  0.00    +0.382 N 
ATOM     13  H   UNL     1       4.135  -6.819   2.481  0.00  0.00    -0.085 HD
ATOM     14  H   UNL     1       4.608  -6.007   3.835  0.00  0.00    -0.085 HD
BRANCH  12  15
ATOM     15  C   UNL     1       2.995  -5.179   2.898  0.00  0.00    -0.071 C 
BRANCH  15  16
ATOM     16  C   UNL     1       3.835  -4.234   2.038  0.00  0.00    +0.058 C 
BRANCH  16  17
ATOM     17  S   UNL     1       2.824  -2.812   1.538  0.00  0.00    -0.086 S 
BRANCH  17  19
ATOM     18  N   UNL     1       3.624  -0.652  -0.037  0.00  0.00    -0.187 N 
ATOM     19  C   UNL     1       3.918  -1.831   0.567  0.00  0.00    +0.214 A 
ATOM     20  N   UNL     1       5.176  -2.102   0.291  0.00  0.00    -0.101 NA
ATOM     21  N   UNL     1       5.685  -1.178  -0.441  0.00  0.00    -0.022 NA
ATOM     22  N   UNL     1       4.809  -0.266  -0.689  0.00  0.00    -0.038 NA
BRANCH  18  26
ATOM     23  C   UNL     1      -0.017   1.379   0.010  0.00  0.00    +0.000 A 
ATOM     24  C   UNL     1       1.170   2.089   0.002  0.00  0.00    +0.002 A 
ATOM     25  C   UNL     1       2.377   1.419  -0.013  0.00  0.00    +0.028 A 
ATOM     26  C   UNL     1       2.399   0.031  -0.021  0.00  0.00    +0.070 A 
ATOM     27  C   UNL     1       1.207  -0.680  -0.013  0.00  0.00    +0.028 A 
ATOM     28  C   UNL     1       0.002  -0.004   0.002  0.00  0.00    +0.002 A 
ENDBRANCH  18  26
ENDBRANCH  17  19
ENDBRANCH  16  17
ENDBRANCH  15  16
ENDBRANCH  12  15
ENDBRANCH  11  12
ENDBRANCH   1  11
BRANCH  10  29
ATOM     29  O   UNL     1       4.524  -7.260   6.479  0.00  0.00    -0.487 OA
BRANCH  29  30
ATOM     30  C   UNL     1       5.299  -7.274   7.679  0.00  0.00    +0.268 C 
BRANCH  30  31
ATOM     31  C   UNL     1       5.126  -5.963   8.403  0.00  0.00    +0.043 A 
ATOM     32  C   UNL     1       5.978  -4.905   8.134  0.00  0.00    +0.131 A 
ATOM     33  C   UNL     1       5.818  -3.702   8.800  0.00  0.00    +0.039 A 
ATOM     34  C   UNL     1       4.809  -3.558   9.734  0.00  0.00    +0.004 A 
ATOM     35  C   UNL     1       3.959  -4.614  10.003  0.00  0.00    +0.020 A 
ATOM     36  C   UNL     1       4.114  -5.816   9.334  0.00  0.00    +0.050 A 
ATOM     37 CL   UNL     1       3.042  -7.139   9.668  0.00  0.00    -0.083 Cl
ATOM     38  F   UNL     1       6.964  -5.047   7.221  0.00  0.00    -0.205 F 
ENDBRANCH  30  31
ENDBRANCH  29  30
ENDBRANCH  10  29
TORSDOF 10
