REMARK  Name = ZINC36316512
REMARK  19 active torsions:
REMARK  status: ('A' for Active; 'I' for Inactive)
REMARK    1  A    between atoms: C_1  and  C_2
REMARK    2  A    between atoms: C_2  and  C_3
REMARK    3  A    between atoms: C_3  and  N_4
REMARK    4  A    between atoms: N_4  and  C_5
REMARK    5  A    between atoms: N_4  and  C_27
REMARK    6  A    between atoms: C_5  and  C_6
REMARK    7  A    between atoms: C_7  and  C_25
REMARK    8  A    between atoms: N_9  and  C_19
REMARK    9  A    between atoms: C_10  and  O_11
REMARK   10  A    between atoms: O_11  and  C_12
REMARK   11  A    between atoms: C_25  and  C_26
REMARK   12  A    between atoms: C_27  and  C_28
REMARK   13  A    between atoms: C_28  and  C_30
REMARK   14  A    between atoms: C_28  and  O_36
REMARK   15  A    between atoms: C_30  and  O_31
REMARK   16  A    between atoms: O_31  and  C_32
REMARK   17  A    between atoms: C_32  and  C_33
REMARK   18  A    between atoms: C_32  and  C_34
REMARK   19  A    between atoms: C_32  and  C_35
REMARK                            x       y       z     vdW  Elec       q    Type
REMARK                         _______ _______ _______ _____ _____    ______ ____
ROOT
ATOM      1  C   UNL     1       0.919  -2.726   1.194  0.00  0.00    +0.021 A 
ATOM      2  C   UNL     1       2.052  -2.965   0.411  0.00  0.00    +0.068 A 
ATOM      3  N   UNL     1       2.976  -2.100   0.744  0.00  0.00    -0.168 NA
ATOM      4  N   UNL     1       2.465  -1.275   1.755  0.00  0.00    -0.200 N 
ATOM      5  C   UNL     1       1.191  -1.675   2.013  0.00  0.00    +0.225 A 
ENDROOT
BRANCH   4   6
ATOM      6  C   UNL     1       3.143  -0.222   2.383  0.00  0.00    +0.069 A 
ATOM      7  C   UNL     1       2.461   0.936   2.730  0.00  0.00    +0.028 A 
ATOM      8  C   UNL     1       3.132   1.972   3.350  0.00  0.00    +0.002 A 
ATOM      9  C   UNL     1       4.482   1.857   3.625  0.00  0.00    +0.000 A 
ATOM     10  C   UNL     1       5.165   0.705   3.280  0.00  0.00    +0.002 A 
ATOM     11  C   UNL     1       4.498  -0.337   2.666  0.00  0.00    +0.028 A 
ENDBRANCH   4   6
BRANCH   2  12
ATOM     12  C   UNL     1       2.188  -4.037  -0.639  0.00  0.00    +0.054 C 
ATOM     13  C   UNL     1       1.737  -3.486  -1.993  0.00  0.00    +0.010 C 
ENDBRANCH   2  12
BRANCH   1  14
ATOM     14  C   UNL     1      -0.377  -3.493   1.135  0.00  0.00    -0.036 C 
BRANCH  14  15
ATOM     15  N   UNL     1      -1.216  -2.955   0.056  0.00  0.00    +0.384 N 
ATOM     16  H   UNL     1      -0.696  -2.959  -0.809  0.00  0.00    -0.081 HD
BRANCH  15  17
ATOM     17  C   UNL     1      -1.611  -1.578   0.383  0.00  0.00    -0.079 C 
BRANCH  17  19
ATOM     18  C   UNL     1      -2.823  -0.146   2.033  0.00  0.00    +0.002 C 
ATOM     19  C   UNL     1      -2.518  -1.586   1.615  0.00  0.00    -0.022 C 
ENDBRANCH  17  19
ENDBRANCH  15  17
BRANCH  15  20
ATOM     20  C   UNL     1      -2.418  -3.787  -0.091  0.00  0.00    -0.044 C 
BRANCH  20  21
ATOM     21  C   UNL     1      -3.203  -3.335  -1.324  0.00  0.00    +0.124 C 
BRANCH  21  22
ATOM     22  O   UNL     1      -3.722  -2.022  -1.103  0.00  0.00    -0.391 OA
ATOM     23  H   UNL     1      -4.319  -1.957  -0.345  0.00  0.00    +0.210 HD
ENDBRANCH  21  22
BRANCH  21  24
ATOM     24  C   UNL     1      -4.360  -4.305  -1.576  0.00  0.00    +0.189 C 
BRANCH  24  25
ATOM     25  O   UNL     1      -5.022  -3.951  -2.791  0.00  0.00    -0.372 OA
BRANCH  25  26
ATOM     26  C   UNL     1      -6.124  -4.799  -3.121  0.00  0.00    +0.061 C 
ATOM     27  C   UNL     1      -7.167  -4.737  -2.004  0.00  0.00    +0.041 C 
ATOM     28  C   UNL     1      -6.754  -4.329  -4.434  0.00  0.00    +0.041 C 
ATOM     29  C   UNL     1      -5.630  -6.239  -3.279  0.00  0.00    +0.041 C 
ENDBRANCH  25  26
ENDBRANCH  24  25
ENDBRANCH  21  24
ENDBRANCH  20  21
ENDBRANCH  15  20
ENDBRANCH  14  15
ENDBRANCH   1  14
BRANCH   5  30
ATOM     30  O   UNL     1       0.347  -1.129   2.924  0.00  0.00    -0.438 OA
BRANCH  30  31
ATOM     31  C   UNL     1       0.447  -1.542   4.215  0.00  0.00    +0.131 A 
ATOM     32  C   UNL     1       1.460  -2.413   4.589  0.00  0.00    +0.049 A 
ATOM     33  C   UNL     1       1.560  -2.832   5.902  0.00  0.00    +0.042 A 
ATOM     34  C   UNL     1       0.651  -2.383   6.844  0.00  0.00    +0.124 A 
ATOM     35  C   UNL     1      -0.361  -1.514   6.473  0.00  0.00    +0.042 A 
ATOM     36  C   UNL     1      -0.461  -1.089   5.162  0.00  0.00    +0.049 A 
ATOM     37  F   UNL     1       0.750  -2.793   8.127  0.00  0.00    -0.205 F 
ENDBRANCH  30  31
ENDBRANCH   5  30
TORSDOF 14
