REMARK  Name = ZINC01689114
REMARK  6 active torsions:
REMARK  status: ('A' for Active; 'I' for Inactive)
REMARK    1  A    between atoms: C_1  and  C_2
REMARK    2  A    between atoms: C_2  and  C_16
REMARK    3  A    between atoms: C_3  and  C_13
REMARK    4  A    between atoms: C_8  and  C_10
REMARK    5  A    between atoms: C_10  and  C_11
REMARK    6  A    between atoms: C_13  and  C_14
REMARK                            x       y       z     vdW  Elec       q    Type
REMARK                         _______ _______ _______ _____ _____    ______ ____
ROOT
ATOM      1  C   UNL     1      -1.510   5.146   0.044  0.00  0.00    +0.011 C 
ATOM      2  C   UNL     1      -1.490   3.616   0.036  0.00  0.00    -0.028 C 
ATOM      3  C   UNL     1      -0.773   3.123  -1.223  0.00  0.00    +0.006 C 
ATOM      4  C   UNL     1      -0.753   1.593  -1.232  0.00  0.00    +0.004 C 
ATOM      5  C   UNL     1      -0.013   1.086   0.008  0.00  0.00    +0.001 C 
ATOM      6  C   UNL     1      -0.729   1.579   1.267  0.00  0.00    +0.004 C 
ATOM      7  C   UNL     1      -0.750   3.109   1.275  0.00  0.00    +0.006 C 
ATOM      8  C   UNL     1      -2.925   3.086   0.047  0.00  0.00    +0.011 C 
ENDROOT
BRANCH   7   9
ATOM      9  C   UNL     1       0.686   3.639   1.264  0.00  0.00    +0.129 C 
BRANCH   9  10
ATOM     10  C   UNL     1       1.377   3.242   2.543  0.00  0.00    +0.356 C 
ATOM     11  O   UNL     1       0.783   2.602   3.378  0.00  0.00    -0.246 OA
ATOM     12  O   UNL     1       2.653   3.601   2.756  0.00  0.00    -0.246 OA
ENDBRANCH   9  10
ENDBRANCH   7   9
BRANCH   3  13
ATOM     13  C   UNL     1      -1.513   3.629  -2.463  0.00  0.00    +0.129 C 
BRANCH  13  14
ATOM     14  C   UNL     1      -0.742   3.248  -3.700  0.00  0.00    +0.356 C 
ATOM     15  O   UNL     1       0.294   2.634  -3.600  0.00  0.00    -0.246 OA
ATOM     16  O   UNL     1      -1.205   3.591  -4.912  0.00  0.00    -0.246 OA
ENDBRANCH  13  14
ENDBRANCH   3  13
TORSDOF 4
