REMARK  Name = ZINC22644848
REMARK  8 active torsions:
REMARK  status: ('A' for Active; 'I' for Inactive)
REMARK    1  A    between atoms: C_1  and  C_2
REMARK    2  A    between atoms: C_11  and  N_31
REMARK    3  A    between atoms: C_13  and  S_15
REMARK    4  A    between atoms: S_15  and  C_16
REMARK    5  A    between atoms: C_16  and  C_18
REMARK    6  A    between atoms: C_16  and  C_19
REMARK    7  A    between atoms: N_21  and  C_22
REMARK    8  A    between atoms: N_21  and  C_23
REMARK                            x       y       z     vdW  Elec       q    Type
REMARK                         _______ _______ _______ _____ _____    ______ ____
ROOT
ATOM      1  C   UNL     1       1.534 -13.639   5.048  0.00  0.00    +0.008 C 
ATOM      2  C   UNL     1       1.558 -12.265   4.375  0.00  0.00    -0.009 C 
ATOM      3  C   UNL     1       2.573 -11.364   5.084  0.00  0.00    +0.008 C 
ATOM      4  C   UNL     1       2.429  -9.926   4.584  0.00  0.00    +0.037 C 
ATOM      5  C   UNL     1       2.497  -9.925   3.060  0.00  0.00    -0.025 A 
ATOM      6  C   UNL     1       2.290 -11.058   2.360  0.00  0.00    -0.004 A 
ATOM      7  S   UNL     1       2.466 -10.590   0.659  0.00  0.00    -0.073 S 
ATOM      8  C   UNL     1       2.819  -8.867   0.890  0.00  0.00    +0.115 A 
ATOM      9  C   UNL     1       2.788  -8.712   2.290  0.00  0.00    +0.051 A 
ATOM     10  C   UNL     1       3.045  -7.396   2.767  0.00  0.00    +0.129 A 
ATOM     11  N   UNL     1       3.288  -6.430   1.898  0.00  0.00    -0.207 NA
ATOM     12  C   UNL     1       3.301  -6.645   0.588  0.00  0.00    +0.192 A 
ATOM     13  N   UNL     1       3.064  -7.850   0.087  0.00  0.00    -0.214 NA
ATOM     14  C   UNL     1       1.977 -12.418   2.906  0.00  0.00    +0.046 C 
ENDROOT
BRANCH  10  15
ATOM     15  N   UNL     1       3.041  -7.132   4.125  0.00  0.00    -0.343 N 
ATOM     16  H   UNL     1       3.240  -6.112   4.487  0.00  0.00    +0.144 HD
ATOM     17  H   UNL     1       2.838  -7.940   4.842  0.00  0.00    +0.144 HD
ENDBRANCH  10  15
BRANCH  12  18
ATOM     18  S   UNL     1       3.632  -5.304  -0.505  0.00  0.00    -0.073 S 
BRANCH  18  19
ATOM     19  C   UNL     1       3.860  -3.969   0.695  0.00  0.00    +0.137 C 
ATOM     20  C   UNL     1       5.099  -4.254   1.546  0.00  0.00    +0.029 C 
BRANCH  19  21
ATOM     21  C   UNL     1       4.041  -2.663  -0.035  0.00  0.00    +0.229 C 
ATOM     22  O   UNL     1       4.379  -2.661  -1.199  0.00  0.00    -0.274 OA
ATOM     23  N   UNL     1       3.827  -1.497   0.607  0.00  0.00    -0.299 N 
ATOM     24  C   UNL     1       3.418  -1.499   2.014  0.00  0.00    +0.132 C 
BRANCH  23  25
ATOM     25  C   UNL     1       4.003  -0.227  -0.102  0.00  0.00    +0.098 C 
ATOM     26  C   UNL     1       5.095   0.600   0.597  0.00  0.00    +0.046 C 
ATOM     27  C   UNL     1       5.044   2.047   0.030  0.00  0.00    +0.168 C 
ATOM     28  S   UNL     1       3.222   2.306  -0.070  0.00  0.00    -0.029 S 
ATOM     29  O   UNL     1       2.909   2.911  -1.317  0.00  0.00    -0.174 OA
ATOM     30  O   UNL     1       2.775   2.913   1.135  0.00  0.00    -0.174 OA
ATOM     31  C   UNL     1       2.667   0.553  -0.098  0.00  0.00    +0.188 C 
ENDBRANCH  23  25
ENDBRANCH  19  21
ENDBRANCH  18  19
ENDBRANCH  12  18
TORSDOF 5
