REMARK  Name = ZINC11247229
REMARK  5 active torsions:
REMARK  status: ('A' for Active; 'I' for Inactive)
REMARK    1  A    between atoms: C_1  and  C_2
REMARK    2  A    between atoms: C_5  and  C_8
REMARK    3  A    between atoms: N_15  and  C_18
REMARK    4  A    between atoms: C_18  and  C_19
REMARK    5  A    between atoms: N_21  and  N_22
REMARK                            x       y       z     vdW  Elec       q    Type
REMARK                         _______ _______ _______ _____ _____    ______ ____
ROOT
ATOM      1  C   UNL     1      -2.446   0.951   0.019  0.00  0.00    +0.223 C 
ENDROOT
BRANCH   1   9
ATOM      2  C   UNL     1       0.146   5.267   0.028  0.00  0.00    +0.004 A 
ATOM      3  C   UNL     1       1.410   5.755   0.018  0.00  0.00    +0.056 A 
ATOM      4  S   UNL     1       2.420   4.286   0.001  0.00  0.00    -0.076 S 
ATOM      5  C   UNL     1       1.135   3.063   0.007  0.00  0.00    +0.116 A 
ATOM      6  C   UNL     1      -0.047   3.822   0.022  0.00  0.00    +0.080 A 
ATOM      7  C   UNL     1      -1.266   3.071   0.030  0.00  0.00    +0.263 A 
ATOM      8  O   UNL     1      -2.344   3.641   0.043  0.00  0.00    -0.267 OA
ATOM      9  N   UNL     1      -1.204   1.727   0.017  0.00  0.00    -0.290 N 
ATOM     10  C   UNL     1      -0.013   1.076   0.008  0.00  0.00    +0.203 A 
ATOM     11  N   UNL     1       1.116   1.733   0.001  0.00  0.00    -0.230 NA
BRANCH   2  16
ATOM     12  C   UNL     1      -4.374   8.834   0.088  0.00  0.00    +0.044 C 
ATOM     13  C   UNL     1      -3.191   7.900   0.072  0.00  0.00    -0.050 A 
ATOM     14  C   UNL     1      -2.165   8.073   0.984  0.00  0.00    +0.004 A 
ATOM     15  C   UNL     1      -1.079   7.222   0.974  0.00  0.00    +0.009 A 
ATOM     16  C   UNL     1      -1.018   6.185   0.044  0.00  0.00    -0.017 A 
ATOM     17  C   UNL     1      -2.053   6.018  -0.875  0.00  0.00    +0.009 A 
ATOM     18  C   UNL     1      -3.136   6.873  -0.853  0.00  0.00    +0.004 A 
ENDBRANCH   2  16
ENDBRANCH   1   9
BRANCH   1  19
ATOM     19  C   UNL     1      -2.865   0.677   1.441  0.00  0.00    +0.250 C 
ATOM     20  O   UNL     1      -2.192   1.090   2.362  0.00  0.00    -0.272 OA
ATOM     21  N   UNL     1      -3.988  -0.026   1.689  0.00  0.00    -0.222 N 
ATOM     22  H   UNL     1      -4.526  -0.356   0.953  0.00  0.00    +0.174 HD
BRANCH  21  23
ATOM     23  N   UNL     1      -4.378  -0.280   3.011  0.00  0.00    -0.137 N 
ATOM     24  C   UNL     1      -5.391   0.353   3.638  0.00  0.00    +0.263 C 
ATOM     25  O   UNL     1      -6.110   1.216   3.183  0.00  0.00    -0.271 OA
ATOM     26  C   UNL     1      -5.440  -0.242   5.027  0.00  0.00    +0.114 C 
ATOM     27  C   UNL     1      -6.784  -0.922   5.266  0.00  0.00    +0.035 C 
ATOM     28  C   UNL     1      -6.803  -1.541   6.666  0.00  0.00    +0.003 C 
ATOM     29  C   UNL     1      -6.574  -0.446   7.710  0.00  0.00    +0.000 C 
ATOM     30  C   UNL     1      -5.212   0.210   7.471  0.00  0.00    +0.003 C 
ATOM     31  C   UNL     1      -5.186   0.836   6.075  0.00  0.00    +0.035 C 
ATOM     32  N   UNL     1      -4.355  -1.230   5.030  0.00  0.00    -0.284 N 
ATOM     33  C   UNL     1      -3.794  -1.185   3.806  0.00  0.00    +0.326 C 
ATOM     34  O   UNL     1      -2.861  -1.885   3.464  0.00  0.00    -0.251 OA
ATOM     35  H   UNL     1      -4.095  -1.806   5.767  0.00  0.00    +0.151 HD
ENDBRANCH  21  23
ENDBRANCH   1  19
TORSDOF 4
