REMARK  Name = ZINC63552570
REMARK  9 active torsions:
REMARK  status: ('A' for Active; 'I' for Inactive)
REMARK    1  A    between atoms: C_1  and  C_2
REMARK    2  A    between atoms: C_2  and  N_3
REMARK    3  A    between atoms: C_6  and  C_9
REMARK    4  A    between atoms: C_9  and  N_10
REMARK    5  A    between atoms: N_10  and  C_11
REMARK    6  A    between atoms: N_10  and  S_22
REMARK    7  A    between atoms: C_11  and  C_12
REMARK    8  A    between atoms: C_12  and  C_13
REMARK    9  A    between atoms: S_22  and  C_25
REMARK                            x       y       z     vdW  Elec       q    Type
REMARK                         _______ _______ _______ _____ _____    ______ ____
ROOT
ATOM      1  N   UNL     1      -0.282  -2.931   4.312  0.00  0.00    -0.174 NA
ENDROOT
BRANCH   1   2
ATOM      2  S   UNL     1      -0.399  -2.882   5.963  0.00  0.00    +0.067 S 
ATOM      3  O   UNL     1      -1.479  -3.734   6.319  0.00  0.00    -0.152 OA
ATOM      4  O   UNL     1       0.915  -3.066   6.469  0.00  0.00    -0.152 OA
BRANCH   2   5
ATOM      5  C   UNL     1      -0.884  -1.245   6.402  0.00  0.00    +0.144 A 
ATOM      6  C   UNL     1      -2.131  -0.737   6.556  0.00  0.00    +0.037 A 
ATOM      7  C   UNL     1      -2.274   0.592   6.909  0.00  0.00    +0.025 A 
ATOM      8  C   UNL     1      -1.162   1.348   7.090  0.00  0.00    +0.057 A 
ATOM      9  S   UNL     1       0.141   0.171   6.766  0.00  0.00    -0.062 S 
ATOM     10 BR   UNL     1      -1.027   3.172   7.568  0.00  0.00    -0.043 Br
ENDBRANCH   2   5
ENDBRANCH   1   2
BRANCH   1  11
ATOM     11  C   UNL     1       1.019  -2.745   3.664  0.00  0.00    +0.134 C 
BRANCH  11  15
ATOM     12  N   UNL     1       0.711  -0.489   1.189  0.00  0.00    -0.274 N 
ATOM     13  C   UNL     1       2.081  -0.633   1.276  0.00  0.00    +0.085 C 
ATOM     14  C   UNL     1       2.450  -1.088   2.457  0.00  0.00    +0.011 C 
ATOM     15  C   UNL     1       1.186  -1.277   3.267  0.00  0.00    +0.112 C 
ATOM     16  N   UNL     1       0.103  -0.854   2.356  0.00  0.00    -0.233 NA
ATOM     17  H   UNL     1      -0.421  -0.086   2.747  0.00  0.00    +0.145 HD
BRANCH  12  19
ATOM     18  C   UNL     1      -0.019   1.526   0.010  0.00  0.00    +0.026 C 
ATOM     19  C   UNL     1       0.002  -0.004   0.002  0.00  0.00    +0.120 C 
ENDBRANCH  12  19
ENDBRANCH  11  15
ENDBRANCH   1  11
BRANCH   1  20
ATOM     20  C   UNL     1      -1.479  -3.161   3.499  0.00  0.00    +0.114 C 
BRANCH  20  21
ATOM     21  C   UNL     1      -1.594  -4.651   3.170  0.00  0.00    +0.050 C 
BRANCH  21  22
ATOM     22  C   UNL     1      -2.825  -4.887   2.334  0.00  0.00    -0.040 C 
ATOM     23  C   UNL     1      -2.890  -4.959   0.985  0.00  0.00    -0.001 A 
ATOM     24  C   UNL     1      -1.873  -4.843  -0.067  0.00  0.00    +0.010 A 
ATOM     25  C   UNL     1      -2.251  -4.962  -1.360  0.00  0.00    +0.001 A 
ATOM     26  C   UNL     1      -3.586  -5.194  -1.720  0.00  0.00    +0.002 A 
ATOM     27  C   UNL     1      -4.576  -5.312  -0.810  0.00  0.00    +0.026 A 
ATOM     28  C   UNL     1      -4.293  -5.204   0.579  0.00  0.00    +0.043 A 
ATOM     29  N   UNL     1      -5.064  -5.280   1.636  0.00  0.00    -0.380 N 
ATOM     30  C   UNL     1      -4.237  -5.098   2.834  0.00  0.00    +0.144 C 
ATOM     31  H   UNL     1      -6.022  -5.435   1.628  0.00  0.00    +0.160 HD
ENDBRANCH  21  22
ENDBRANCH  20  21
ENDBRANCH   1  20
TORSDOF 8
