REMARK  Name = ZINC41584599
REMARK  9 active torsions:
REMARK  status: ('A' for Active; 'I' for Inactive)
REMARK    1  A    between atoms: C_1  and  C_2
REMARK    2  A    between atoms: C_4  and  O_39
REMARK    3  A    between atoms: C_5  and  C_25
REMARK    4  A    between atoms: C_11  and  C_12
REMARK    5  A    between atoms: N_14  and  C_23
REMARK    6  A    between atoms: C_18  and  O_21
REMARK    7  A    between atoms: O_21  and  C_22
REMARK    8  A    between atoms: C_25  and  N_26
REMARK    9  A    between atoms: C_31  and  C_33
REMARK                            x       y       z     vdW  Elec       q    Type
REMARK                         _______ _______ _______ _____ _____    ______ ____
ROOT
ATOM      1  C   UNL     1       2.027  -0.020  -0.729  0.00  0.00    +0.045 C 
ATOM      2  C   UNL     1       1.555  -1.435  -0.514  0.00  0.00    -0.033 A 
ATOM      3  C   UNL     1       1.133  -2.185  -1.575  0.00  0.00    +0.050 A 
ATOM      4  C   UNL     1       0.696  -3.493  -1.380  0.00  0.00    +0.122 A 
ATOM      5  C   UNL     1       0.683  -4.049  -0.111  0.00  0.00    +0.020 A 
ATOM      6  C   UNL     1       1.108  -3.300   0.978  0.00  0.00    +0.145 A 
ATOM      7  C   UNL     1       1.553  -1.983   0.768  0.00  0.00    +0.071 A 
ATOM      8  C   UNL     1       1.937  -1.467   2.094  0.00  0.00    +0.232 C 
ATOM      9  O   UNL     1       2.372  -0.359   2.360  0.00  0.00    -0.283 OA
ATOM     10  C   UNL     1       1.692  -2.536   2.995  0.00  0.00    +0.176 C 
ATOM     11  C   UNL     1       1.905  -2.508   4.341  0.00  0.00    +0.060 C 
ATOM     12  O   UNL     1       1.198  -3.585   2.294  0.00  0.00    -0.451 OA
ENDROOT
BRANCH  11  13
ATOM     13  C   UNL     1       1.710  -3.717   5.137  0.00  0.00    +0.004 A 
ATOM     14  C   UNL     1       1.500  -4.995   4.663  0.00  0.00    +0.094 A 
ATOM     15  N   UNL     1       1.364  -5.848   5.707  0.00  0.00    -0.349 N 
ATOM     16  C   UNL     1       1.478  -5.170   6.905  0.00  0.00    +0.050 A 
ATOM     17  C   UNL     1       1.705  -3.817   6.610  0.00  0.00    +0.011 A 
ATOM     18  C   UNL     1       1.866  -2.893   7.638  0.00  0.00    +0.056 A 
ATOM     19  C   UNL     1       1.805  -3.316   8.953  0.00  0.00    +0.121 A 
ATOM     20  C   UNL     1       1.584  -4.658   9.246  0.00  0.00    +0.047 A 
ATOM     21  C   UNL     1       1.415  -5.578   8.234  0.00  0.00    +0.030 A 
ATOM     22  C   UNL     1       1.128  -7.289   5.582  0.00  0.00    +0.149 C 
BRANCH  19  23
ATOM     23  O   UNL     1       1.963  -2.419   9.963  0.00  0.00    -0.495 OA
ATOM     24  C   UNL     1       1.889  -2.924  11.297  0.00  0.00    +0.277 C 
ENDBRANCH  19  23
ENDBRANCH  11  13
BRANCH   4  25
ATOM     25  O   UNL     1       0.280  -4.229  -2.442  0.00  0.00    -0.506 OA
ATOM     26  H   UNL     1       0.983  -4.735  -2.870  0.00  0.00    +0.292 HD
ENDBRANCH   4  25
BRANCH   5  27
ATOM     27  C   UNL     1       0.207  -5.465   0.088  0.00  0.00    -0.035 C 
BRANCH  27  28
ATOM     28  N   UNL     1      -1.259  -5.479   0.185  0.00  0.00    +0.387 N 
ATOM     29  C   UNL     1      -1.675  -4.734   1.380  0.00  0.00    -0.078 C 
ATOM     30  C   UNL     1      -3.203  -4.677   1.443  0.00  0.00    -0.019 C 
ATOM     31  C   UNL     1      -3.760  -6.103   1.508  0.00  0.00    -0.003 C 
ATOM     32  C   UNL     1      -3.258  -6.892   0.296  0.00  0.00    -0.011 C 
ATOM     33  C   UNL     1      -1.728  -6.867   0.275  0.00  0.00    -0.036 C 
ATOM     34  H   UNL     1      -1.654  -5.044  -0.635  0.00  0.00    -0.080 HD
BRANCH  33  35
ATOM     35  C   UNL     1      -1.229  -7.643  -0.916  0.00  0.00    -0.043 A 
ATOM     36  C   UNL     1      -0.636  -8.885  -0.747  0.00  0.00    +0.005 A 
ATOM     37  C   UNL     1      -0.193  -9.563  -1.872  0.00  0.00    +0.020 A 
ATOM     38  C   UNL     1      -0.355  -8.983  -3.116  0.00  0.00    +0.111 A 
ATOM     39  N   UNL     1      -0.923  -7.799  -3.239  0.00  0.00    -0.263 NA
ATOM     40  C   UNL     1      -1.363  -7.129  -2.192  0.00  0.00    +0.112 A 
ENDBRANCH  33  35
ENDBRANCH  27  28
ENDBRANCH   5  27
TORSDOF 6
