REMARK  Name = ZINC28673599
REMARK  12 active torsions:
REMARK  status: ('A' for Active; 'I' for Inactive)
REMARK    1  A    between atoms: C_1  and  C_2
REMARK    2  A    between atoms: C_2  and  O_3
REMARK    3  A    between atoms: O_3  and  C_4
REMARK    4  A    between atoms: C_11  and  C_18
REMARK    5  A    between atoms: C_13  and  O_14
REMARK    6  A    between atoms: C_18  and  O_19
REMARK    7  A    between atoms: O_19  and  C_20
REMARK    8  A    between atoms: C_20  and  C_22
REMARK    9  A    between atoms: C_22  and  O_23
REMARK   10  A    between atoms: O_23  and  C_24
REMARK   11  A    between atoms: C_27  and  C_31
REMARK   12  A    between atoms: C_28  and  C_30
REMARK                            x       y       z     vdW  Elec       q    Type
REMARK                         _______ _______ _______ _____ _____    ______ ____
ROOT
ATOM      1  C   UNL     1     -14.522   5.551   0.660  0.00  0.00    +0.405 C 
ATOM      2  O   UNL     1     -14.411   4.458   1.181  0.00  0.00    -0.226 OA
ATOM      3  N   UNL     1     -13.436   6.172   0.160  0.00  0.00    -0.251 N 
ATOM      4  C   UNL     1     -12.205   5.516   0.139  0.00  0.00    +0.040 A 
ATOM      5  C   UNL     1     -11.029   6.246   0.315  0.00  0.00    +0.024 A 
ATOM      6  C   UNL     1      -9.817   5.619   0.297  0.00  0.00    +0.014 A 
ATOM      7  C   UNL     1      -9.754   4.233   0.107  0.00  0.00    +0.024 A 
ATOM      8  C   UNL     1      -8.467   3.535   0.077  0.00  0.00    +0.007 A 
ATOM      9  C   UNL     1      -8.470   2.191  -0.116  0.00  0.00    +0.095 A 
ATOM     10  C   UNL     1      -9.693   1.510  -0.287  0.00  0.00    +0.285 A 
ATOM     11  O   UNL     1     -10.869   2.156  -0.264  0.00  0.00    -0.425 OA
ATOM     12  C   UNL     1     -10.936   3.492  -0.076  0.00  0.00    +0.141 A 
ATOM     13  C   UNL     1     -12.159   4.144  -0.055  0.00  0.00    +0.070 A 
ATOM     14  H   UNL     1     -13.520   7.196  -0.233  0.00  0.00    +0.158 HD
ENDROOT
BRANCH  10  15
ATOM     15  O   UNL     1      -9.682   0.304  -0.459  0.00  0.00    -0.480 OA
ATOM     16  H   UNL     1     -10.628  -0.241  -0.594  0.00  0.00    +0.295 HD
ENDBRANCH  10  15
BRANCH   1  17
ATOM     17  O   UNL     1     -15.730   6.140   0.583  0.00  0.00    -0.450 OA
BRANCH  17  19
ATOM     18  C   UNL     1     -18.134   6.234   0.963  0.00  0.00    +0.048 C 
ATOM     19  C   UNL     1     -16.855   5.413   1.143  0.00  0.00    +0.230 C 
ENDBRANCH  17  19
ENDBRANCH   1  17
BRANCH   8  20
ATOM     20  C   UNL     1      -7.174   4.287   0.263  0.00  0.00    +0.268 C 
BRANCH  20  21
ATOM     21  O   UNL     1      -6.060   3.358   0.195  0.00  0.00    -0.457 OA
BRANCH  21  22
ATOM     22  C   UNL     1      -4.829   3.872   0.343  0.00  0.00    +0.345 C 
ATOM     23  O   UNL     1      -4.686   5.058   0.522  0.00  0.00    -0.247 OA
BRANCH  22  24
ATOM     24  C   UNL     1      -3.624   2.969   0.284  0.00  0.00    +0.349 C 
BRANCH  24  25
ATOM     25  O   UNL     1      -2.438   3.745   0.467  0.00  0.00    -0.481 OA
BRANCH  25  26
ATOM     26  C   UNL     1      -1.254   3.078   0.441  0.00  0.00    +0.122 A 
ATOM     27  C   UNL     1      -1.234   1.705   0.239  0.00  0.00    +0.046 A 
ATOM     28  C   UNL     1      -0.030   1.029   0.218  0.00  0.00    +0.007 A 
ATOM     29  C   UNL     1       1.156   1.720   0.389  0.00  0.00    -0.047 A 
ATOM     30  C   UNL     1       1.139   3.088   0.585  0.00  0.00    -0.044 A 
ATOM     31  C   UNL     1      -0.063   3.769   0.612  0.00  0.00    +0.049 A 
ATOM     32  C   UNL     1       2.433   3.838   0.770  0.00  0.00    +0.044 C 
ATOM     33  C   UNL     1       2.469   0.980   0.361  0.00  0.00    +0.044 C 
ENDBRANCH  25  26
ENDBRANCH  24  25
ENDBRANCH  22  24
ENDBRANCH  21  22
ENDBRANCH  20  21
ENDBRANCH   8  20
TORSDOF 9
