REMARK  Name = ZINC40661704
REMARK  11 active torsions:
REMARK  status: ('A' for Active; 'I' for Inactive)
REMARK    1  A    between atoms: C_1  and  C_2
REMARK    2  A    between atoms: C_2  and  N_3
REMARK    3  A    between atoms: N_3  and  C_4
REMARK    4  A    between atoms: C_8  and  C_10
REMARK    5  A    between atoms: C_12  and  N_37
REMARK    6  A    between atoms: C_13  and  N_17
REMARK    7  A    between atoms: N_17  and  C_18
REMARK    8  A    between atoms: C_21  and  C_25
REMARK    9  A    between atoms: C_23  and  C_24
REMARK   10  A    between atoms: C_25  and  C_27
REMARK   11  A    between atoms: C_25  and  C_29
REMARK                            x       y       z     vdW  Elec       q    Type
REMARK                         _______ _______ _______ _____ _____    ______ ____
ROOT
ATOM      1  N   UNL     1       1.029  -0.018  -1.662  0.00  0.00    -0.284 N 
ATOM      2  C   UNL     1       0.180  -0.329  -2.718  0.00  0.00    +0.151 A 
ATOM      3  C   UNL     1      -1.159   0.066  -2.691  0.00  0.00    +0.104 A 
ATOM      4  C   UNL     1      -1.968  -0.272  -3.777  0.00  0.00    +0.126 A 
ATOM      5  N   UNL     1      -1.437  -0.953  -4.790  0.00  0.00    -0.333 N 
ATOM      6  C   UNL     1      -0.168  -1.307  -4.775  0.00  0.00    +0.200 A 
ATOM      7  N   UNL     1       0.632  -1.003  -3.773  0.00  0.00    -0.220 NA
ATOM      8  H   UNL     1      -1.991  -1.192  -5.548  0.00  0.00    +0.168 HD
ENDROOT
BRANCH   1   9
ATOM      9  C   UNL     1       1.228  -0.940  -0.631  0.00  0.00    +0.035 A 
ATOM     10  C   UNL     1       1.994  -0.593   0.476  0.00  0.00    +0.023 A 
ATOM     11  C   UNL     1       2.188  -1.506   1.493  0.00  0.00    +0.002 A 
ATOM     12  C   UNL     1       1.623  -2.766   1.411  0.00  0.00    +0.003 A 
ATOM     13  C   UNL     1       0.861  -3.115   0.311  0.00  0.00    -0.049 A 
ATOM     14  C   UNL     1       0.657  -2.204  -0.707  0.00  0.00    +0.026 A 
ATOM     15  C   UNL     1       0.247  -4.489   0.226  0.00  0.00    +0.044 C 
ENDBRANCH   1   9
BRANCH   3  16
ATOM     16  N   UNL     1      -1.678   0.783  -1.601  0.00  0.00    -0.353 N 
ATOM     17  H   UNL     1      -1.126   0.943  -0.819  0.00  0.00    +0.143 HD
ATOM     18  H   UNL     1      -2.587   1.119  -1.630  0.00  0.00    +0.143 HD
ENDBRANCH   3  16
BRANCH   1  20
ATOM     19  C   UNL     1       3.124   1.121  -2.206  0.00  0.00    +0.025 C 
ATOM     20  C   UNL     1       1.715   1.276  -1.630  0.00  0.00    +0.109 C 
ENDBRANCH   1  20
BRANCH   4  21
ATOM     21  N   UNL     1      -3.309   0.097  -3.801  0.00  0.00    -0.299 N 
ATOM     22  H   UNL     1      -3.669   0.662  -3.099  0.00  0.00    +0.154 HD
BRANCH  21  23
ATOM     23  C   UNL     1      -4.138  -0.348  -4.834  0.00  0.00    +0.037 A 
ATOM     24  C   UNL     1      -4.516   0.525  -5.847  0.00  0.00    +0.043 A 
ATOM     25  C   UNL     1      -5.335   0.082  -6.868  0.00  0.00    +0.047 A 
ATOM     26  C   UNL     1      -5.778  -1.230  -6.882  0.00  0.00    -0.008 A 
ATOM     27  C   UNL     1      -5.403  -2.100  -5.875  0.00  0.00    +0.011 A 
ATOM     28  C   UNL     1      -4.580  -1.664  -4.855  0.00  0.00    -0.029 A 
ATOM     29  C   UNL     1      -4.168  -2.615  -3.761  0.00  0.00    +0.045 C 
ATOM     30 CL   UNL     1      -5.809   1.171  -8.134  0.00  0.00    -0.083 Cl
BRANCH  26  31
ATOM     31  C   UNL     1      -6.671  -1.710  -7.996  0.00  0.00    +0.153 C 
BRANCH  31  32
ATOM     32  C   UNL     1      -5.940  -2.740  -8.818  0.00  0.00    -0.026 A 
ATOM     33  C   UNL     1      -5.712  -4.001  -8.301  0.00  0.00    +0.006 A 
ATOM     34  C   UNL     1      -5.042  -4.946  -9.055  0.00  0.00    +0.020 A 
ATOM     35  C   UNL     1      -4.598  -4.629 -10.326  0.00  0.00    +0.041 A 
ATOM     36  C   UNL     1      -4.827  -3.366 -10.843  0.00  0.00    +0.020 A 
ATOM     37  C   UNL     1      -5.503  -2.424 -10.091  0.00  0.00    +0.006 A 
ATOM     38 CL   UNL     1      -3.756  -5.816 -11.273  0.00  0.00    -0.084 Cl
ENDBRANCH  31  32
BRANCH  31  39
ATOM     39  C   UNL     1      -7.888  -2.311  -7.426  0.00  0.00    +0.075 C 
ATOM     40  N   UNL     1      -8.827  -2.775  -6.985  0.00  0.00    -0.196 NA
ENDBRANCH  31  39
ENDBRANCH  26  31
ENDBRANCH  21  23
ENDBRANCH   4  21
TORSDOF 8
