REMARK  Name = ZINC08410818
REMARK  6 active torsions:
REMARK  status: ('A' for Active; 'I' for Inactive)
REMARK    1  A    between atoms: C_4  and  N_7
REMARK    2  A    between atoms: C_9  and  C_22
REMARK    3  A    between atoms: C_10  and  C_12
REMARK    4  A    between atoms: C_25  and  C_36
REMARK    5  A    between atoms: C_31  and  N_35
REMARK    6  A    between atoms: C_32  and  C_33
REMARK                            x       y       z     vdW  Elec       q    Type
REMARK                         _______ _______ _______ _____ _____    ______ ____
ROOT
ATOM      1  N   UNL     1       3.606  -0.649   0.066  0.00  0.00    -0.239 N 
ATOM      2  C   UNL     1       3.782  -1.963  -0.198  0.00  0.00    +0.119 A 
ATOM      3  C   UNL     1       5.111  -2.181  -0.333  0.00  0.00    +0.007 A 
ATOM      4  C   UNL     1       5.769  -0.961  -0.146  0.00  0.00    +0.074 A 
ATOM      5  N   UNL     1       4.868  -0.041   0.088  0.00  0.00    -0.171 NA
ENDROOT
BRANCH   4   6
ATOM      6  C   UNL     1       7.258  -0.742  -0.209  0.00  0.00    +0.016 C 
ATOM      7  C   UNL     1       7.931  -1.479   0.951  0.00  0.00    +0.016 C 
ATOM      8  C   UNL     1       9.444  -1.257   0.888  0.00  0.00    -0.010 C 
ATOM      9  C   UNL     1       9.744   0.240   0.991  0.00  0.00    +0.007 C 
ATOM     10  C   UNL     1       9.072   0.976  -0.169  0.00  0.00    -0.010 C 
ATOM     11  C   UNL     1       7.559   0.754  -0.105  0.00  0.00    +0.016 C 
ATOM     12  C   UNL     1       9.611   0.438  -1.496  0.00  0.00    +0.007 C 
ATOM     13  C   UNL     1       9.310  -1.058  -1.599  0.00  0.00    -0.010 C 
ATOM     14  C   UNL     1       9.983  -1.795  -0.439  0.00  0.00    +0.007 C 
ATOM     15  C   UNL     1       7.798  -1.280  -1.536  0.00  0.00    +0.016 C 
ENDBRANCH   4   6
BRANCH   3  16
ATOM     16  C   UNL     1       5.766  -3.505  -0.632  0.00  0.00    +0.105 C 
ATOM     17  C   UNL     1       7.007  -3.659   0.208  0.00  0.00    +0.055 A 
ATOM     18  C   UNL     1       7.122  -3.902   1.581  0.00  0.00    +0.107 A 
ATOM     19  N   UNL     1       8.408  -3.960   1.877  0.00  0.00    -0.170 NA
ATOM     20  N   UNL     1       9.141  -3.755   0.698  0.00  0.00    -0.246 N 
ATOM     21  H   UNL     1      10.108  -3.745   0.622  0.00  0.00    +0.192 HD
ATOM     22  C   UNL     1       8.265  -3.574  -0.313  0.00  0.00    +0.223 A 
ATOM     23  O   UNL     1       8.499  -3.346  -1.629  0.00  0.00    -0.423 OA
ATOM     24  C   UNL     1       7.460  -3.474  -2.480  0.00  0.00    +0.200 C 
ATOM     25  C   UNL     1       6.169  -3.556  -2.085  0.00  0.00    +0.098 C 
BRANCH  18  26
ATOM     26  C   UNL     1       6.002  -4.066   2.534  0.00  0.00    +0.040 A 
ATOM     27  C   UNL     1       5.949  -4.805   3.684  0.00  0.00    +0.018 A 
ATOM     28  C   UNL     1       4.783  -4.805   4.419  0.00  0.00    +0.008 A 
ATOM     29  C   UNL     1       3.725  -4.076   3.981  0.00  0.00    +0.046 A 
ATOM     30  S   UNL     1       4.369  -3.345   2.485  0.00  0.00    -0.095 S 
ENDBRANCH  18  26
BRANCH  24  31
ATOM     31  N   UNL     1       7.729  -3.524  -3.825  0.00  0.00    -0.328 N 
ATOM     32  H   UNL     1       8.645  -3.468  -4.139  0.00  0.00    +0.145 HD
ATOM     33  H   UNL     1       7.002  -3.616  -4.461  0.00  0.00    +0.145 HD
ENDBRANCH  24  31
BRANCH  25  34
ATOM     34  C   UNL     1       5.149  -3.697  -3.080  0.00  0.00    +0.101 C 
ATOM     35  N   UNL     1       4.340  -3.808  -3.869  0.00  0.00    -0.191 NA
ENDBRANCH  25  34
ENDBRANCH   3  16
BRANCH   1  39
ATOM     36  C   UNL     1      -0.048   1.261   0.687  0.00  0.00    +0.000 A 
ATOM     37  C   UNL     1       1.128   1.987   0.738  0.00  0.00    +0.002 A 
ATOM     38  C   UNL     1       2.340   1.357   0.533  0.00  0.00    +0.028 A 
ATOM     39  C   UNL     1       2.377  -0.007   0.275  0.00  0.00    +0.065 A 
ATOM     40  C   UNL     1       1.195  -0.733   0.225  0.00  0.00    +0.028 A 
ATOM     41  C   UNL     1      -0.014  -0.098   0.430  0.00  0.00    +0.002 A 
ENDBRANCH   1  39
TORSDOF 6
