REMARK  Name = ZINC11790766
REMARK  13 active torsions:
REMARK  status: ('A' for Active; 'I' for Inactive)
REMARK    1  A    between atoms: C_1  and  C_2
REMARK    2  A    between atoms: C_2  and  C_3
REMARK    3  A    between atoms: C_3  and  C_4
REMARK    4  A    between atoms: C_4  and  C_18
REMARK    5  A    between atoms: N_7  and  C_11
REMARK    6  A    between atoms: C_11  and  C_12
REMARK    7  A    between atoms: C_23  and  C_24
REMARK    8  A    between atoms: C_23  and  N_76
REMARK    9  A    between atoms: C_27  and  N_30
REMARK   10  A    between atoms: N_30  and  C_31
REMARK   11  A    between atoms: N_30  and  C_33
REMARK   12  A    between atoms: C_31  and  C_32
REMARK   13  A    between atoms: C_33  and  C_34
REMARK                            x       y       z     vdW  Elec       q    Type
REMARK                         _______ _______ _______ _____ _____    ______ ____
ROOT
ATOM      1  C   UNL     1       0.769   7.734  -3.614  0.00  0.00    +0.018 C 
ATOM      2  C   UNL     1      -0.510   8.063  -2.840  0.00  0.00    -0.013 C 
ATOM      3  C   UNL     1      -0.352   7.608  -1.387  0.00  0.00    -0.078 C 
ATOM      4  C   UNL     1       1.154   5.829  -2.048  0.00  0.00    -0.078 C 
ATOM      5  C   UNL     1       1.041   6.230  -3.520  0.00  0.00    -0.013 C 
ATOM      6  N   UNL     1      -0.117   6.148  -1.364  0.00  0.00    +0.382 N 
ATOM      7  H   UNL     1      -0.887   5.679  -1.856  0.00  0.00    -0.081 HD
ENDROOT
BRANCH   1   8
ATOM      8  C   UNL     1       0.595   8.133  -5.081  0.00  0.00    +0.115 C 
ATOM      9  C   UNL     1       0.249   9.604  -5.197  0.00  0.00    +0.247 C 
ATOM     10  O   UNL     1       0.923  10.545  -4.838  0.00  0.00    -0.273 OA
ATOM     11  N   UNL     1      -0.969   9.643  -5.780  0.00  0.00    -0.222 N 
ATOM     12  C   UNL     1      -1.429   8.416  -6.047  0.00  0.00    +0.309 C 
ATOM     13  O   UNL     1      -2.503   8.196  -6.573  0.00  0.00    -0.252 OA
ATOM     14  N   UNL     1      -0.571   7.452  -5.669  0.00  0.00    -0.285 N 
ATOM     15  H   UNL     1      -0.696   6.494  -5.764  0.00  0.00    +0.151 HD
BRANCH   8  16
ATOM     16  C   UNL     1       1.862   7.814  -5.878  0.00  0.00    +0.035 C 
BRANCH  16  18
ATOM     17  C   UNL     1       2.929   7.903  -8.135  0.00  0.00    +0.004 C 
ATOM     18  C   UNL     1       1.662   8.222  -7.339  0.00  0.00    -0.001 C 
ENDBRANCH  16  18
ENDBRANCH   8  16
BRANCH  11  19
ATOM     19  C   UNL     1      -1.695  10.879  -6.085  0.00  0.00    +0.149 C 
BRANCH  19  20
ATOM     20  C   UNL     1      -2.574  11.261  -4.892  0.00  0.00    +0.136 C 
ATOM     21  C   UNL     1      -3.405  12.526  -5.220  0.00  0.00    +0.035 C 
ATOM     22  C   UNL     1      -4.605  12.351  -4.249  0.00  0.00    +0.031 C 
ATOM     23  C   UNL     1      -4.782  10.818  -4.220  0.00  0.00    +0.160 C 
ATOM     24  O   UNL     1      -3.543  10.231  -4.636  0.00  0.00    -0.375 OA
ENDBRANCH  19  20
ENDBRANCH  11  19
ENDBRANCH   1   8
BRANCH   6  25
ATOM     25  C   UNL     1      -0.075   5.666   0.032  0.00  0.00    -0.043 C 
BRANCH  25  26
ATOM     26  C   UNL     1      -0.054   4.159   0.024  0.00  0.00    -0.064 A 
ATOM     27  C   UNL     1       1.153   3.486   0.009  0.00  0.00    +0.003 A 
ATOM     28  C   UNL     1       1.176   2.105   0.002  0.00  0.00    +0.023 A 
ATOM     29  C   UNL     1      -0.017   1.393   0.010  0.00  0.00    +0.030 A 
ATOM     30  C   UNL     1      -1.228   2.072   0.019  0.00  0.00    +0.023 A 
ATOM     31  C   UNL     1      -1.243   3.453   0.032  0.00  0.00    +0.003 A 
BRANCH  29  32
ATOM     32  N   UNL     1       0.002  -0.004   0.002  0.00  0.00    -0.330 N 
BRANCH  32  33
ATOM     33  C   UNL     1      -1.256  -0.754   0.010  0.00  0.00    +0.102 C 
ATOM     34  C   UNL     1      -1.708  -1.007  -1.430  0.00  0.00    +0.024 C 
ENDBRANCH  32  33
BRANCH  32  35
ATOM     35  C   UNL     1       1.281  -0.719  -0.014  0.00  0.00    +0.102 C 
ATOM     36  C   UNL     1       1.739  -0.976   1.423  0.00  0.00    +0.024 C 
ENDBRANCH  32  35
ENDBRANCH  29  32
ENDBRANCH  25  26
ENDBRANCH   6  25
TORSDOF 10
