REMARK  Name = ZINC05648172
REMARK  4 active torsions:
REMARK  status: ('A' for Active; 'I' for Inactive)
REMARK    1  A    between atoms: C_1  and  C_2
REMARK    2  A    between atoms: C_6  and  N_8
REMARK    3  A    between atoms: C_9  and  O_24
REMARK    4  A    between atoms: C_10  and  C_14
REMARK                            x       y       z     vdW  Elec       q    Type
REMARK                         _______ _______ _______ _____ _____    ______ ____
ROOT
ATOM      1  N   UNL     1       2.407   1.104  -0.054  0.00  0.00    -0.241 N 
ATOM      2  C   UNL     1       2.429  -0.235   0.069  0.00  0.00    +0.215 A 
ATOM      3  C   UNL     1       3.676  -0.858   0.036  0.00  0.00    +0.078 A 
ATOM      4  S   UNL     1       4.764   0.542  -0.173  0.00  0.00    -0.023 S 
ATOM      5  C   UNL     1       3.559   1.789  -0.207  0.00  0.00    +0.298 A 
ATOM      6  O   UNL     1       3.715   2.989  -0.336  0.00  0.00    -0.259 OA
ENDROOT
BRANCH   3   7
ATOM      7  C   UNL     1       3.990  -2.212   0.140  0.00  0.00    +0.030 C 
ATOM      8  C   UNL     1       5.327  -2.618   0.204  0.00  0.00    +0.003 C 
ATOM      9  C   UNL     1       6.470  -1.795   0.297  0.00  0.00    +0.120 C 
ATOM     10  N   UNL     1       7.545  -2.542   0.336  0.00  0.00    -0.254 NA
ATOM     11  C   UNL     1       7.252  -3.861   0.277  0.00  0.00    +0.072 A 
ATOM     12  C   UNL     1       5.847  -3.995   0.197  0.00  0.00    +0.009 A 
ATOM     13  C   UNL     1       5.267  -5.257   0.130  0.00  0.00    +0.010 A 
ATOM     14  C   UNL     1       6.067  -6.378   0.145  0.00  0.00    +0.001 A 
ATOM     15  C   UNL     1       7.448  -6.255   0.226  0.00  0.00    +0.002 A 
ATOM     16  C   UNL     1       8.043  -5.016   0.285  0.00  0.00    +0.028 A 
ENDBRANCH   3   7
BRANCH   1  22
ATOM     17  C   UNL     1      -1.951   2.064  -2.123  0.00  0.00    +0.044 C 
ATOM     18  C   UNL     1      -0.946   2.273  -1.020  0.00  0.00    -0.048 A 
ATOM     19  C   UNL     1      -1.229   3.141   0.018  0.00  0.00    +0.003 A 
ATOM     20  C   UNL     1      -0.312   3.331   1.035  0.00  0.00    +0.002 A 
ATOM     21  C   UNL     1       0.896   2.661   1.011  0.00  0.00    +0.026 A 
ATOM     22  C   UNL     1       1.184   1.789  -0.030  0.00  0.00    +0.054 A 
ATOM     23  C   UNL     1       0.258   1.596  -1.047  0.00  0.00    +0.029 A 
ENDBRANCH   1  22
BRANCH   2  24
ATOM     24  O   UNL     1       1.291  -0.946   0.218  0.00  0.00    -0.492 OA
ATOM     25  H   UNL     1       1.430  -1.899   0.296  0.00  0.00    +0.294 HD
ENDBRANCH   2  24
TORSDOF 3
