REMARK  Name = ZINC08900250
REMARK  9 active torsions:
REMARK  status: ('A' for Active; 'I' for Inactive)
REMARK    1  A    between atoms: C_1  and  C_2
REMARK    2  A    between atoms: C_5  and  N_8
REMARK    3  A    between atoms: C_12  and  C_33
REMARK    4  A    between atoms: C_13  and  N_17
REMARK    5  A    between atoms: C_18  and  C_20
REMARK    6  A    between atoms: C_20  and  O_21
REMARK    7  A    between atoms: O_21  and  C_22
REMARK    8  A    between atoms: C_24  and  C_31
REMARK    9  A    between atoms: C_26  and  C_29
REMARK                            x       y       z     vdW  Elec       q    Type
REMARK                         _______ _______ _______ _____ _____    ______ ____
ROOT
ATOM      1  N   UNL     1       1.179   1.761   0.052  0.00  0.00    -0.149 N 
ATOM      2  N   UNL     1       2.051   0.814   0.030  0.00  0.00    -0.147 NA
ATOM      3  C   UNL     1       1.419  -0.349   0.018  0.00  0.00    +0.114 A 
ATOM      4  C   UNL     1       1.786  -1.706  -0.005  0.00  0.00    +0.037 A 
ATOM      5  C   UNL     1       0.821  -2.661  -0.011  0.00  0.00    -0.027 A 
ATOM      6  C   UNL     1      -0.540  -2.331   0.006  0.00  0.00    +0.039 A 
ATOM      7  C   UNL     1      -0.961  -1.033   0.029  0.00  0.00    +0.055 A 
ATOM      8  C   UNL     1      -0.009   0.001   0.036  0.00  0.00    +0.115 A 
ATOM      9  N   UNL     1      -0.032   1.325   0.056  0.00  0.00    -0.147 NA
ATOM     10  C   UNL     1       1.225  -4.113  -0.035  0.00  0.00    +0.046 C 
ENDROOT
BRANCH   1  15
ATOM     11  C   UNL     1       2.530   7.272   0.126  0.00  0.00    +0.044 C 
ATOM     12  C   UNL     1       2.171   5.809   0.106  0.00  0.00    -0.050 A 
ATOM     13  C   UNL     1       0.843   5.424   0.111  0.00  0.00    +0.005 A 
ATOM     14  C   UNL     1       0.511   4.083   0.093  0.00  0.00    +0.030 A 
ATOM     15  C   UNL     1       1.512   3.122   0.070  0.00  0.00    +0.086 A 
ATOM     16  C   UNL     1       2.845   3.511   0.069  0.00  0.00    +0.030 A 
ATOM     17  C   UNL     1       3.171   4.854   0.082  0.00  0.00    +0.005 A 
ENDBRANCH   1  15
BRANCH   6  18
ATOM     18  N   UNL     1      -1.492  -3.357  -0.001  0.00  0.00    -0.282 N 
ATOM     19  C   UNL     1      -2.730  -3.125  -0.481  0.00  0.00    +0.255 C 
ATOM     20  O   UNL     1      -2.989  -2.060  -0.999  0.00  0.00    -0.272 OA
ATOM     21  H   UNL     1      -1.261  -4.236   0.340  0.00  0.00    +0.155 HD
BRANCH  19  22
ATOM     22  C   UNL     1      -3.791  -4.189  -0.374  0.00  0.00    +0.325 C 
BRANCH  22  23
ATOM     23  O   UNL     1      -5.008  -3.709  -0.950  0.00  0.00    -0.480 OA
BRANCH  23  24
ATOM     24  C   UNL     1      -6.074  -4.553  -0.935  0.00  0.00    +0.158 A 
ATOM     25  C   UNL     1      -6.290  -5.418  -1.997  0.00  0.00    +0.088 A 
ATOM     26  C   UNL     1      -7.371  -6.280  -1.977  0.00  0.00    -0.010 A 
ATOM     27  C   UNL     1      -8.244  -6.271  -0.904  0.00  0.00    +0.050 A 
ATOM     28  C   UNL     1      -8.034  -5.405   0.154  0.00  0.00    -0.010 A 
ATOM     29  C   UNL     1      -6.951  -4.545   0.141  0.00  0.00    +0.088 A 
ATOM     30 CL   UNL     1      -6.687  -3.459   1.469  0.00  0.00    -0.079 Cl
ATOM     31  C   UNL     1      -8.987  -5.397   1.322  0.00  0.00    +0.047 C 
ATOM     32 CL   UNL     1      -9.605  -7.348  -0.885  0.00  0.00    -0.083 Cl
ATOM     33  C   UNL     1      -7.602  -7.225  -3.128  0.00  0.00    +0.047 C 
ATOM     34 CL   UNL     1      -5.199  -5.425  -3.348  0.00  0.00    -0.079 Cl
ENDBRANCH  23  24
ENDBRANCH  22  23
ENDBRANCH  19  22
ENDBRANCH   6  18
TORSDOF 5
