REMARK  Name = ZINC27012353
REMARK  5 active torsions:
REMARK  status: ('A' for Active; 'I' for Inactive)
REMARK    1  A    between atoms: C_1  and  C_2
REMARK    2  A    between atoms: C_2  and  C_3
REMARK    3  A    between atoms: C_2  and  C_4
REMARK    4  A    between atoms: N_12  and  C_15
REMARK    5  A    between atoms: C_19  and  N_21
REMARK                            x       y       z     vdW  Elec       q    Type
REMARK                         _______ _______ _______ _____ _____    ______ ____
ROOT
ATOM      1  C   UNL     1       0.482  -0.688  -1.026  0.00  0.00    +0.070 C 
ATOM      2  C   UNL     1       0.799  -2.189  -1.199  0.00  0.00    +0.107 C 
ATOM      3  C   UNL     1       2.160  -2.224  -1.947  0.00  0.00    +0.123 C 
ATOM      4  C   UNL     1       1.806  -2.828  -3.287  0.00  0.00    +0.233 C 
ATOM      5  O   UNL     1       2.586  -3.032  -4.192  0.00  0.00    -0.274 OA
ATOM      6  N   UNL     1       0.496  -3.103  -3.319  0.00  0.00    -0.210 N 
ATOM      7  C   UNL     1      -0.176  -2.790  -2.186  0.00  0.00    +0.232 C 
ATOM      8  O   UNL     1      -1.360  -2.957  -1.988  0.00  0.00    -0.274 OA
ATOM      9  C   UNL     1       2.551  -0.751  -2.113  0.00  0.00    +0.136 C 
ATOM     10  N   UNL     1       1.804  -0.008  -1.088  0.00  0.00    -0.295 NA
ATOM     11  C   UNL     1       4.035  -0.557  -1.982  0.00  0.00    +0.003 A 
ATOM     12  C   UNL     1       4.941  -0.821  -0.979  0.00  0.00    +0.008 A 
ATOM     13  C   UNL     1       6.279  -0.522  -1.158  0.00  0.00    +0.000 A 
ATOM     14  C   UNL     1       6.705   0.042  -2.347  0.00  0.00    +0.002 A 
ATOM     15  C   UNL     1       5.802   0.307  -3.355  0.00  0.00    +0.023 A 
ATOM     16  C   UNL     1       4.452   0.009  -3.183  0.00  0.00    +0.039 A 
ATOM     17  N   UNL     1       3.362   0.181  -4.040  0.00  0.00    -0.283 N 
ATOM     18  C   UNL     1       2.209  -0.242  -3.486  0.00  0.00    +0.243 C 
ATOM     19  O   UNL     1       1.109  -0.216  -3.996  0.00  0.00    -0.273 OA
ATOM     20  H   UNL     1       1.699   0.963  -1.341  0.00  0.00    +0.124 HD
ATOM     21  H   UNL     1       3.428   0.560  -4.930  0.00  0.00    +0.155 HD
ENDROOT
BRANCH   6  22
ATOM     22  C   UNL     1      -0.132  -3.676  -4.434  0.00  0.00    +0.046 A 
ATOM     23  C   UNL     1      -1.049  -2.939  -5.170  0.00  0.00    +0.025 A 
ATOM     24  C   UNL     1      -1.666  -3.506  -6.268  0.00  0.00    +0.024 A 
ATOM     25  C   UNL     1      -1.370  -4.807  -6.635  0.00  0.00    +0.071 A 
ATOM     26  C   UNL     1      -0.457  -5.544  -5.902  0.00  0.00    +0.146 A 
ATOM     27  C   UNL     1       0.168  -4.979  -4.807  0.00  0.00    +0.058 A 
ATOM     28 CL   UNL     1      -2.148  -5.516  -8.015  0.00  0.00    -0.081 Cl
BRANCH  26  29
ATOM     29  N   UNL     1      -0.143  -6.936  -6.296  0.00  0.00    +0.058 N 
ATOM     30  O   UNL     1       0.655  -7.580  -5.657  0.00  0.00    -0.126 OA
ATOM     31  O   UNL     1      -0.686  -7.428  -7.258  0.00  0.00    -0.126 OA
ENDBRANCH  26  29
ENDBRANCH   6  22
BRANCH   1  33
ATOM     32  C   UNL     1      -0.453   1.061   0.493  0.00  0.00    +0.009 C 
ATOM     33  C   UNL     1      -0.183  -0.436   0.328  0.00  0.00    +0.001 C 
ATOM     34  C   UNL     1      -1.505  -1.203   0.397  0.00  0.00    +0.009 C 
ENDBRANCH   1  33
TORSDOF 3
