REMARK  Name = ZINC32758466
REMARK  11 active torsions:
REMARK  status: ('A' for Active; 'I' for Inactive)
REMARK    1  A    between atoms: C_1  and  C_2
REMARK    2  A    between atoms: C_2  and  C_3
REMARK    3  A    between atoms: C_3  and  C_5
REMARK    4  A    between atoms: C_3  and  O_14
REMARK    5  A    between atoms: C_10  and  C_13
REMARK    6  A    between atoms: O_14  and  C_15
REMARK    7  A    between atoms: C_18  and  N_21
REMARK    8  A    between atoms: N_21  and  C_22
REMARK    9  A    between atoms: N_21  and  S_23
REMARK   10  A    between atoms: S_23  and  C_26
REMARK   11  A    between atoms: C_29  and  C_32
REMARK                            x       y       z     vdW  Elec       q    Type
REMARK                         _______ _______ _______ _____ _____    ______ ____
ROOT
ATOM      1  C   UNL     1       2.331   3.430  -0.499  0.00  0.00    +0.122 A 
ATOM      2  C   UNL     1       1.113   4.008  -0.826  0.00  0.00    +0.047 A 
ATOM      3  C   UNL     1       1.073   5.286  -1.347  0.00  0.00    +0.028 A 
ATOM      4  C   UNL     1       2.253   5.989  -1.554  0.00  0.00    +0.051 A 
ATOM      5  C   UNL     1       3.472   5.407  -1.231  0.00  0.00    +0.028 A 
ATOM      6  C   UNL     1       3.510   4.131  -0.705  0.00  0.00    +0.047 A 
ENDROOT
BRANCH   4   7
ATOM      7  N   UNL     1       2.213   7.282  -2.086  0.00  0.00    -0.206 N 
ATOM      8  C   UNL     1       3.287   8.232  -1.785  0.00  0.00    +0.157 C 
BRANCH   7   9
ATOM      9  S   UNL     1       0.952   7.740  -3.057  0.00  0.00    +0.074 S 
ATOM     10  O   UNL     1       1.448   8.762  -3.911  0.00  0.00    -0.150 OA
ATOM     11  O   UNL     1       0.371   6.544  -3.558  0.00  0.00    -0.150 OA
BRANCH   9  12
ATOM     12  C   UNL     1      -0.257   8.492  -2.020  0.00  0.00    +0.109 A 
ATOM     13  C   UNL     1      -1.300   7.738  -1.514  0.00  0.00    +0.029 A 
ATOM     14  C   UNL     1      -2.246   8.328  -0.697  0.00  0.00    +0.005 A 
ATOM     15  C   UNL     1      -2.156   9.673  -0.394  0.00  0.00    -0.050 A 
ATOM     16  C   UNL     1      -1.116  10.429  -0.904  0.00  0.00    +0.005 A 
ATOM     17  C   UNL     1      -0.167   9.838  -1.718  0.00  0.00    +0.029 A 
ATOM     18  C   UNL     1      -3.190  10.317   0.493  0.00  0.00    +0.044 C 
ENDBRANCH   9  12
ENDBRANCH   7   9
ENDBRANCH   4   7
BRANCH   1  19
ATOM     19  O   UNL     1       2.369   2.173   0.019  0.00  0.00    -0.480 OA
BRANCH  19  20
ATOM     20  C   UNL     1       3.643   1.685   0.444  0.00  0.00    +0.259 C 
BRANCH  20  21
ATOM     21  C   UNL     1       3.477   0.879   1.706  0.00  0.00    +0.259 C 
ATOM     22  O   UNL     1       2.367   0.659   2.143  0.00  0.00    -0.271 OA
ATOM     23  N   UNL     1       4.561   0.401   2.349  0.00  0.00    -0.265 N 
ATOM     24  C   UNL     1       4.407  -0.345   3.517  0.00  0.00    +0.168 A 
ATOM     25  C   UNL     1       3.185  -0.688   4.155  0.00  0.00    +0.091 A 
ATOM     26  C   UNL     1       3.570  -1.407   5.233  0.00  0.00    +0.136 A 
ATOM     27  O   UNL     1       4.910  -1.462   5.199  0.00  0.00    -0.358 OA
ATOM     28  N   UNL     1       5.357  -0.875   4.242  0.00  0.00    -0.063 NA
ATOM     29  C   UNL     1       2.670  -2.027   6.271  0.00  0.00    +0.089 C 
ATOM     30  H   UNL     1       5.567   0.600   1.952  0.00  0.00    +0.156 HD
ENDBRANCH  20  21
BRANCH  20  32
ATOM     31  C   UNL     1       4.527   1.648  -1.893  0.00  0.00    +0.008 C 
ATOM     32  C   UNL     1       4.242   0.800  -0.651  0.00  0.00    +0.051 C 
ENDBRANCH  20  32
ENDBRANCH  19  20
ENDBRANCH   1  19
TORSDOF 7
