REMARK  Name = ZINC59198270
REMARK  10 active torsions:
REMARK  status: ('A' for Active; 'I' for Inactive)
REMARK    1  A    between atoms: C_1  and  C_2
REMARK    2  A    between atoms: C_2  and  O_3
REMARK    3  A    between atoms: O_3  and  C_4
REMARK    4  A    between atoms: C_6  and  C_17
REMARK    5  A    between atoms: C_8  and  C_14
REMARK    6  A    between atoms: C_9  and  O_10
REMARK    7  A    between atoms: O_10  and  C_11
REMARK    8  A    between atoms: C_11  and  C_12
REMARK    9  A    between atoms: C_14  and  C_15
REMARK   10  A    between atoms: N_24  and  C_27
REMARK                            x       y       z     vdW  Elec       q    Type
REMARK                         _______ _______ _______ _____ _____    ______ ____
ROOT
ATOM      1  C   UNL     1      -0.540  -5.477   0.318  0.00  0.00    +0.026 C 
ATOM      2  C   UNL     1      -0.166  -6.811   0.296  0.00  0.00    +0.102 C 
ATOM      3  C   UNL     1       0.994  -7.271  -0.483  0.00  0.00    +0.276 C 
ATOM      4  O   UNL     1       1.732  -6.400  -1.204  0.00  0.00    -0.268 OA
ATOM      5  N   UNL     1       1.298  -8.558  -0.461  0.00  0.00    -0.123 NA
ATOM      6  C   UNL     1       0.590  -9.439   0.240  0.00  0.00    +0.340 C 
ATOM      7  O   UNL     1       0.933 -10.608   0.211  0.00  0.00    -0.250 OA
ATOM      8  N   UNL     1      -0.481  -9.112   0.979  0.00  0.00    -0.188 N 
ATOM      9  C   UNL     1      -0.909  -7.834   1.059  0.00  0.00    +0.264 C 
ATOM     10  O   UNL     1      -1.877  -7.535   1.733  0.00  0.00    -0.269 OA
ENDROOT
BRANCH   8  11
ATOM     11  C   UNL     1      -1.164 -10.113   1.684  0.00  0.00    +0.046 A 
ATOM     12  C   UNL     1      -2.446 -10.483   1.299  0.00  0.00    +0.025 A 
ATOM     13  C   UNL     1      -3.117 -11.469   1.996  0.00  0.00    +0.017 A 
ATOM     14  C   UNL     1      -2.512 -12.088   3.075  0.00  0.00    +0.018 A 
ATOM     15  C   UNL     1      -1.235 -11.721   3.460  0.00  0.00    +0.017 A 
ATOM     16  C   UNL     1      -0.558 -10.739   2.764  0.00  0.00    +0.025 A 
ATOM     17 BR   UNL     1      -3.434 -13.438   4.027  0.00  0.00    -0.050 Br
ENDBRANCH   8  11
BRANCH   1  20
ATOM     18  C   UNL     1       1.086  -2.398  -1.058  0.00  0.00    +0.163 A 
ATOM     19  C   UNL     1       0.516  -3.282  -0.166  0.00  0.00    +0.057 A 
ATOM     20  C   UNL     1       0.065  -4.533  -0.618  0.00  0.00    -0.020 A 
ATOM     21  C   UNL     1       0.197  -4.872  -1.974  0.00  0.00    +0.015 A 
ATOM     22  C   UNL     1       0.763  -3.989  -2.848  0.00  0.00    +0.002 A 
ATOM     23  C   UNL     1       1.206  -2.748  -2.405  0.00  0.00    +0.166 A 
BRANCH  18  24
ATOM     24  O   UNL     1       1.526  -1.186  -0.628  0.00  0.00    -0.489 OA
BRANCH  24  26
ATOM     25  C   UNL     1       1.920   0.503   1.056  0.00  0.00    +0.048 C 
ATOM     26  C   UNL     1       1.372  -0.895   0.763  0.00  0.00    +0.226 C 
ENDBRANCH  24  26
ENDBRANCH  18  24
BRANCH  23  27
ATOM     27  O   UNL     1       1.762  -1.875  -3.283  0.00  0.00    -0.484 OA
BRANCH  27  28
ATOM     28  C   UNL     1       0.900  -0.885  -3.846  0.00  0.00    +0.256 C 
BRANCH  28  29
ATOM     29  C   UNL     1       1.709   0.060  -4.697  0.00  0.00    +0.006 C 
ATOM     30  C   UNL     1       1.273   0.413  -5.880  0.00  0.00    +0.007 C 
ENDBRANCH  28  29
ENDBRANCH  27  28
ENDBRANCH  23  27
BRANCH  22  31
ATOM     31  C   UNL     1       0.904  -4.359  -4.302  0.00  0.00    +0.065 C 
BRANCH  31  32
ATOM     32  C   UNL     1       2.280  -4.924  -4.546  0.00  0.00    -0.030 C 
ATOM     33  C   UNL     1       2.415  -6.137  -5.022  0.00  0.00    +0.004 C 
ENDBRANCH  31  32
ENDBRANCH  22  31
ENDBRANCH   1  20
TORSDOF 9
