REMARK  Name = ZINC21697042
REMARK  7 active torsions:
REMARK  status: ('A' for Active; 'I' for Inactive)
REMARK    1  A    between atoms: C_1  and  C_2
REMARK    2  A    between atoms: C_8  and  C_10
REMARK    3  A    between atoms: C_10  and  C_12
REMARK    4  A    between atoms: C_10  and  O_18
REMARK    5  A    between atoms: O_18  and  C_19
REMARK    6  A    between atoms: C_19  and  C_21
REMARK    7  A    between atoms: N_24  and  C_26
REMARK                            x       y       z     vdW  Elec       q    Type
REMARK                         _______ _______ _______ _____ _____    ______ ____
ROOT
ATOM      1  O   UNL     1       1.075  -2.167   0.100  0.00  0.00    -0.442 OA
ENDROOT
BRANCH   1   2
ATOM      2  C   UNL     1       2.028  -2.903   0.705  0.00  0.00    +0.361 C 
ATOM      3  O   UNL     1       3.034  -2.366   1.125  0.00  0.00    -0.243 OA
BRANCH   2   4
ATOM      4  C   UNL     1       1.850  -4.359   0.856  0.00  0.00    +0.173 A 
ATOM      5  C   UNL     1       2.759  -5.260   1.460  0.00  0.00    +0.008 A 
ATOM      6  C   UNL     1       2.181  -6.477   1.376  0.00  0.00    +0.049 A 
ATOM      7  N   UNL     1       0.988  -6.309   0.742  0.00  0.00    -0.236 N 
ATOM      8  N   UNL     1       0.816  -5.070   0.449  0.00  0.00    -0.159 NA
ATOM      9  C   UNL     1       3.075  -7.523   2.003  0.00  0.00    +0.056 C 
ATOM     10  C   UNL     1       4.468  -6.856   2.092  0.00  0.00    +0.011 C 
ATOM     11  C   UNL     1       4.099  -5.357   2.146  0.00  0.00    +0.040 C 
BRANCH   7  12
ATOM     12  C   UNL     1       0.081  -7.337   0.453  0.00  0.00    +0.066 A 
ATOM     13  C   UNL     1       0.546  -8.600   0.113  0.00  0.00    +0.030 A 
ATOM     14  C   UNL     1      -0.350  -9.613  -0.167  0.00  0.00    +0.040 A 
ATOM     15  C   UNL     1      -1.712  -9.367  -0.118  0.00  0.00    +0.124 A 
ATOM     16  C   UNL     1      -2.178  -8.106   0.216  0.00  0.00    +0.040 A 
ATOM     17  C   UNL     1      -1.285  -7.092   0.501  0.00  0.00    +0.030 A 
ATOM     18  F   UNL     1      -2.587 -10.358  -0.398  0.00  0.00    -0.205 F 
ENDBRANCH   7  12
ENDBRANCH   2   4
ENDBRANCH   1   2
BRANCH   1  19
ATOM     19  C   UNL     1       1.317  -0.740  -0.015  0.00  0.00    +0.292 C 
BRANCH  19  27
ATOM     20  C   UNL     1      -4.869   2.487   0.040  0.00  0.00    +0.089 C 
ATOM     21  C   UNL     1      -3.362   2.518   0.033  0.00  0.00    +0.136 A 
ATOM     22  C   UNL     1      -2.532   1.450   0.022  0.00  0.00    +0.091 A 
ATOM     23  C   UNL     1      -1.234   2.025   0.019  0.00  0.00    +0.168 A 
ATOM     24  N   UNL     1      -1.408   3.320   0.033  0.00  0.00    -0.063 NA
ATOM     25  O   UNL     1      -2.582   3.608   0.035  0.00  0.00    -0.358 OA
ATOM     26  N   UNL     1      -0.016   1.344   0.009  0.00  0.00    -0.264 N 
ATOM     27  C   UNL     1       0.002  -0.004   0.002  0.00  0.00    +0.264 C 
ATOM     28  O   UNL     1      -1.040  -0.625   0.009  0.00  0.00    -0.271 OA
ATOM     29  H   UNL     1       0.929   1.907   0.008  0.00  0.00    +0.156 HD
ENDBRANCH  19  27
BRANCH  19  30
ATOM     30  C   UNL     1       2.036  -0.454  -1.308  0.00  0.00    +0.002 A 
ATOM     31  C   UNL     1       1.686  -1.135  -2.458  0.00  0.00    +0.008 A 
ATOM     32  C   UNL     1       2.343  -0.870  -3.645  0.00  0.00    +0.000 A 
ATOM     33  C   UNL     1       3.357   0.070  -3.680  0.00  0.00    +0.000 A 
ATOM     34  C   UNL     1       3.710   0.748  -2.528  0.00  0.00    +0.000 A 
ATOM     35  C   UNL     1       3.050   0.485  -1.342  0.00  0.00    +0.008 A 
ENDBRANCH  19  30
ENDBRANCH   1  19
TORSDOF 6
