REMARK  Name = ZINC34829669
REMARK  10 active torsions:
REMARK  status: ('A' for Active; 'I' for Inactive)
REMARK    1  A    between atoms: C_1  and  C_2
REMARK    2  A    between atoms: C_2  and  C_3
REMARK    3  A    between atoms: C_3  and  C_5
REMARK    4  A    between atoms: C_3  and  C_11
REMARK    5  A    between atoms: C_18  and  C_20
REMARK    6  A    between atoms: C_21  and  C_23
REMARK    7  A    between atoms: C_23  and  N_24
REMARK    8  A    between atoms: C_32  and  C_34
REMARK    9  A    between atoms: C_37  and  O_40
REMARK   10  A    between atoms: O_40  and  C_41
REMARK                            x       y       z     vdW  Elec       q    Type
REMARK                         _______ _______ _______ _____ _____    ______ ____
ROOT
ATOM      1  C   UNL     1      -2.389   0.019  -0.943  0.00  0.00    +0.223 C 
ATOM      2  O   UNL     1      -2.979  -0.790  -1.628  0.00  0.00    -0.275 OA
ATOM      3  N   UNL     1      -2.297   1.302  -1.345  0.00  0.00    -0.295 N 
ATOM      4  C   UNL     1      -1.678   2.315  -0.477  0.00  0.00    +0.127 C 
ATOM      5  C   UNL     1      -2.676   3.462  -0.274  0.00  0.00    +0.126 C 
ATOM      6  N   UNL     1      -3.192   3.873  -1.587  0.00  0.00    -0.300 N 
ATOM      7  C   UNL     1      -3.811   2.861  -2.454  0.00  0.00    +0.130 C 
ATOM      8  C   UNL     1      -2.808   1.713  -2.660  0.00  0.00    +0.090 C 
ATOM      9  C   UNL     1      -3.509   0.530  -3.331  0.00  0.00    +0.029 C 
ATOM     10  C   UNL     1      -3.100   5.157  -1.988  0.00  0.00    +0.199 C 
ATOM     11  O   UNL     1      -3.529   5.485  -3.074  0.00  0.00    -0.278 OA
ENDROOT
BRANCH   1  12
ATOM     12  C   UNL     1      -1.758  -0.411   0.356  0.00  0.00    +0.105 C 
BRANCH  12  13
ATOM     13  C   UNL     1      -2.756  -0.256   1.474  0.00  0.00    -0.036 A 
ATOM     14  C   UNL     1      -3.948  -0.955   1.439  0.00  0.00    +0.004 A 
ATOM     15  C   UNL     1      -4.864  -0.813   2.465  0.00  0.00    +0.000 A 
ATOM     16  C   UNL     1      -4.587   0.029   3.526  0.00  0.00    +0.000 A 
ATOM     17  C   UNL     1      -3.395   0.728   3.562  0.00  0.00    +0.000 A 
ATOM     18  C   UNL     1      -2.478   0.582   2.538  0.00  0.00    +0.004 A 
ENDBRANCH  12  13
BRANCH  12  20
ATOM     19  C   UNL     1      -0.209  -2.010  -0.778  0.00  0.00    +0.005 C 
ATOM     20  C   UNL     1      -1.330  -1.877   0.255  0.00  0.00    +0.014 C 
ENDBRANCH  12  20
ENDBRANCH   1  12
BRANCH  10  21
ATOM     21  C   UNL     1      -2.463   6.184  -1.087  0.00  0.00    +0.020 C 
BRANCH  21  22
ATOM     22  N   UNL     1      -2.485   7.496  -1.749  0.00  0.00    +0.393 N 
ATOM     23  C   UNL     1      -3.879   7.916  -1.944  0.00  0.00    -0.072 C 
ATOM     24  C   UNL     1      -3.908   9.107  -2.917  0.00  0.00    +0.024 C 
ATOM     25  C   UNL     1      -2.867  10.080  -2.468  0.00  0.00    -0.010 A 
ATOM     26  C   UNL     1      -1.874   9.844  -1.565  0.00  0.00    -0.047 A 
ATOM     27  C   UNL     1      -1.016  10.906  -1.293  0.00  0.00    +0.010 A 
ATOM     28  C   UNL     1      -1.191  12.094  -1.917  0.00  0.00    +0.045 A 
ATOM     29  S   UNL     1      -2.613  11.765  -2.947  0.00  0.00    -0.101 S 
ATOM     30  C   UNL     1      -1.758   8.466  -0.921  0.00  0.00    -0.005 C 
ATOM     31  H   UNL     1      -2.032   7.421  -2.648  0.00  0.00    -0.080 HD
BRANCH  30  32
ATOM     32  C   UNL     1      -0.307   8.069  -0.834  0.00  0.00    -0.056 A 
ATOM     33  C   UNL     1       0.344   7.584  -1.952  0.00  0.00    +0.006 A 
ATOM     34  C   UNL     1       1.674   7.219  -1.875  0.00  0.00    +0.046 A 
ATOM     35  C   UNL     1       2.357   7.341  -0.673  0.00  0.00    +0.120 A 
ATOM     36  C   UNL     1       1.701   7.829   0.448  0.00  0.00    +0.046 A 
ATOM     37  C   UNL     1       0.372   8.197   0.364  0.00  0.00    +0.006 A 
BRANCH  35  38
ATOM     38  O   UNL     1       3.665   6.982  -0.594  0.00  0.00    -0.495 OA
ATOM     39  C   UNL     1       4.304   7.135   0.675  0.00  0.00    +0.277 C 
ENDBRANCH  35  38
ENDBRANCH  30  32
ENDBRANCH  21  22
ENDBRANCH  10  21
TORSDOF 7
