REMARK  Name = ZINC14472779
REMARK  4 active torsions:
REMARK  status: ('A' for Active; 'I' for Inactive)
REMARK    1  A    between atoms: C_4  and  C_10
REMARK    2  A    between atoms: C_6  and  N_7
REMARK    3  A    between atoms: C_21  and  S_26
REMARK    4  A    between atoms: S_26  and  N_29
REMARK                            x       y       z     vdW  Elec       q    Type
REMARK                         _______ _______ _______ _____ _____    ______ ____
ROOT
ATOM      1  C   UNL     1       3.607   1.793   0.415  0.00  0.00    +0.106 C 
ATOM      2  C   UNL     1       4.422   2.905  -0.252  0.00  0.00    +0.029 C 
ATOM      3  C   UNL     1       5.719   3.097   0.587  0.00  0.00    +0.033 C 
ATOM      4  C   UNL     1       5.272   3.991   1.727  0.00  0.00    -0.030 C 
ATOM      5  C   UNL     1       4.183   4.643   1.399  0.00  0.00    -0.023 C 
ATOM      6  C   UNL     1       3.741   4.268  -0.018  0.00  0.00    +0.049 C 
ATOM      7  C   UNL     1       2.263   4.221  -0.119  0.00  0.00    -0.018 A 
ATOM      8  C   UNL     1       1.558   5.416  -0.170  0.00  0.00    +0.034 A 
ATOM      9  C   UNL     1       0.182   5.415  -0.281  0.00  0.00    +0.106 A 
ATOM     10  C   UNL     1      -0.511   4.221  -0.348  0.00  0.00    +0.030 A 
ATOM     11  C   UNL     1       0.178   3.026  -0.293  0.00  0.00    +0.025 A 
ATOM     12  C   UNL     1       1.562   3.026  -0.182  0.00  0.00    +0.031 A 
ATOM     13  N   UNL     1       2.247   1.807  -0.133  0.00  0.00    -0.336 N 
ATOM     14  H   UNL     1       1.831   0.991  -0.452  0.00  0.00    +0.147 HD
ENDROOT
BRANCH   1  18
ATOM     15  C   UNL     1       3.459   2.459   4.632  0.00  0.00    +0.034 A 
ATOM     16  C   UNL     1       4.426   1.628   4.098  0.00  0.00    +0.022 A 
ATOM     17  C   UNL     1       4.472   1.409   2.733  0.00  0.00    +0.046 A 
ATOM     18  C   UNL     1       3.555   2.028   1.902  0.00  0.00    -0.007 A 
ATOM     19  C   UNL     1       2.589   2.858   2.438  0.00  0.00    +0.039 A 
ATOM     20  C   UNL     1       2.541   3.073   3.802  0.00  0.00    +0.127 A 
ATOM     21 CL   UNL     1       5.682   0.360   2.062  0.00  0.00    -0.083 Cl
BRANCH  20  22
ATOM     22  N   UNL     1       1.505   3.963   4.375  0.00  0.00    +0.056 N 
ATOM     23  O   UNL     1       0.696   4.505   3.644  0.00  0.00    -0.126 OA
ATOM     24  O   UNL     1       1.463   4.153   5.577  0.00  0.00    -0.126 OA
ENDBRANCH  20  22
ENDBRANCH   1  18
BRANCH   9  25
ATOM     25  S   UNL     1      -0.693   6.943  -0.343  0.00  0.00    +0.061 S 
ATOM     26  O   UNL     1      -2.015   6.672   0.102  0.00  0.00    -0.153 OA
ATOM     27  O   UNL     1       0.137   7.913   0.282  0.00  0.00    -0.153 OA
BRANCH  25  28
ATOM     28  N   UNL     1      -0.810   7.376  -1.937  0.00  0.00    -0.177 NA
ATOM     29  C   UNL     1       0.235   8.195  -2.510  0.00  0.00    +0.109 C 
ATOM     30  C   UNL     1      -0.104   9.688  -2.321  0.00  0.00    +0.017 C 
ATOM     31  C   UNL     1      -1.222  10.072  -3.196  0.00  0.00    +0.001 C 
ATOM     32  C   UNL     1      -2.531   9.346  -2.900  0.00  0.00    +0.001 C 
ATOM     33  C   UNL     1      -2.542   8.021  -3.623  0.00  0.00    +0.017 C 
ATOM     34  C   UNL     1      -1.979   6.916  -2.711  0.00  0.00    +0.109 C 
ENDBRANCH  25  28
ENDBRANCH   9  25
TORSDOF 4
