REMARK  Name = ZINC01052728
REMARK  3 active torsions:
REMARK  status: ('A' for Active; 'I' for Inactive)
REMARK    1  A    between atoms: C_6  and  N_7
REMARK    2  A    between atoms: N_7  and  S_8
REMARK    3  A    between atoms: S_8  and  C_11
REMARK                            x       y       z     vdW  Elec       q    Type
REMARK                         _______ _______ _______ _____ _____    ______ ____
ROOT
ATOM      1  N   UNL     1       3.828   5.190  -0.003  0.00  0.00    -0.216 N 
ATOM      2  H   UNL     1       3.658   5.892  -0.650  0.00  0.00    +0.174 HD
ENDROOT
BRANCH   1   8
ATOM      3  C   UNL     1       3.614   2.795   0.096  0.00  0.00    +0.025 A 
ATOM      4  C   UNL     1       2.829   1.657   0.113  0.00  0.00    +0.015 A 
ATOM      5  C   UNL     1       1.447   1.770   0.048  0.00  0.00    +0.049 A 
ATOM      6  C   UNL     1       0.848   3.045  -0.035  0.00  0.00    +0.051 A 
ATOM      7  C   UNL     1       1.639   4.179  -0.052  0.00  0.00    +0.038 A 
ATOM      8  C   UNL     1       3.027   4.053   0.014  0.00  0.00    +0.049 A 
ATOM      9  C   UNL     1      -0.610   2.803  -0.087  0.00  0.00    +0.251 C 
ATOM     10  O   UNL     1      -1.469   3.658  -0.162  0.00  0.00    -0.270 OA
ATOM     11  N   UNL     1      -0.824   1.476  -0.042  0.00  0.00    -0.248 N 
ATOM     12  C   UNL     1       0.336   0.800   0.044  0.00  0.00    +0.251 C 
ATOM     13  O   UNL     1       0.450  -0.408   0.104  0.00  0.00    -0.270 OA
ATOM     14  H   UNL     1      -1.700   1.060  -0.066  0.00  0.00    +0.158 HD
ENDBRANCH   1   8
BRANCH   1  15
ATOM     15  S   UNL     1       5.069   5.345   1.083  0.00  0.00    +0.074 S 
ATOM     16  O   UNL     1       5.852   4.164   0.975  0.00  0.00    -0.150 OA
ATOM     17  O   UNL     1       5.616   6.642   0.891  0.00  0.00    -0.150 OA
BRANCH  15  18
ATOM     18  C   UNL     1       4.356   5.332   2.694  0.00  0.00    +0.128 A 
ATOM     19  C   UNL     1       4.654   4.307   3.573  0.00  0.00    +0.050 A 
ATOM     20  C   UNL     1       4.095   4.297   4.838  0.00  0.00    +0.043 A 
ATOM     21  C   UNL     1       3.237   5.312   5.224  0.00  0.00    +0.021 A 
ATOM     22  C   UNL     1       2.939   6.336   4.345  0.00  0.00    +0.023 A 
ATOM     23  C   UNL     1       3.504   6.350   3.082  0.00  0.00    +0.068 A 
ATOM     24 CL   UNL     1       3.135   7.640   1.981  0.00  0.00    -0.082 Cl
ATOM     25 CL   UNL     1       4.470   3.010   5.942  0.00  0.00    -0.083 Cl
ENDBRANCH  15  18
ENDBRANCH   1  15
TORSDOF 3
