REMARK  Name = ZINC08919954
REMARK  4 active torsions:
REMARK  status: ('A' for Active; 'I' for Inactive)
REMARK    1  A    between atoms: N_14  and  C_15
REMARK    2  A    between atoms: C_15  and  C_16
REMARK    3  A    between atoms: N_18  and  C_19
REMARK    4  A    between atoms: C_20  and  C_28
REMARK                            x       y       z     vdW  Elec       q    Type
REMARK                         _______ _______ _______ _____ _____    ______ ____
ROOT
ATOM      1  C   UNL     1      -3.380   5.654  -1.376  0.00  0.00    +0.237 C 
ATOM      2  O   UNL     1      -3.197   4.892  -2.302  0.00  0.00    -0.273 OA
ATOM      3  N   UNL     1      -3.695   6.942  -1.615  0.00  0.00    -0.278 N 
ATOM      4  H   UNL     1      -3.841   7.551  -0.875  0.00  0.00    +0.155 HD
ENDROOT
BRANCH   3   5
ATOM      5  C   UNL     1      -3.811   7.396  -2.920  0.00  0.00    +0.084 A 
ATOM      6  C   UNL     1      -4.130   8.672  -3.364  0.00  0.00    +0.068 A 
ATOM      7  C   UNL     1      -4.184   8.890  -4.799  0.00  0.00    -0.023 A 
ATOM      8  C   UNL     1      -3.922   7.802  -5.556  0.00  0.00    -0.004 A 
ATOM      9  S   UNL     1      -3.600   6.507  -4.392  0.00  0.00    -0.077 S 
ATOM     10  C   UNL     1      -3.911   7.724  -7.052  0.00  0.00    +0.043 C 
ATOM     11  C   UNL     1      -4.608   8.975  -7.607  0.00  0.00    +0.005 C 
ATOM     12  C   UNL     1      -4.045  10.209  -6.897  0.00  0.00    +0.005 C 
ATOM     13  C   UNL     1      -4.515  10.231  -5.441  0.00  0.00    +0.037 C 
BRANCH   6  14
ATOM     14  C   UNL     1      -4.399   9.760  -2.419  0.00  0.00    +0.244 C 
ATOM     15  O   UNL     1      -3.488  10.467  -2.030  0.00  0.00    -0.270 OA
ATOM     16  N   UNL     1      -5.655   9.978  -1.981  0.00  0.00    -0.325 N 
ATOM     17  H   UNL     1      -6.381   9.414  -2.291  0.00  0.00    +0.145 HD
ATOM     18  H   UNL     1      -5.833  10.698  -1.356  0.00  0.00    +0.145 HD
ENDBRANCH   6  14
ENDBRANCH   3   5
BRANCH   1  19
ATOM     19  C   UNL     1      -3.253   5.160   0.043  0.00  0.00    +0.222 C 
BRANCH  19  33
ATOM     20  C   UNL     1      -3.909   2.827   0.036  0.00  0.00    +0.203 A 
ATOM     21  N   UNL     1      -3.700   1.528   0.043  0.00  0.00    -0.230 NA
ATOM     22  C   UNL     1      -2.436   1.114   0.030  0.00  0.00    +0.116 A 
ATOM     23  C   UNL     1      -1.323   1.983   0.019  0.00  0.00    +0.076 A 
ATOM     24  C   UNL     1      -0.016   1.350   0.009  0.00  0.00    -0.023 A 
ATOM     25  C   UNL     1       0.002  -0.004   0.002  0.00  0.00    -0.004 A 
ATOM     26  S   UNL     1      -1.705  -0.492   0.016  0.00  0.00    -0.073 S 
ATOM     27  C   UNL     1       1.206  -0.895  -0.014  0.00  0.00    +0.043 C 
ATOM     28  C   UNL     1       2.430  -0.051  -0.396  0.00  0.00    +0.005 C 
ATOM     29  C   UNL     1       2.428   1.226   0.449  0.00  0.00    +0.005 C 
ATOM     30  C   UNL     1       1.288   2.142   0.001  0.00  0.00    +0.037 C 
ATOM     31  C   UNL     1      -1.596   3.392   0.027  0.00  0.00    +0.263 A 
ATOM     32  O   UNL     1      -0.706   4.225   0.027  0.00  0.00    -0.267 OA
ATOM     33  N   UNL     1      -2.906   3.736   0.035  0.00  0.00    -0.290 N 
ENDBRANCH  19  33
ENDBRANCH   1  19
TORSDOF 4
