REMARK  Name = ZINC64636388
REMARK  7 active torsions:
REMARK  status: ('A' for Active; 'I' for Inactive)
REMARK    1  A    between atoms: C_1  and  C_2
REMARK    2  A    between atoms: C_7  and  C_10
REMARK    3  A    between atoms: C_11  and  C_13
REMARK    4  A    between atoms: C_14  and  C_21
REMARK    5  A    between atoms: C_21  and  N_22
REMARK    6  A    between atoms: N_22  and  C_23
REMARK    7  A    between atoms: C_23  and  C_24
REMARK                            x       y       z     vdW  Elec       q    Type
REMARK                         _______ _______ _______ _____ _____    ______ ____
ROOT
ATOM      1  C   UNL     1      -1.920  -4.278  -0.496  0.00  0.00    +0.149 A 
ATOM      2  C   UNL     1      -2.463  -5.216  -1.319  0.00  0.00    +0.070 A 
ATOM      3  N   UNL     1      -2.083  -6.459  -0.849  0.00  0.00    -0.295 N 
ATOM      4  C   UNL     1      -2.270  -7.782  -1.187  0.00  0.00    +0.100 A 
ATOM      5  C   UNL     1      -1.722  -8.757  -0.464  0.00  0.00    +0.067 A 
ATOM      6  S   UNL     1      -0.864  -7.838   0.805  0.00  0.00    -0.058 S 
ATOM      7  C   UNL     1      -1.312  -6.206   0.259  0.00  0.00    +0.178 A 
ATOM      8  N   UNL     1      -1.212  -4.927   0.464  0.00  0.00    -0.216 NA
ENDROOT
BRANCH   1  17
ATOM      9  C   UNL     1      -0.030   1.535  -0.015  0.00  0.00    +0.039 C 
ATOM     10  C   UNL     1      -0.001   0.005  -0.031  0.00  0.00    +0.133 C 
ATOM     11  C   UNL     1      -1.435  -0.535   0.011  0.00  0.00    +0.139 C 
ATOM     12  N   UNL     1      -1.376  -1.995   0.185  0.00  0.00    -0.291 N 
ATOM     13  C   UNL     1      -0.538  -2.530   1.270  0.00  0.00    +0.139 C 
ATOM     14  C   UNL     1       0.852  -1.893   1.166  0.00  0.00    +0.133 C 
ATOM     15  O   UNL     1       0.717  -0.471   1.111  0.00  0.00    -0.371 OA
ATOM     16  C   UNL     1       1.685  -2.280   2.390  0.00  0.00    +0.039 C 
ATOM     17  C   UNL     1      -2.068  -2.818  -0.627  0.00  0.00    +0.267 C 
ATOM     18  O   UNL     1      -2.816  -2.356  -1.468  0.00  0.00    -0.268 OA
ENDBRANCH   1  17
BRANCH   2  19
ATOM     19  C   UNL     1      -3.324  -4.948  -2.526  0.00  0.00    +0.137 C 
BRANCH  19  20
ATOM     20  N   UNL     1      -4.736  -4.904  -2.121  0.00  0.00    -0.308 NA
ATOM     21  H   UNL     1      -5.003  -5.756  -1.651  0.00  0.00    +0.122 HD
BRANCH  20  22
ATOM     22  C   UNL     1      -5.607  -4.644  -3.275  0.00  0.00    +0.110 C 
BRANCH  22  23
ATOM     23  C   UNL     1      -7.065  -4.606  -2.814  0.00  0.00    +0.117 C 
ATOM     24  C   UNL     1      -7.987  -4.521  -4.010  0.00  0.00    +0.008 C 
ATOM     25  C   UNL     1      -8.760  -5.630  -3.966  0.00  0.00    -0.001 A 
ATOM     26  C   UNL     1      -9.836  -6.127  -4.833  0.00  0.00    +0.048 A 
ATOM     27  C   UNL     1     -10.439  -7.300  -4.525  0.00  0.00    +0.124 A 
ATOM     28  C   UNL     1     -10.060  -8.050  -3.401  0.00  0.00    +0.040 A 
ATOM     29  C   UNL     1      -9.082  -7.657  -2.559  0.00  0.00    +0.029 A 
ATOM     30  C   UNL     1      -8.381  -6.441  -2.787  0.00  0.00    +0.043 A 
ATOM     31  N   UNL     1      -7.411  -5.854  -2.126  0.00  0.00    -0.377 N 
ATOM     32  F   UNL     1     -11.429  -7.759  -5.321  0.00  0.00    -0.205 F 
ATOM     33  H   UNL     1      -6.991  -6.190  -1.318  0.00  0.00    +0.160 HD
ENDBRANCH  22  23
ENDBRANCH  20  22
ENDBRANCH  19  20
ENDBRANCH   2  19
TORSDOF 5
