REMARK  Name = ZINC63339764
REMARK  15 active torsions:
REMARK  status: ('A' for Active; 'I' for Inactive)
REMARK    1  A    between atoms: C_1  and  C_2
REMARK    2  A    between atoms: C_2  and  C_3
REMARK    3  A    between atoms: C_8  and  N_9
REMARK    4  A    between atoms: C_10  and  C_12
REMARK    5  A    between atoms: C_12  and  S_13
REMARK    6  A    between atoms: S_13  and  C_14
REMARK    7  A    between atoms: C_18  and  C_21
REMARK    8  A    between atoms: C_21  and  C_23
REMARK    9  A    between atoms: C_21  and  N_33
REMARK   10  A    between atoms: C_23  and  C_24
REMARK   11  A    between atoms: C_34  and  O_36
REMARK   12  A    between atoms: O_36  and  C_37
REMARK   13  A    between atoms: C_37  and  C_38
REMARK   14  A    between atoms: C_37  and  C_39
REMARK   15  A    between atoms: C_37  and  C_40
REMARK                            x       y       z     vdW  Elec       q    Type
REMARK                         _______ _______ _______ _____ _____    ______ ____
ROOT
ATOM      1  C   UNL     1       0.509   2.432  -7.249  0.00  0.00    +0.133 C 
ENDROOT
BRANCH   1   5
ATOM      2  C   UNL     1      -0.761   1.044 -10.248  0.00  0.00    +0.319 C 
ATOM      3  N   UNL     1      -1.664   0.624  -9.168  0.00  0.00    -0.146 NA
ATOM      4  N   UNL     1      -1.111   0.771  -8.070  0.00  0.00    -0.155 NA
ATOM      5  C   UNL     1       0.242   1.311  -8.255  0.00  0.00    +0.280 C 
ATOM      6  O   UNL     1       0.264   1.828  -9.603  0.00  0.00    -0.316 OA
BRANCH   2   7
ATOM      7  S   UNL     1      -1.656   2.053 -11.460  0.00  0.00    -0.095 S 
BRANCH   7   8
ATOM      8  C   UNL     1      -2.240   3.477 -10.500  0.00  0.00    +0.169 C 
BRANCH   8  10
ATOM      9  N   UNL     1      -3.746   5.410 -10.839  0.00  0.00    -0.285 N 
ATOM     10  C   UNL     1      -3.113   4.345 -11.369  0.00  0.00    +0.227 C 
ATOM     11  O   UNL     1      -3.245   4.085 -12.547  0.00  0.00    -0.275 OA
ATOM     12  H   UNL     1      -3.566   5.675  -9.923  0.00  0.00    +0.155 HD
BRANCH   9  18
ATOM     13  C   UNL     1      -5.046   7.410 -11.217  0.00  0.00    -0.026 A 
ATOM     14  C   UNL     1      -5.948   8.124 -11.982  0.00  0.00    +0.005 A 
ATOM     15  C   UNL     1      -6.473   7.567 -13.134  0.00  0.00    +0.000 A 
ATOM     16  C   UNL     1      -6.097   6.295 -13.524  0.00  0.00    +0.002 A 
ATOM     17  C   UNL     1      -5.196   5.576 -12.763  0.00  0.00    +0.023 A 
ATOM     18  C   UNL     1      -4.663   6.134 -11.608  0.00  0.00    +0.037 A 
BRANCH  13  20
ATOM     19  C   UNL     1      -3.082   8.578 -10.256  0.00  0.00    +0.009 C 
ATOM     20  C   UNL     1      -4.474   8.017  -9.962  0.00  0.00    +0.033 C 
ENDBRANCH  13  20
ENDBRANCH   9  18
ENDBRANCH   8  10
ENDBRANCH   7   8
ENDBRANCH   2   7
ENDBRANCH   1   5
BRANCH   1  21
ATOM     21  N   UNL     1       0.443   1.893  -5.888  0.00  0.00    -0.274 N 
ATOM     22  C   UNL     1       1.229   0.857  -5.534  0.00  0.00    +0.401 C 
ATOM     23  O   UNL     1       2.060   0.432  -6.312  0.00  0.00    -0.226 OA
ATOM     24  H   UNL     1      -0.167   2.282  -5.242  0.00  0.00    +0.152 HD
BRANCH  22  25
ATOM     25  O   UNL     1       1.093   0.293  -4.319  0.00  0.00    -0.445 OA
BRANCH  25  26
ATOM     26  C   UNL     1       1.897  -0.856  -4.044  0.00  0.00    +0.107 C 
ATOM     27  C   UNL     1       3.376  -0.471  -4.111  0.00  0.00    +0.055 C 
ATOM     28  C   UNL     1       1.570  -1.383  -2.645  0.00  0.00    +0.055 C 
ATOM     29  C   UNL     1       1.604  -1.943  -5.080  0.00  0.00    +0.055 C 
ENDBRANCH  25  26
ENDBRANCH  22  25
ENDBRANCH   1  21
BRANCH   1  30
ATOM     30  C   UNL     1       1.899   3.020  -7.497  0.00  0.00    +0.060 C 
BRANCH  30  31
ATOM     31  C   UNL     1       2.114   4.203  -6.589  0.00  0.00    -0.040 C 
ATOM     32  C   UNL     1       2.731   4.203  -5.385  0.00  0.00    -0.001 A 
ATOM     33  C   UNL     1       3.361   3.142  -4.591  0.00  0.00    +0.010 A 
ATOM     34  C   UNL     1       3.907   3.455  -3.394  0.00  0.00    +0.001 A 
ATOM     35  C   UNL     1       3.886   4.764  -2.894  0.00  0.00    +0.002 A 
ATOM     36  C   UNL     1       3.325   5.793  -3.565  0.00  0.00    +0.026 A 
ATOM     37  C   UNL     1       2.722   5.578  -4.835  0.00  0.00    +0.043 A 
ATOM     38  N   UNL     1       2.123   6.396  -5.666  0.00  0.00    -0.380 N 
ATOM     39  C   UNL     1       1.689   5.633  -6.842  0.00  0.00    +0.144 C 
ATOM     40  H   UNL     1       1.992   7.347  -5.529  0.00  0.00    +0.160 HD
ENDBRANCH  30  31
ENDBRANCH   1  30
TORSDOF 11
