REMARK  Name = ZINC36555664
REMARK  14 active torsions:
REMARK  status: ('A' for Active; 'I' for Inactive)
REMARK    1  A    between atoms: C_1  and  C_2
REMARK    2  A    between atoms: C_5  and  C_7
REMARK    3  A    between atoms: C_7  and  N_8
REMARK    4  A    between atoms: N_8  and  C_9
REMARK    5  A    between atoms: C_9  and  C_11
REMARK    6  A    between atoms: C_9  and  C_20
REMARK    7  A    between atoms: C_14  and  N_17
REMARK    8  A    between atoms: N_22  and  C_23
REMARK    9  A    between atoms: C_23  and  C_24
REMARK   10  A    between atoms: C_23  and  C_25
REMARK   11  A    between atoms: C_23  and  C_26
REMARK   12  A    between atoms: C_27  and  C_29
REMARK   13  A    between atoms: C_34  and  O_35
REMARK   14  A    between atoms: O_35  and  C_36
REMARK                            x       y       z     vdW  Elec       q    Type
REMARK                         _______ _______ _______ _____ _____    ______ ____
ROOT
ATOM      1  N   UNL     1       2.922  -2.504  -1.436  0.00  0.00    -0.275 N 
ATOM      2  C   UNL     1       1.710  -2.009  -1.117  0.00  0.00    +0.251 C 
ATOM      3  O   UNL     1       1.442  -1.757   0.042  0.00  0.00    -0.270 OA
ENDROOT
BRANCH   2   4
ATOM      4  C   UNL     1       0.709  -1.772  -2.174  0.00  0.00    +0.078 A 
ATOM      5  C   UNL     1       0.837  -2.399  -3.416  0.00  0.00    +0.017 A 
ATOM      6  C   UNL     1      -0.102  -2.174  -4.399  0.00  0.00    +0.001 A 
ATOM      7  C   UNL     1      -1.174  -1.329  -4.162  0.00  0.00    +0.004 A 
ATOM      8  C   UNL     1      -1.313  -0.704  -2.939  0.00  0.00    +0.046 A 
ATOM      9  C   UNL     1      -0.380  -0.923  -1.936  0.00  0.00    +0.132 A 
BRANCH   9  10
ATOM     10  O   UNL     1      -0.518  -0.313  -0.732  0.00  0.00    -0.494 OA
ATOM     11  C   UNL     1      -1.652   0.539  -0.563  0.00  0.00    +0.277 C 
ENDBRANCH   9  10
ENDBRANCH   2   4
BRANCH   1  12
ATOM     12  C   UNL     1       3.859  -2.888  -0.377  0.00  0.00    +0.183 C 
BRANCH  12  17
ATOM     13  C   UNL     1       2.142  -7.278   1.417  0.00  0.00    +0.086 C 
ATOM     14  C   UNL     1       2.986  -6.274   0.675  0.00  0.00    +0.102 A 
ATOM     15  C   UNL     1       4.062  -6.556  -0.081  0.00  0.00    +0.045 A 
ATOM     16  C   UNL     1       4.543  -5.325  -0.583  0.00  0.00    +0.046 A 
ATOM     17  C   UNL     1       3.732  -4.365  -0.105  0.00  0.00    +0.122 A 
ATOM     18  O   UNL     1       2.787  -4.946   0.652  0.00  0.00    -0.463 OA
ENDBRANCH  12  17
ENDBRANCH   1  12
BRANCH   1  19
ATOM     19  C   UNL     1       3.304  -2.658  -2.842  0.00  0.00    +0.193 C 
BRANCH  19  20
ATOM     20  C   UNL     1       2.796  -1.480  -3.632  0.00  0.00    -0.018 A 
ATOM     21  C   UNL     1       2.338  -0.353  -2.976  0.00  0.00    +0.008 A 
ATOM     22  C   UNL     1       1.872   0.728  -3.701  0.00  0.00    +0.033 A 
ATOM     23  C   UNL     1       1.866   0.682  -5.083  0.00  0.00    +0.126 A 
ATOM     24  C   UNL     1       2.326  -0.444  -5.739  0.00  0.00    +0.033 A 
ATOM     25  C   UNL     1       2.795  -1.523  -5.014  0.00  0.00    +0.008 A 
BRANCH  23  26
ATOM     26  N   UNL     1       1.367   1.839  -5.859  0.00  0.00    +0.056 N 
ATOM     27  O   UNL     1       0.965   2.824  -5.285  0.00  0.00    -0.126 OA
ATOM     28  O   UNL     1       1.362   1.800  -7.067  0.00  0.00    -0.126 OA
ENDBRANCH  23  26
ENDBRANCH  19  20
BRANCH  19  29
ATOM     29  C   UNL     1       4.805  -2.727  -2.951  0.00  0.00    +0.239 C 
ATOM     30  O   UNL     1       5.441  -3.385  -2.155  0.00  0.00    -0.273 OA
ATOM     31  N   UNL     1       5.441  -2.057  -3.932  0.00  0.00    -0.309 N 
ATOM     32  H   UNL     1       4.939  -1.488  -4.535  0.00  0.00    +0.149 HD
BRANCH  31  33
ATOM     33  C   UNL     1       6.892  -2.188  -4.087  0.00  0.00    +0.026 C 
ATOM     34  C   UNL     1       7.244  -3.649  -4.377  0.00  0.00    +0.031 C 
ATOM     35  C   UNL     1       7.362  -1.311  -5.249  0.00  0.00    +0.031 C 
ATOM     36  C   UNL     1       7.586  -1.743  -2.798  0.00  0.00    +0.031 C 
ENDBRANCH  31  33
ENDBRANCH  19  29
ENDBRANCH   1  19
TORSDOF 9
