REMARK  Name = ZINC39935190
REMARK  8 active torsions:
REMARK  status: ('A' for Active; 'I' for Inactive)
REMARK    1  A    between atoms: C_1  and  C_2
REMARK    2  A    between atoms: C_2  and  C_4
REMARK    3  A    between atoms: C_2  and  S_16
REMARK    4  A    between atoms: N_6  and  C_7
REMARK    5  A    between atoms: C_10  and  C_13
REMARK    6  A    between atoms: S_16  and  C_17
REMARK    7  A    between atoms: C_21  and  C_26
REMARK    8  A    between atoms: N_22  and  C_23
REMARK                            x       y       z     vdW  Elec       q    Type
REMARK                         _______ _______ _______ _____ _____    ______ ____
ROOT
ATOM      1  C   UNL     1      -2.371  -0.168  -1.581  0.00  0.00    +0.238 C 
ATOM      2  N   UNL     1      -2.459   1.294  -1.737  0.00  0.00    -0.237 N 
ATOM      3  N   UNL     1      -1.662   1.624  -2.840  0.00  0.00    -0.169 NA
ATOM      4  C   UNL     1      -1.111   0.561  -3.363  0.00  0.00    +0.147 C 
ATOM      5  N   UNL     1      -1.479  -0.599  -2.670  0.00  0.00    -0.282 N 
ATOM      6  H   UNL     1      -2.969   1.907  -1.185  0.00  0.00    +0.171 HD
ENDROOT
BRANCH   4   7
ATOM      7  C   UNL     1      -0.260   0.579  -4.479  0.00  0.00    +0.022 C 
ATOM      8  C   UNL     1       0.221   1.701  -5.155  0.00  0.00    +0.006 A 
ATOM      9  C   UNL     1       0.032   3.085  -4.959  0.00  0.00    +0.010 A 
ATOM     10  C   UNL     1       0.639   3.972  -5.790  0.00  0.00    +0.001 A 
ATOM     11  C   UNL     1       1.454   3.549  -6.842  0.00  0.00    +0.002 A 
ATOM     12  C   UNL     1       1.680   2.235  -7.088  0.00  0.00    +0.026 A 
ATOM     13  C   UNL     1       1.079   1.249  -6.262  0.00  0.00    +0.043 A 
ATOM     14  N   UNL     1       1.140  -0.068  -6.291  0.00  0.00    -0.380 N 
ATOM     15  C   UNL     1       0.331  -0.614  -5.197  0.00  0.00    +0.152 C 
ATOM     16  H   UNL     1       1.645  -0.592  -6.932  0.00  0.00    +0.160 HD
ENDBRANCH   4   7
BRANCH   5  17
ATOM     17  C   UNL     1      -1.059  -1.970  -2.967  0.00  0.00    +0.078 C 
ATOM     18  C   UNL     1      -1.653  -3.092  -2.113  0.00  0.00    +0.024 C 
ATOM     19  C   UNL     1      -0.190  -2.684  -1.930  0.00  0.00    +0.024 C 
ENDBRANCH   5  17
BRANCH   1  20
ATOM     20  S   UNL     1      -1.655  -0.592   0.031  0.00  0.00    -0.106 S 
BRANCH  20  22
ATOM     21  C   UNL     1      -0.281   1.773   0.010  0.00  0.00    +0.029 C 
ATOM     22  C   UNL     1      -0.054   0.261   0.038  0.00  0.00    +0.133 C 
BRANCH  22  23
ATOM     23  C   UNL     1       0.707  -0.110   1.285  0.00  0.00    +0.230 C 
ATOM     24  O   UNL     1       0.117  -0.559   2.244  0.00  0.00    -0.274 OA
ATOM     25  N   UNL     1       2.043   0.058   1.334  0.00  0.00    -0.285 N 
ATOM     26  H   UNL     1       2.524   0.355   0.546  0.00  0.00    +0.155 HD
BRANCH  25  27
ATOM     27  C   UNL     1       2.735  -0.197   2.518  0.00  0.00    +0.033 A 
ATOM     28  C   UNL     1       2.327  -1.233   3.351  0.00  0.00    +0.024 A 
ATOM     29  C   UNL     1       3.007  -1.486   4.521  0.00  0.00    +0.015 A 
ATOM     30  C   UNL     1       4.110  -0.702   4.870  0.00  0.00    +0.037 A 
ATOM     31  C   UNL     1       4.518   0.338   4.030  0.00  0.00    +0.015 A 
ATOM     32  C   UNL     1       3.836   0.583   2.859  0.00  0.00    +0.024 A 
BRANCH  30  33
ATOM     33  C   UNL     1       4.842  -0.971   6.123  0.00  0.00    +0.242 C 
ATOM     34  O   UNL     1       4.486  -1.875   6.853  0.00  0.00    -0.270 OA
ATOM     35  N   UNL     1       5.905  -0.213   6.458  0.00  0.00    -0.325 N 
ATOM     36  H   UNL     1       6.190   0.508   5.876  0.00  0.00    +0.145 HD
ATOM     37  H   UNL     1       6.386  -0.390   7.282  0.00  0.00    +0.145 HD
ENDBRANCH  30  33
ENDBRANCH  25  27
ENDBRANCH  22  23
ENDBRANCH  20  22
ENDBRANCH   1  20
TORSDOF 7
