REMARK  Name = ZINC35777613
REMARK  15 active torsions:
REMARK  status: ('A' for Active; 'I' for Inactive)
REMARK    1  A    between atoms: C_1  and  C_2
REMARK    2  A    between atoms: C_2  and  C_3
REMARK    3  A    between atoms: C_4  and  C_22
REMARK    4  A    between atoms: C_5  and  O_15
REMARK    5  A    between atoms: N_6  and  C_8
REMARK    6  A    between atoms: O_15  and  C_16
REMARK    7  A    between atoms: C_22  and  N_23
REMARK    8  A    between atoms: N_23  and  C_24
REMARK    9  A    between atoms: N_23  and  C_30
REMARK   10  A    between atoms: C_24  and  C_25
REMARK   11  A    between atoms: C_30  and  C_31
REMARK   12  A    between atoms: C_31  and  C_33
REMARK   13  A    between atoms: C_31  and  O_37
REMARK   14  A    between atoms: C_33  and  C_34
REMARK   15  A    between atoms: C_34  and  C_35
REMARK                            x       y       z     vdW  Elec       q    Type
REMARK                         _______ _______ _______ _____ _____    ______ ____
ROOT
ATOM      1  C   UNL     1       0.407  -0.228   1.432  0.00  0.00    +0.068 A 
ATOM      2  C   UNL     1       1.674  -0.310   0.848  0.00  0.00    +0.021 A 
ATOM      3  C   UNL     1       2.555  -0.687   1.812  0.00  0.00    +0.225 A 
ATOM      4  N   UNL     1       1.856  -0.837   2.969  0.00  0.00    -0.200 N 
ATOM      5  N   UNL     1       0.515  -0.536   2.700  0.00  0.00    -0.168 NA
ENDROOT
BRANCH   4   6
ATOM      6  C   UNL     1       2.385  -1.218   4.210  0.00  0.00    +0.069 A 
ATOM      7  C   UNL     1       3.337  -2.226   4.280  0.00  0.00    +0.031 A 
ATOM      8  C   UNL     1       3.856  -2.600   5.504  0.00  0.00    +0.040 A 
ATOM      9  C   UNL     1       3.428  -1.971   6.661  0.00  0.00    +0.124 A 
ATOM     10  C   UNL     1       2.478  -0.965   6.593  0.00  0.00    +0.040 A 
ATOM     11  C   UNL     1       1.961  -0.584   5.370  0.00  0.00    +0.031 A 
ATOM     12  F   UNL     1       3.937  -2.338   7.857  0.00  0.00    -0.205 F 
ENDBRANCH   4   6
BRANCH   1  14
ATOM     13  C   UNL     1      -1.054   1.674   0.801  0.00  0.00    +0.010 C 
ATOM     14  C   UNL     1      -0.867   0.158   0.725  0.00  0.00    +0.054 C 
ENDBRANCH   1  14
BRANCH   3  15
ATOM     15  O   UNL     1       3.889  -0.880   1.649  0.00  0.00    -0.438 OA
BRANCH  15  16
ATOM     16  C   UNL     1       4.308  -2.088   1.188  0.00  0.00    +0.130 A 
ATOM     17  C   UNL     1       3.380  -3.037   0.784  0.00  0.00    +0.046 A 
ATOM     18  C   UNL     1       3.808  -4.264   0.315  0.00  0.00    +0.004 A 
ATOM     19  C   UNL     1       5.160  -4.547   0.250  0.00  0.00    +0.000 A 
ATOM     20  C   UNL     1       6.086  -3.603   0.653  0.00  0.00    +0.004 A 
ATOM     21  C   UNL     1       5.664  -2.372   1.116  0.00  0.00    +0.046 A 
ENDBRANCH  15  16
ENDBRANCH   3  15
BRANCH   2  22
ATOM     22  C   UNL     1       2.004  -0.030  -0.596  0.00  0.00    -0.035 C 
BRANCH  22  23
ATOM     23  N   UNL     1       2.252   1.407  -0.772  0.00  0.00    +0.389 N 
ATOM     24  H   UNL     1       1.459   1.930  -0.430  0.00  0.00    -0.081 HD
BRANCH  23  25
ATOM     25  C   UNL     1       2.454   1.699  -2.197  0.00  0.00    -0.003 C 
BRANCH  25  26
ATOM     26  C   UNL     1       1.179   1.422  -2.952  0.00  0.00    +0.089 A 
ATOM     27  C   UNL     1       0.213   2.320  -3.220  0.00  0.00    +0.042 A 
ATOM     28  C   UNL     1      -0.792   1.636  -3.942  0.00  0.00    +0.041 A 
ATOM     29  C   UNL     1      -0.380   0.362  -4.073  0.00  0.00    +0.195 A 
ATOM     30  O   UNL     1       0.817   0.240  -3.476  0.00  0.00    -0.470 OA
ENDBRANCH  25  26
ENDBRANCH  23  25
BRANCH  23  31
ATOM     31  C   UNL     1       3.453   1.793  -0.018  0.00  0.00    -0.046 C 
BRANCH  31  32
ATOM     32  C   UNL     1       3.640   3.309  -0.099  0.00  0.00    +0.098 C 
BRANCH  32  33
ATOM     33  O   UNL     1       2.554   3.959   0.563  0.00  0.00    -0.394 OA
ATOM     34  H   UNL     1       2.471   3.732   1.499  0.00  0.00    +0.210 HD
ENDBRANCH  32  33
BRANCH  32  35
ATOM     35  C   UNL     1       4.956   3.697   0.579  0.00  0.00    +0.033 C 
BRANCH  35  36
ATOM     36  C   UNL     1       5.205   5.195   0.390  0.00  0.00    +0.029 C 
BRANCH  36  37
ATOM     37  C   UNL     1       6.501   5.577   1.058  0.00  0.00    -0.034 C 
ATOM     38  C   UNL     1       7.437   6.184   0.372  0.00  0.00    +0.004 C 
ENDBRANCH  36  37
ENDBRANCH  35  36
ENDBRANCH  32  35
ENDBRANCH  31  32
ENDBRANCH  23  31
ENDBRANCH  22  23
ENDBRANCH   2  22
TORSDOF 14
