REMARK  Name = ZINC46912730
REMARK  6 active torsions:
REMARK  status: ('A' for Active; 'I' for Inactive)
REMARK    1  A    between atoms: C_1  and  C_2
REMARK    2  A    between atoms: C_2  and  C_3
REMARK    3  A    between atoms: C_2  and  N_4
REMARK    4  A    between atoms: C_10  and  C_13
REMARK    5  A    between atoms: N_18  and  S_21
REMARK    6  A    between atoms: S_21  and  C_24
REMARK                            x       y       z     vdW  Elec       q    Type
REMARK                         _______ _______ _______ _____ _____    ______ ____
ROOT
ATOM      1  C   UNL     1      -5.736  -4.684  -1.075  0.00  0.00    +0.219 C 
ATOM      2  O   UNL     1      -5.473  -5.412  -0.141  0.00  0.00    -0.275 OA
ATOM      3  N   UNL     1      -6.447  -5.155  -2.118  0.00  0.00    -0.299 N 
ATOM      4  C   UNL     1      -6.856  -4.261  -3.210  0.00  0.00    +0.125 C 
ATOM      5  C   UNL     1      -6.350  -4.843  -4.536  0.00  0.00    +0.128 C 
ATOM      6  N   UNL     1      -6.731  -6.261  -4.601  0.00  0.00    -0.174 NA
ATOM      7  C   UNL     1      -6.323  -7.156  -3.509  0.00  0.00    +0.128 C 
ATOM      8  C   UNL     1      -6.824  -6.574  -2.186  0.00  0.00    +0.125 C 
ENDROOT
BRANCH   1  15
ATOM      9  N   UNL     1      -2.213  -0.266   1.291  0.00  0.00    -0.297 N 
ATOM     10  C   UNL     1      -2.298  -0.618  -0.007  0.00  0.00    +0.302 C 
ATOM     11  O   UNL     1      -1.357  -0.422  -0.752  0.00  0.00    -0.253 OA
ATOM     12  N   UNL     1      -3.424  -1.188  -0.479  0.00  0.00    -0.286 N 
ATOM     13  C   UNL     1      -4.610  -1.325   0.378  0.00  0.00    +0.110 C 
ATOM     14  C   UNL     1      -5.054  -2.791   0.375  0.00  0.00    +0.032 C 
ATOM     15  C   UNL     1      -5.266  -3.252  -1.069  0.00  0.00    +0.078 C 
ATOM     16  C   UNL     1      -3.948  -3.145  -1.839  0.00  0.00    +0.032 C 
ATOM     17  C   UNL     1      -3.493  -1.677  -1.863  0.00  0.00    +0.110 C 
ATOM     18  H   UNL     1      -2.988  -0.354   1.869  0.00  0.00    +0.150 HD
BRANCH   9  20
ATOM     19  C   UNL     1      -0.862   1.754   1.568  0.00  0.00    +0.027 C 
ATOM     20  C   UNL     1      -0.952   0.249   1.830  0.00  0.00    +0.068 C 
ATOM     21  C   UNL     1      -0.898  -0.011   3.337  0.00  0.00    +0.027 C 
ENDBRANCH   9  20
ENDBRANCH   1  15
BRANCH   6  22
ATOM     22  S   UNL     1      -7.606  -6.840  -5.883  0.00  0.00    +0.064 S 
ATOM     23  O   UNL     1      -8.275  -8.007  -5.424  0.00  0.00    -0.153 OA
ATOM     24  O   UNL     1      -8.301  -5.731  -6.435  0.00  0.00    -0.153 OA
BRANCH  22  25
ATOM     25  C   UNL     1      -6.452  -7.369  -7.105  0.00  0.00    +0.141 A 
ATOM     26  C   UNL     1      -6.374  -8.706  -7.449  0.00  0.00    +0.034 A 
ATOM     27  C   UNL     1      -5.469  -9.122  -8.407  0.00  0.00    +0.040 A 
ATOM     28  C   UNL     1      -4.639  -8.200  -9.024  0.00  0.00    +0.126 A 
ATOM     29  C   UNL     1      -4.717  -6.862  -8.680  0.00  0.00    +0.078 A 
ATOM     30  C   UNL     1      -5.627  -6.445  -7.724  0.00  0.00    +0.152 A 
ATOM     31  F   UNL     1      -5.707  -5.138  -7.391  0.00  0.00    -0.203 F 
ATOM     32  F   UNL     1      -3.755  -8.607  -9.960  0.00  0.00    -0.205 F 
ENDBRANCH  22  25
ENDBRANCH   6  22
TORSDOF 4
