REMARK  Name = ZINC38568857
REMARK  3 active torsions:
REMARK  status: ('A' for Active; 'I' for Inactive)
REMARK    1  A    between atoms: C_3  and  N_6
REMARK    2  A    between atoms: N_9  and  C_10
REMARK    3  A    between atoms: C_10  and  C_11
REMARK                            x       y       z     vdW  Elec       q    Type
REMARK                         _______ _______ _______ _____ _____    ______ ____
ROOT
ATOM      1  N   UNL     1       3.663   1.800  -0.024  0.00  0.00    -0.264 N 
ATOM      2  C   UNL     1       4.690   0.927  -0.038  0.00  0.00    +0.304 C 
ATOM      3  O   UNL     1       4.471  -0.269  -0.042  0.00  0.00    -0.252 OA
ATOM      4  N   UNL     1       5.959   1.379  -0.048  0.00  0.00    -0.297 N 
ATOM      5  H   UNL     1       3.838   2.754  -0.021  0.00  0.00    +0.157 HD
ATOM      6  H   UNL     1       6.134   2.333  -0.045  0.00  0.00    +0.150 HD
ENDROOT
BRANCH   1   9
ATOM      7  C   UNL     1      -0.016   1.350   0.009  0.00  0.00    +0.009 A 
ATOM      8  C   UNL     1       1.183   2.039   0.002  0.00  0.00    +0.031 A 
ATOM      9  C   UNL     1       2.346   1.331  -0.013  0.00  0.00    +0.073 A 
ATOM     10  S   UNL     1       1.753  -0.353  -0.017  0.00  0.00    -0.082 S 
ATOM     11  C   UNL     1       0.002  -0.004   0.002  0.00  0.00    +0.047 A 
ENDBRANCH   1   9
BRANCH   4  12
ATOM     12  C   UNL     1       7.075   0.430  -0.064  0.00  0.00    +0.139 C 
BRANCH  12  13
ATOM     13  C   UNL     1       8.398   1.198  -0.073  0.00  0.00    +0.164 C 
ATOM     14  C   UNL     1       9.603   0.227  -0.137  0.00  0.00    +0.196 C 
ATOM     15  O   UNL     1      10.664   0.981   0.484  0.00  0.00    -0.346 OA
ATOM     16  C   UNL     1      10.049   1.991   1.295  0.00  0.00    +0.171 C 
ATOM     17  O   UNL     1       8.621   1.862   1.195  0.00  0.00    -0.342 OA
ATOM     18  C   UNL     1      10.470   3.375   0.798  0.00  0.00    +0.065 C 
ATOM     19  C   UNL     1      11.989   3.516   0.909  0.00  0.00    +0.005 C 
ATOM     20  C   UNL     1      12.413   3.343   2.369  0.00  0.00    +0.000 C 
ATOM     21  C   UNL     1      11.996   1.955   2.860  0.00  0.00    +0.005 C 
ATOM     22  C   UNL     1      10.476   1.811   2.752  0.00  0.00    +0.065 C 
ENDBRANCH  12  13
ENDBRANCH   4  12
TORSDOF 3
