REMARK  Name = ZINC13098811
REMARK  7 active torsions:
REMARK  status: ('A' for Active; 'I' for Inactive)
REMARK    1  A    between atoms: C_1  and  C_2
REMARK    2  A    between atoms: C_7  and  N_8
REMARK    3  A    between atoms: N_11  and  C_14
REMARK    4  A    between atoms: C_14  and  C_16
REMARK    5  A    between atoms: C_14  and  C_22
REMARK    6  A    between atoms: N_24  and  C_25
REMARK    7  A    between atoms: C_28  and  N_32
REMARK                            x       y       z     vdW  Elec       q    Type
REMARK                         _______ _______ _______ _____ _____    ______ ____
ROOT
ATOM      1  C   UNL     1       0.253   0.111   6.639  0.00  0.00    +0.174 C 
ENDROOT
BRANCH   1   5
ATOM      2  N   UNL     1      -1.907   1.316   3.248  0.00  0.00    -0.327 N 
ATOM      3  C   UNL     1      -0.879   2.241   3.749  0.00  0.00    +0.120 C 
ATOM      4  C   UNL     1      -0.569   1.881   5.206  0.00  0.00    +0.104 C 
ATOM      5  N   UNL     1      -0.217   0.457   5.291  0.00  0.00    -0.285 NA
ATOM      6  C   UNL     1      -1.346  -0.395   4.892  0.00  0.00    +0.104 C 
ATOM      7  C   UNL     1      -1.691  -0.128   3.428  0.00  0.00    +0.120 C 
BRANCH   2  14
ATOM      8  C   UNL     1      -1.856   1.675   0.427  0.00  0.00    +0.045 C 
ATOM      9  C   UNL     1      -3.080   1.986   1.248  0.00  0.00    -0.029 A 
ATOM     10  C   UNL     1      -4.224   2.456   0.634  0.00  0.00    +0.005 A 
ATOM     11  C   UNL     1      -5.348   2.743   1.387  0.00  0.00    +0.000 A 
ATOM     12  C   UNL     1      -5.330   2.560   2.757  0.00  0.00    +0.002 A 
ATOM     13  C   UNL     1      -4.190   2.090   3.379  0.00  0.00    +0.023 A 
ATOM     14  C   UNL     1      -3.061   1.796   2.624  0.00  0.00    +0.033 A 
ENDBRANCH   2  14
ENDBRANCH   1   5
BRANCH   1  15
ATOM     15  C   UNL     1       1.438   0.971   6.994  0.00  0.00    -0.021 A 
ATOM     16  C   UNL     1       2.449   1.170   6.072  0.00  0.00    +0.005 A 
ATOM     17  C   UNL     1       3.536   1.960   6.398  0.00  0.00    +0.000 A 
ATOM     18  C   UNL     1       3.612   2.551   7.645  0.00  0.00    +0.000 A 
ATOM     19  C   UNL     1       2.601   2.353   8.566  0.00  0.00    +0.000 A 
ATOM     20  C   UNL     1       1.512   1.567   8.239  0.00  0.00    +0.005 A 
ENDBRANCH   1  15
BRANCH   1  21
ATOM     21  C   UNL     1       0.658  -1.340   6.671  0.00  0.00    +0.239 C 
ATOM     22  O   UNL     1       1.003  -1.897   5.650  0.00  0.00    -0.273 OA
ATOM     23  N   UNL     1       0.639  -2.019   7.835  0.00  0.00    -0.283 N 
ATOM     24  H   UNL     1       0.419  -1.560   8.661  0.00  0.00    +0.155 HD
BRANCH  23  25
ATOM     25  C   UNL     1       0.936  -3.387   7.853  0.00  0.00    +0.048 A 
ATOM     26  C   UNL     1       1.771  -3.930   6.886  0.00  0.00    +0.026 A 
ATOM     27  C   UNL     1       2.062  -5.280   6.906  0.00  0.00    +0.034 A 
ATOM     28  C   UNL     1       1.522  -6.091   7.887  0.00  0.00    +0.127 A 
ATOM     29  C   UNL     1       0.690  -5.555   8.851  0.00  0.00    +0.049 A 
ATOM     30  C   UNL     1       0.399  -4.204   8.841  0.00  0.00    +0.041 A 
ATOM     31 BR   UNL     1      -0.733  -3.468  10.165  0.00  0.00    -0.048 Br
BRANCH  28  32
ATOM     32  N   UNL     1       1.836  -7.538   7.904  0.00  0.00    +0.056 N 
ATOM     33  O   UNL     1       2.563  -8.009   7.061  0.00  0.00    -0.126 OA
ATOM     34  O   UNL     1       1.365  -8.249   8.761  0.00  0.00    -0.126 OA
ENDBRANCH  28  32
ENDBRANCH  23  25
ENDBRANCH   1  21
TORSDOF 6
