REMARK  Name = ZINC13479723
REMARK  7 active torsions:
REMARK  status: ('A' for Active; 'I' for Inactive)
REMARK    1  A    between atoms: C_1  and  C_2
REMARK    2  A    between atoms: C_2  and  C_3
REMARK    3  A    between atoms: C_2  and  N_47
REMARK    4  A    between atoms: C_10  and  C_22
REMARK    5  A    between atoms: C_12  and  C_20
REMARK    6  A    between atoms: C_14  and  C_15
REMARK    7  A    between atoms: C_14  and  C_17
REMARK                            x       y       z     vdW  Elec       q    Type
REMARK                         _______ _______ _______ _____ _____    ______ ____
ROOT
ATOM      1  C   UNL     1      -2.300   1.617  -3.081  0.00  0.00    -0.051 C 
ATOM      2  C   UNL     1      -1.536   1.166  -1.865  0.00  0.00    -0.043 C 
ATOM      3  C   UNL     1      -0.742   1.972  -1.223  0.00  0.00    -0.034 C 
ATOM      4  C   UNL     1      -0.495   3.399  -1.633  0.00  0.00    +0.010 C 
ATOM      5  C   UNL     1      -1.280   3.768  -2.884  0.00  0.00    -0.070 C 
ATOM      6  C   UNL     1       1.002   3.569  -1.913  0.00  0.00    +0.048 C 
ATOM      7  C   UNL     1       1.824   2.927  -0.840  0.00  0.00    +0.146 C 
ATOM      8  C   UNL     1       1.391   1.990  -0.001  0.00  0.00    +0.065 C 
ATOM      9  C   UNL     1      -0.018   1.468   0.010  0.00  0.00    +0.202 C 
ATOM     10  N   UNL     1       2.280   1.470   0.904  0.00  0.00    -0.304 NA
ATOM     11  H   UNL     1       1.992   0.786   1.528  0.00  0.00    +0.186 HD
ATOM     12  N   UNL     1      -2.556   3.062  -2.936  0.00  0.00    +0.384 N 
ATOM     13  H   UNL     1      -3.070   3.228  -2.063  0.00  0.00    -0.081 HD
ENDROOT
BRANCH   6  14
ATOM     14  C   UNL     1       1.330   5.038  -1.976  0.00  0.00    -0.024 A 
ATOM     15  C   UNL     1       1.121   5.842  -0.871  0.00  0.00    +0.005 A 
ATOM     16  C   UNL     1       1.427   7.189  -0.927  0.00  0.00    +0.000 A 
ATOM     17  C   UNL     1       1.932   7.735  -2.092  0.00  0.00    +0.001 A 
ATOM     18  C   UNL     1       2.136   6.934  -3.200  0.00  0.00    +0.020 A 
ATOM     19  C   UNL     1       1.836   5.585  -3.142  0.00  0.00    +0.044 A 
ATOM     20 CL   UNL     1       2.093   4.578  -4.533  0.00  0.00    -0.083 Cl
ENDBRANCH   6  14
BRANCH  12  22
ATOM     21  C   UNL     1      -2.628   3.317  -5.391  0.00  0.00    -0.014 C 
ATOM     22  C   UNL     1      -3.369   3.553  -4.074  0.00  0.00    -0.074 C 
ATOM     23  C   UNL     1      -4.702   2.802  -4.098  0.00  0.00    -0.014 C 
ENDBRANCH  12  22
BRANCH   9  24
ATOM     24  C   UNL     1       0.002  -0.004   0.002  0.00  0.00    +0.095 C 
ATOM     25  N   UNL     1       0.018  -1.140  -0.004  0.00  0.00    -0.194 NA
ENDBRANCH   9  24
BRANCH   9  26
ATOM     26  C   UNL     1      -0.710   1.944   1.219  0.00  0.00    +0.095 C 
ATOM     27  N   UNL     1      -1.244   2.312   2.151  0.00  0.00    -0.194 NA
ENDBRANCH   9  26
BRANCH   7  28
ATOM     28  C   UNL     1       3.184   3.357  -0.704  0.00  0.00    +0.072 C 
ATOM     29  N   UNL     1       4.262   3.697  -0.597  0.00  0.00    -0.196 NA
ENDBRANCH   7  28
TORSDOF 5
