REMARK  Name = ZINC39533406
REMARK  11 active torsions:
REMARK  status: ('A' for Active; 'I' for Inactive)
REMARK    1  A    between atoms: C_1  and  C_2
REMARK    2  A    between atoms: C_2  and  C_3
REMARK    3  A    between atoms: C_2  and  C_4
REMARK    4  A    between atoms: C_4  and  C_5
REMARK    5  A    between atoms: C_8  and  C_11
REMARK    6  A    between atoms: C_11  and  C_13
REMARK    7  A    between atoms: C_11  and  N_22
REMARK    8  A    between atoms: C_13  and  N_14
REMARK    9  A    between atoms: N_14  and  C_15
REMARK   10  A    between atoms: C_20  and  O_21
REMARK   11  A    between atoms: C_26  and  O_29
REMARK                            x       y       z     vdW  Elec       q    Type
REMARK                         _______ _______ _______ _____ _____    ______ ____
ROOT
ATOM      1  C   UNL     1      -1.418  -6.218  -0.502  0.00  0.00    +0.104 C 
ENDROOT
BRANCH   1   2
ATOM      2  N   UNL     1      -2.228  -6.683   0.631  0.00  0.00    -0.295 NA
ATOM      3  C   UNL     1      -2.120  -8.139   0.793  0.00  0.00    +0.066 C 
ATOM      4  C   UNL     1      -2.929  -8.575   2.017  0.00  0.00    -0.063 C 
ATOM      5  N   UNL     1      -4.335  -8.189   1.838  0.00  0.00    +0.398 N 
ATOM      6  C   UNL     1      -4.429  -6.729   1.702  0.00  0.00    +0.073 C 
ATOM      7  C   UNL     1      -3.633  -6.278   0.475  0.00  0.00    +0.096 C 
ATOM      8  H   UNL     1      -4.701  -8.628   1.007  0.00  0.00    -0.082 HD
ATOM      9  H   UNL     1      -4.870  -8.487   2.639  0.00  0.00    -0.082 HD
BRANCH   6  10
ATOM     10  O   UNL     1      -5.799  -6.353   1.545  0.00  0.00    -0.409 OA
ATOM     11  H   UNL     1      -6.364  -6.608   2.287  0.00  0.00    +0.207 HD
ENDBRANCH   6  10
ENDBRANCH   1   2
BRANCH   1  15
ATOM     12  C   UNL     1      -1.657  -1.961  -0.770  0.00  0.00    -0.047 A 
ATOM     13  C   UNL     1      -1.674  -2.728  -1.920  0.00  0.00    +0.004 A 
ATOM     14  C   UNL     1      -1.597  -4.105  -1.833  0.00  0.00    +0.005 A 
ATOM     15  C   UNL     1      -1.502  -4.716  -0.597  0.00  0.00    -0.029 A 
ATOM     16  C   UNL     1      -1.484  -3.949   0.553  0.00  0.00    +0.005 A 
ATOM     17  C   UNL     1      -1.557  -2.571   0.466  0.00  0.00    +0.004 A 
BRANCH  12  18
ATOM     18  C   UNL     1      -1.742  -0.459  -0.864  0.00  0.00    +0.038 C 
BRANCH  18  20
ATOM     19  C   UNL     1      -0.423   1.636  -1.196  0.00  0.00    +0.007 C 
ATOM     20  C   UNL     1      -0.332   0.125  -0.975  0.00  0.00    -0.013 C 
ATOM     21  C   UNL     1       0.440  -0.157   0.315  0.00  0.00    +0.007 C 
ENDBRANCH  18  20
ENDBRANCH  12  18
ENDBRANCH   1  15
BRANCH   1  22
ATOM     22  C   UNL     1       0.039  -6.635  -0.293  0.00  0.00    +0.125 C 
BRANCH  22  23
ATOM     23  N   UNL     1       0.833  -6.241  -1.460  0.00  0.00    -0.339 N 
ATOM     24  H   UNL     1       0.418  -5.744  -2.183  0.00  0.00    +0.146 HD
BRANCH  23  25
ATOM     25  C   UNL     1       2.188  -6.582  -1.532  0.00  0.00    +0.069 A 
ATOM     26  C   UNL     1       2.781  -7.298  -0.502  0.00  0.00    +0.026 A 
ATOM     27  C   UNL     1       4.120  -7.634  -0.576  0.00  0.00    +0.002 A 
ATOM     28  C   UNL     1       4.871  -7.258  -1.674  0.00  0.00    +0.004 A 
ATOM     29  C   UNL     1       4.287  -6.544  -2.704  0.00  0.00    +0.047 A 
ATOM     30  C   UNL     1       2.944  -6.208  -2.640  0.00  0.00    +0.138 A 
BRANCH  30  31
ATOM     31  O   UNL     1       2.367  -5.511  -3.656  0.00  0.00    -0.505 OA
ATOM     32  H   UNL     1       2.413  -4.551  -3.549  0.00  0.00    +0.292 HD
ENDBRANCH  30  31
ENDBRANCH  23  25
ENDBRANCH  22  23
ENDBRANCH   1  22
TORSDOF 9
