REMARK  Name = ZINC63744009
REMARK  6 active torsions:
REMARK  status: ('A' for Active; 'I' for Inactive)
REMARK    1  A    between atoms: C_1  and  C_2
REMARK    2  A    between atoms: C_5  and  C_8
REMARK    3  A    between atoms: C_12  and  S_15
REMARK    4  A    between atoms: N_13  and  N_14
REMARK    5  A    between atoms: S_15  and  C_16
REMARK    6  A    between atoms: C_16  and  C_17
REMARK                            x       y       z     vdW  Elec       q    Type
REMARK                         _______ _______ _______ _____ _____    ______ ____
ROOT
ATOM      1  C   UNL     1       0.059  -4.275  -0.021  0.00  0.00    +0.223 C 
ATOM      2  N   UNL     1      -0.699  -4.796  -1.172  0.00  0.00    -0.241 N 
ATOM      3  N   UNL     1      -1.749  -5.552  -0.637  0.00  0.00    -0.161 NA
ATOM      4  C   UNL     1      -1.721  -5.554   0.653  0.00  0.00    +0.189 C 
ATOM      5  N   UNL     1      -0.658  -4.808   1.149  0.00  0.00    -0.221 N 
ATOM      6  H   UNL     1      -0.510  -4.645  -2.111  0.00  0.00    +0.171 HD
ENDROOT
BRANCH   1  11
ATOM      7  C   UNL     1      -0.018   1.503   0.010  0.00  0.00    +0.044 C 
ATOM      8  C   UNL     1       0.002  -0.004   0.002  0.00  0.00    -0.050 A 
ATOM      9  C   UNL     1       0.006  -0.689  -1.199  0.00  0.00    +0.004 A 
ATOM     10  C   UNL     1       0.025  -2.071  -1.206  0.00  0.00    +0.007 A 
ATOM     11  C   UNL     1       0.040  -2.768  -0.013  0.00  0.00    -0.007 A 
ATOM     12  C   UNL     1       0.037  -2.084   1.188  0.00  0.00    +0.007 A 
ATOM     13  C   UNL     1       0.023  -0.702   1.195  0.00  0.00    +0.004 A 
ENDBRANCH   1  11
BRANCH   5  14
ATOM     14  N   UNL     1      -0.340  -4.606   2.463  0.00  0.00    -0.250 NA
ATOM     15  H   UNL     1      -0.992  -5.082   3.069  0.00  0.00    +0.141 HD
ATOM     16  H   UNL     1       0.608  -4.895   2.654  0.00  0.00    +0.141 HD
ENDBRANCH   5  14
BRANCH   4  17
ATOM     17  S   UNL     1      -2.888  -6.402   1.665  0.00  0.00    -0.084 S 
BRANCH  17  18
ATOM     18  C   UNL     1      -4.013  -7.183   0.476  0.00  0.00    +0.124 C 
BRANCH  18  19
ATOM     19  C   UNL     1      -5.091  -7.963   1.231  0.00  0.00    +0.184 C 
ATOM     20  N   UNL     1      -5.809  -7.071   2.150  0.00  0.00    -0.363 N 
ATOM     21  C   UNL     1      -5.632  -7.527   3.356  0.00  0.00    +0.060 A 
ATOM     22  C   UNL     1      -6.095  -7.072   4.674  0.00  0.00    +0.027 A 
ATOM     23  C   UNL     1      -5.745  -7.763   5.777  0.00  0.00    +0.002 A 
ATOM     24  C   UNL     1      -4.944  -8.918   5.726  0.00  0.00    +0.002 A 
ATOM     25  C   UNL     1      -4.467  -9.421   4.569  0.00  0.00    +0.027 A 
ATOM     26  C   UNL     1      -4.785  -8.750   3.301  0.00  0.00    +0.060 A 
ATOM     27  N   UNL     1      -4.471  -9.002   2.064  0.00  0.00    -0.363 N 
ATOM     28  H   UNL     1      -6.321  -6.285   1.903  0.00  0.00    +0.162 HD
ATOM     29  H   UNL     1      -3.928  -9.742   1.749  0.00  0.00    +0.162 HD
ENDBRANCH  18  19
ENDBRANCH  17  18
ENDBRANCH   4  17
TORSDOF 5
