REMARK  Name = ZINC01896849
REMARK  7 active torsions:
REMARK  status: ('A' for Active; 'I' for Inactive)
REMARK    1  A    between atoms: C_1  and  C_2
REMARK    2  A    between atoms: C_5  and  C_7
REMARK    3  A    between atoms: C_10  and  N_41
REMARK    4  A    between atoms: C_11  and  C_23
REMARK    5  A    between atoms: N_25  and  C_26
REMARK    6  A    between atoms: C_31  and  C_32
REMARK    7  A    between atoms: C_32  and  C_34
REMARK                            x       y       z     vdW  Elec       q    Type
REMARK                         _______ _______ _______ _____ _____    ______ ____
ROOT
ATOM      1  C   UNL     1      -2.607  -0.537   0.123  0.00  0.00    +0.105 C 
ATOM      2  C   UNL     1      -2.477   0.980   0.183  0.00  0.00    +0.018 A 
ATOM      3  C   UNL     1      -1.279   1.667   0.146  0.00  0.00    +0.050 A 
ATOM      4  C   UNL     1      -1.295   3.061   0.131  0.00  0.00    +0.097 A 
ATOM      5  S   UNL     1      -3.046   3.418   0.169  0.00  0.00    -0.063 S 
ATOM      6  C   UNL     1      -3.637   1.752   0.230  0.00  0.00    +0.107 A 
ATOM      7  N   UNL     1      -4.894   1.274   0.327  0.00  0.00    -0.248 NA
ATOM      8  C   UNL     1      -5.062   0.017   0.561  0.00  0.00    +0.031 C 
ATOM      9  C   UNL     1      -3.946  -0.982   0.630  0.00  0.00    +0.114 C 
ATOM     10  C   UNL     1      -3.950  -1.577   2.014  0.00  0.00    +0.143 C 
ATOM     11  O   UNL     1      -2.953  -1.627   2.694  0.00  0.00    -0.297 OA
ATOM     12  C   UNL     1      -5.288  -2.111   2.501  0.00  0.00    +0.075 C 
ATOM     13  C   UNL     1      -6.359  -1.028   2.370  0.00  0.00    +0.013 C 
ATOM     14  C   UNL     1      -6.442  -0.502   0.931  0.00  0.00    +0.052 C 
ENDROOT
BRANCH   1  19
ATOM     15  C   UNL     1      -3.374  -1.073  -4.833  0.00  0.00    +0.086 C 
ATOM     16  C   UNL     1      -2.775  -1.226  -3.459  0.00  0.00    +0.102 A 
ATOM     17  C   UNL     1      -1.709  -1.984  -3.145  0.00  0.00    +0.044 A 
ATOM     18  C   UNL     1      -1.490  -1.829  -1.757  0.00  0.00    +0.045 A 
ATOM     19  C   UNL     1      -2.441  -0.993  -1.304  0.00  0.00    +0.114 A 
ATOM     20  O   UNL     1      -3.215  -0.628  -2.339  0.00  0.00    -0.464 OA
ENDBRANCH   1  19
BRANCH   4  21
ATOM     21  C   UNL     1      -0.206   3.961   0.092  0.00  0.00    +0.257 C 
ATOM     22  O   UNL     1       0.935   3.536   0.068  0.00  0.00    -0.269 OA
ATOM     23  N   UNL     1      -0.430   5.290   0.083  0.00  0.00    -0.280 N 
ATOM     24  H   UNL     1      -1.337   5.629   0.017  0.00  0.00    +0.155 HD
BRANCH  23  25
ATOM     25  C   UNL     1       0.639   6.177   0.169  0.00  0.00    +0.045 A 
ATOM     26  C   UNL     1       1.830   5.778   0.762  0.00  0.00    +0.025 A 
ATOM     27  C   UNL     1       2.891   6.657   0.842  0.00  0.00    +0.022 A 
ATOM     28  C   UNL     1       2.775   7.946   0.342  0.00  0.00    +0.042 A 
ATOM     29  C   UNL     1       1.599   8.361  -0.245  0.00  0.00    +0.033 A 
ATOM     30  C   UNL     1       0.517   7.481  -0.337  0.00  0.00    +0.045 A 
ATOM     31 CL   UNL     1       4.117   9.040   0.456  0.00  0.00    -0.084 Cl
BRANCH  30  32
ATOM     32  C   UNL     1      -0.744   7.918  -0.963  0.00  0.00    +0.195 C 
ATOM     33  O   UNL     1      -1.458   8.721  -0.393  0.00  0.00    -0.287 OA
BRANCH  32  34
ATOM     34  C   UNL     1      -1.140   7.382  -2.281  0.00  0.00    +0.022 A 
ATOM     35  C   UNL     1      -0.271   6.548  -2.989  0.00  0.00    +0.012 A 
ATOM     36  C   UNL     1      -0.650   6.046  -4.217  0.00  0.00    +0.001 A 
ATOM     37  C   UNL     1      -1.882   6.376  -4.753  0.00  0.00    +0.000 A 
ATOM     38  C   UNL     1      -2.745   7.206  -4.060  0.00  0.00    +0.001 A 
ATOM     39  C   UNL     1      -2.382   7.711  -2.828  0.00  0.00    +0.012 A 
ENDBRANCH  32  34
ENDBRANCH  30  32
ENDBRANCH  23  25
ENDBRANCH   4  21
BRANCH   3  40
ATOM     40  N   UNL     1      -0.070   0.975   0.129  0.00  0.00    -0.357 N 
ATOM     41  H   UNL     1      -0.066   0.005   0.144  0.00  0.00    +0.142 HD
ATOM     42  H   UNL     1       0.767   1.464   0.099  0.00  0.00    +0.142 HD
ENDBRANCH   3  40
TORSDOF 6
