REMARK  Name = ZINC08227032
REMARK  9 active torsions:
REMARK  status: ('A' for Active; 'I' for Inactive)
REMARK    1  A    between atoms: C_1  and  C_2
REMARK    2  A    between atoms: C_7  and  N_50
REMARK    3  A    between atoms: C_9  and  C_11
REMARK    4  A    between atoms: C_12  and  C_14
REMARK    5  A    between atoms: C_12  and  C_15
REMARK    6  A    between atoms: C_12  and  N_50
REMARK    7  A    between atoms: N_17  and  C_18
REMARK    8  A    between atoms: C_21  and  N_28
REMARK    9  A    between atoms: C_23  and  C_24
REMARK                            x       y       z     vdW  Elec       q    Type
REMARK                         _______ _______ _______ _____ _____    ______ ____
ROOT
ATOM      1  C   UNL     1      -0.018   4.139  -0.080  0.00  0.00    +0.203 C 
ATOM      2  O   UNL     1      -1.067   3.530  -0.076  0.00  0.00    -0.277 OA
ATOM      3  N   UNL     1       1.149   3.472   0.005  0.00  0.00    -0.286 N 
ATOM      4  H   UNL     1       1.984   3.962   0.066  0.00  0.00    +0.155 HD
ENDROOT
BRANCH   3   5
ATOM      5  C   UNL     1       1.157   2.073   0.007  0.00  0.00    +0.045 A 
ATOM      6  C   UNL     1       0.125   1.372   0.618  0.00  0.00    +0.026 A 
ATOM      7  C   UNL     1       0.136  -0.009   0.618  0.00  0.00    +0.034 A 
ATOM      8  C   UNL     1       1.173  -0.694   0.010  0.00  0.00    +0.127 A 
ATOM      9  C   UNL     1       2.201   0.001  -0.599  0.00  0.00    +0.047 A 
ATOM     10  C   UNL     1       2.196   1.382  -0.602  0.00  0.00    +0.078 A 
BRANCH  10  11
ATOM     11  C   UNL     1       3.318   2.139  -1.266  0.00  0.00    +0.419 C 
ATOM     12  F   UNL     1       4.237   1.232  -1.804  0.00  0.00    -0.166 F 
ATOM     13  F   UNL     1       2.798   2.939  -2.289  0.00  0.00    -0.166 F 
ATOM     14  F   UNL     1       3.959   2.947  -0.321  0.00  0.00    -0.166 F 
ENDBRANCH  10  11
BRANCH   8  15
ATOM     15  N   UNL     1       1.180  -2.174   0.011  0.00  0.00    +0.056 N 
ATOM     16  O   UNL     1       0.275  -2.788   0.547  0.00  0.00    -0.126 OA
ATOM     17  O   UNL     1       2.093  -2.779  -0.523  0.00  0.00    -0.126 OA
ENDBRANCH   8  15
ENDBRANCH   3   5
BRANCH   1  18
ATOM     18  C   UNL     1      -0.021   5.643  -0.181  0.00  0.00    +0.014 C 
ATOM     19  C   UNL     1       0.655   6.238   1.056  0.00  0.00    -0.004 C 
BRANCH  18  20
ATOM     20  N   UNL     1      -1.413   6.128  -0.254  0.00  0.00    +0.388 N 
ATOM     21  H   UNL     1      -2.023   5.484   0.262  0.00  0.00    -0.084 HD
ATOM     22  H   UNL     1      -1.468   7.063   0.168  0.00  0.00    -0.084 HD
BRANCH  20  28
ATOM     23  C   UNL     1      -5.385   6.288  -3.198  0.00  0.00    +0.008 C 
ATOM     24  C   UNL     1      -3.855   6.284  -3.155  0.00  0.00    -0.013 C 
ATOM     25  C   UNL     1      -3.324   7.568  -3.794  0.00  0.00    +0.003 C 
ATOM     26  C   UNL     1      -1.794   7.564  -3.751  0.00  0.00    -0.001 C 
ATOM     27  C   UNL     1      -1.325   7.486  -2.297  0.00  0.00    -0.015 C 
ATOM     28  C   UNL     1      -1.857   6.201  -1.658  0.00  0.00    -0.068 C 
ATOM     29  C   UNL     1      -3.386   6.205  -1.701  0.00  0.00    -0.025 C 
ATOM     30  C   UNL     1      -3.918   4.920  -1.062  0.00  0.00    +0.006 C 
ENDBRANCH  20  28
ENDBRANCH  18  20
ENDBRANCH   1  18
TORSDOF 6
