REMARK  Name = ZINC39732936
REMARK  14 active torsions:
REMARK  status: ('A' for Active; 'I' for Inactive)
REMARK    1  A    between atoms: C_1  and  C_2
REMARK    2  A    between atoms: C_4  and  C_35
REMARK    3  A    between atoms: C_5  and  C_34
REMARK    4  A    between atoms: C_6  and  C_8
REMARK    5  A    between atoms: C_8  and  C_10
REMARK    6  A    between atoms: C_10  and  C_12
REMARK    7  A    between atoms: C_10  and  S_13
REMARK    8  A    between atoms: S_13  and  C_14
REMARK    9  A    between atoms: C_17  and  C_25
REMARK   10  A    between atoms: N_18  and  C_19
REMARK   11  A    between atoms: C_25  and  C_27
REMARK   12  A    between atoms: C_25  and  N_28
REMARK   13  A    between atoms: C_35  and  O_37
REMARK   14  A    between atoms: O_37  and  C_38
REMARK                            x       y       z     vdW  Elec       q    Type
REMARK                         _______ _______ _______ _____ _____    ______ ____
ROOT
ATOM      1  C   UNL     1       3.408  -3.024   5.392  0.00  0.00    +0.197 A 
ATOM      2  N   UNL     1       4.216  -2.040   5.072  0.00  0.00    -0.122 NA
ATOM      3  N   UNL     1       5.357  -2.208   5.639  0.00  0.00    -0.135 NA
ATOM      4  C   UNL     1       5.348  -3.299   6.351  0.00  0.00    +0.125 A 
ATOM      5  N   UNL     1       4.103  -3.857   6.225  0.00  0.00    -0.275 N 
ENDROOT
BRANCH   5   6
ATOM      6  C   UNL     1       3.639  -5.038   6.822  0.00  0.00    +0.050 A 
ATOM      7  C   UNL     1       3.509  -5.115   8.202  0.00  0.00    +0.026 A 
ATOM      8  C   UNL     1       3.051  -6.279   8.788  0.00  0.00    +0.002 A 
ATOM      9  C   UNL     1       2.723  -7.368   8.001  0.00  0.00    +0.000 A 
ATOM     10  C   UNL     1       2.852  -7.295   6.626  0.00  0.00    +0.002 A 
ATOM     11  C   UNL     1       3.304  -6.131   6.034  0.00  0.00    +0.026 A 
ENDBRANCH   5   6
BRANCH   4  12
ATOM     12  C   UNL     1       6.492  -3.844   7.166  0.00  0.00    -0.002 C 
ATOM     13  C   UNL     1       7.534  -4.463   6.232  0.00  0.00    -0.005 C 
BRANCH  12  14
ATOM     14  N   UNL     1       7.109  -2.754   7.934  0.00  0.00    +0.386 N 
ATOM     15  C   UNL     1       8.229  -3.284   8.721  0.00  0.00    -0.078 C 
ATOM     16  C   UNL     1       8.925  -2.139   9.460  0.00  0.00    -0.019 C 
ATOM     17  C   UNL     1       7.921  -1.457  10.394  0.00  0.00    -0.004 C 
ATOM     18  C   UNL     1       6.722  -0.973   9.573  0.00  0.00    -0.019 C 
ATOM     19  C   UNL     1       6.108  -2.161   8.829  0.00  0.00    -0.078 C 
ATOM     20  H   UNL     1       7.450  -2.048   7.299  0.00  0.00    -0.081 HD
ENDBRANCH  12  14
ENDBRANCH   4  12
BRANCH   1  21
ATOM     21  S   UNL     1       1.741  -3.227   4.858  0.00  0.00    -0.074 S 
BRANCH  21  22
ATOM     22  C   UNL     1       1.445  -1.793   3.787  0.00  0.00    +0.124 C 
ATOM     23  C   UNL     1       1.516  -0.512   4.620  0.00  0.00    +0.028 C 
BRANCH  22  24
ATOM     24  C   UNL     1       0.081  -1.909   3.158  0.00  0.00    +0.194 C 
ATOM     25  O   UNL     1      -0.782  -2.557   3.702  0.00  0.00    -0.289 OA
BRANCH  24  30
ATOM     26  C   UNL     1      -0.019   1.526   0.010  0.00  0.00    +0.038 C 
ATOM     27  C   UNL     1       0.002  -0.004   0.002  0.00  0.00    +0.140 C 
ATOM     28  C   UNL     1      -1.410  -0.546   0.041  0.00  0.00    +0.065 C 
ATOM     29  C   UNL     1      -1.496  -1.272   1.173  0.00  0.00    -0.010 C 
ATOM     30  C   UNL     1      -0.203  -1.226   1.873  0.00  0.00    +0.106 C 
ATOM     31  N   UNL     1       0.656  -0.509   1.215  0.00  0.00    -0.272 NA
ATOM     32  C   UNL     1      -2.720  -2.011   1.647  0.00  0.00    +0.046 C 
BRANCH  28  33
ATOM     33  C   UNL     1      -2.470  -0.326  -0.952  0.00  0.00    +0.337 C 
ATOM     34  O   UNL     1      -3.566  -0.826  -0.792  0.00  0.00    -0.245 OA
BRANCH  33  35
ATOM     35  O   UNL     1      -2.227   0.432  -2.041  0.00  0.00    -0.465 OA
ATOM     36  C   UNL     1      -3.304   0.604  -2.965  0.00  0.00    +0.280 C 
ENDBRANCH  33  35
ENDBRANCH  28  33
ENDBRANCH  24  30
ENDBRANCH  22  24
ENDBRANCH  21  22
ENDBRANCH   1  21
TORSDOF 9
