REMARK  Name = ZINC36046627
REMARK  6 active torsions:
REMARK  status: ('A' for Active; 'I' for Inactive)
REMARK    1  A    between atoms: C_1  and  C_2
REMARK    2  A    between atoms: C_2  and  O_3
REMARK    3  A    between atoms: O_3  and  C_4
REMARK    4  A    between atoms: C_6  and  C_12
REMARK    5  A    between atoms: C_9  and  O_10
REMARK    6  A    between atoms: N_13  and  N_14
REMARK                            x       y       z     vdW  Elec       q    Type
REMARK                         _______ _______ _______ _____ _____    ______ ____
ROOT
ATOM      1  C   UNL     1       0.659  -4.948   0.244  0.00  0.00    +0.144 C 
ATOM      2  N   UNL     1       1.828  -4.442  -0.046  0.00  0.00    -0.155 NA
ENDROOT
BRANCH   2   3
ATOM      3  N   UNL     1       1.977  -3.162  -0.117  0.00  0.00    -0.124 NA
ATOM      4  C   UNL     1       3.176  -2.647  -0.319  0.00  0.00    +0.193 A 
ATOM      5  N   UNL     1       3.536  -1.330  -0.438  0.00  0.00    -0.332 N 
ATOM      6  C   UNL     1       4.861  -0.990  -0.650  0.00  0.00    +0.055 A 
ATOM      7  C   UNL     1       5.399   0.300  -0.795  0.00  0.00    +0.027 A 
ATOM      8  C   UNL     1       6.745   0.484  -1.004  0.00  0.00    +0.002 A 
ATOM      9  C   UNL     1       7.614  -0.591  -1.078  0.00  0.00    +0.001 A 
ATOM     10  C   UNL     1       7.113  -1.873  -0.938  0.00  0.00    +0.017 A 
ATOM     11  C   UNL     1       5.766  -2.058  -0.730  0.00  0.00    +0.039 A 
ATOM     12  S   UNL     1       4.740  -3.489  -0.500  0.00  0.00    -0.048 S 
ATOM     13  H   UNL     1       2.862  -0.636  -0.374  0.00  0.00    +0.168 HD
ENDBRANCH   2   3
BRANCH   1  16
ATOM     14  C   UNL     1      -1.229  -1.907   1.369  0.00  0.00    +0.162 A 
ATOM     15  C   UNL     1      -0.188  -2.731   0.985  0.00  0.00    +0.060 A 
ATOM     16  C   UNL     1      -0.444  -4.066   0.654  0.00  0.00    +0.012 A 
ATOM     17  C   UNL     1      -1.752  -4.559   0.714  0.00  0.00    +0.030 A 
ATOM     18  C   UNL     1      -2.784  -3.728   1.099  0.00  0.00    +0.065 A 
ATOM     19  C   UNL     1      -2.528  -2.406   1.432  0.00  0.00    +0.160 A 
ATOM     20 BR   UNL     1      -2.105  -6.362   0.268  0.00  0.00    -0.050 Br
BRANCH  19  21
ATOM     21  O   UNL     1      -3.548  -1.593   1.815  0.00  0.00    -0.503 OA
ATOM     22  H   UNL     1      -3.974  -1.125   1.084  0.00  0.00    +0.292 HD
ENDBRANCH  19  21
BRANCH  14  23
ATOM     23  O   UNL     1      -0.984  -0.608   1.692  0.00  0.00    -0.489 OA
BRANCH  23  25
ATOM     24  C   UNL     1       0.450   1.312   2.003  0.00  0.00    +0.048 C 
ATOM     25  C   UNL     1       0.372  -0.163   1.606  0.00  0.00    +0.226 C 
ENDBRANCH  23  25
ENDBRANCH  14  23
ENDBRANCH   1  16
TORSDOF 5
