REMARK  Name = ZINC12482902
REMARK  12 active torsions:
REMARK  status: ('A' for Active; 'I' for Inactive)
REMARK    1  A    between atoms: C_1  and  C_2
REMARK    2  A    between atoms: C_2  and  N_3
REMARK    3  A    between atoms: N_3  and  C_4
REMARK    4  A    between atoms: N_3  and  C_6
REMARK    5  A    between atoms: C_4  and  C_5
REMARK    6  A    between atoms: C_9  and  C_13
REMARK    7  A    between atoms: C_10  and  O_12
REMARK    8  A    between atoms: N_14  and  N_15
REMARK    9  A    between atoms: C_16  and  C_18
REMARK   10  A    between atoms: C_18  and  O_19
REMARK   11  A    between atoms: O_19  and  C_20
REMARK   12  A    between atoms: C_21  and  C_28
REMARK                            x       y       z     vdW  Elec       q    Type
REMARK                         _______ _______ _______ _____ _____    ______ ____
ROOT
ATOM      1  C   UNL     1      -4.948   4.205   0.047  0.00  0.00    +0.142 C 
ATOM      2  N   UNL     1      -4.970   5.503   0.054  0.00  0.00    -0.188 NA
ENDROOT
BRANCH   1   6
ATOM      3  C   UNL     1      -1.235   2.142   0.019  0.00  0.00    +0.033 A 
ATOM      4  C   UNL     1      -2.429   1.427   0.021  0.00  0.00    +0.024 A 
ATOM      5  C   UNL     1      -3.635   2.092   0.030  0.00  0.00    +0.015 A 
ATOM      6  C   UNL     1      -3.661   3.490   0.038  0.00  0.00    +0.036 A 
ATOM      7  C   UNL     1      -2.456   4.209   0.037  0.00  0.00    +0.127 A 
ATOM      8  C   UNL     1      -1.251   3.530   0.033  0.00  0.00    +0.069 A 
BRANCH   7   9
ATOM      9  O   UNL     1      -2.474   5.567   0.044  0.00  0.00    -0.506 OA
ATOM     10  H   UNL     1      -2.475   5.955   0.930  0.00  0.00    +0.292 HD
ENDBRANCH   7   9
BRANCH   3  11
ATOM     11  N   UNL     1      -0.018   1.461   0.010  0.00  0.00    -0.330 N 
BRANCH  11  13
ATOM     12  C   UNL     1       0.023  -0.522   1.442  0.00  0.00    +0.024 C 
ATOM     13  C   UNL     1       0.002  -0.004   0.002  0.00  0.00    +0.102 C 
ENDBRANCH  11  13
BRANCH  11  14
ATOM     14  C   UNL     1       1.241   2.211   0.002  0.00  0.00    +0.102 C 
ATOM     15  C   UNL     1       1.665   2.479  -1.443  0.00  0.00    +0.024 C 
ENDBRANCH  11  14
ENDBRANCH   3  11
ENDBRANCH   1   6
BRANCH   2  16
ATOM     16  N   UNL     1      -6.194   6.183   0.063  0.00  0.00    -0.204 N 
ATOM     17  C   UNL     1      -6.217   7.531   0.070  0.00  0.00    +0.270 C 
ATOM     18  O   UNL     1      -5.176   8.155   0.069  0.00  0.00    -0.270 OA
ATOM     19  H   UNL     1      -7.026   5.684   0.063  0.00  0.00    +0.177 HD
BRANCH  17  20
ATOM     20  C   UNL     1      -7.534   8.263   0.079  0.00  0.00    +0.326 C 
BRANCH  20  21
ATOM     21  O   UNL     1      -7.296   9.672   0.086  0.00  0.00    -0.481 OA
BRANCH  21  22
ATOM     22  C   UNL     1      -8.388  10.482   0.095  0.00  0.00    +0.138 A 
ATOM     23  C   UNL     1      -8.941  10.889   1.300  0.00  0.00    -0.007 A 
ATOM     24  C   UNL     1     -10.050  11.713   1.307  0.00  0.00    +0.022 A 
ATOM     25  C   UNL     1     -10.610  12.132   0.113  0.00  0.00    +0.019 A 
ATOM     26  C   UNL     1     -10.060  11.727  -1.090  0.00  0.00    +0.034 A 
ATOM     27  C   UNL     1      -8.947  10.907  -1.102  0.00  0.00    +0.061 A 
ATOM     28 BR   UNL     1      -8.192  10.360  -2.747  0.00  0.00    -0.046 Br
ATOM     29 BR   UNL     1     -12.128  13.259   0.126  0.00  0.00    -0.050 Br
ATOM     30  C   UNL     1      -8.333  10.433   2.601  0.00  0.00    +0.047 C 
ENDBRANCH  21  22
ENDBRANCH  20  21
ENDBRANCH  17  20
ENDBRANCH   2  16
TORSDOF 9
