REMARK  Name = ZINC38831915
REMARK  12 active torsions:
REMARK  status: ('A' for Active; 'I' for Inactive)
REMARK    1  A    between atoms: C_1  and  C_2
REMARK    2  A    between atoms: N_7  and  C_9
REMARK    3  A    between atoms: C_9  and  C_10
REMARK    4  A    between atoms: C_13  and  C_16
REMARK    5  A    between atoms: C_16  and  N_17
REMARK    6  A    between atoms: C_18  and  C_20
REMARK    7  A    between atoms: N_23  and  S_35
REMARK    8  A    between atoms: C_26  and  C_31
REMARK    9  A    between atoms: C_31  and  C_32
REMARK   10  A    between atoms: C_31  and  C_33
REMARK   11  A    between atoms: C_31  and  C_34
REMARK   12  A    between atoms: S_35  and  C_38
REMARK                            x       y       z     vdW  Elec       q    Type
REMARK                         _______ _______ _______ _____ _____    ______ ____
ROOT
ATOM      1  N   UNL     1       1.446  -8.684   0.787  0.00  0.00    -0.308 N 
ATOM      2  C   UNL     1       1.405 -10.010   0.550  0.00  0.00    +0.256 C 
ATOM      3  O   UNL     1       1.959 -10.779   1.307  0.00  0.00    -0.272 OA
ATOM      4  H   UNL     1       1.003  -8.069   0.182  0.00  0.00    +0.149 HD
ENDROOT
BRANCH   2   5
ATOM      5  C   UNL     1       0.670 -10.537  -0.655  0.00  0.00    +0.277 C 
ATOM      6  C   UNL     1      -0.830 -10.245  -0.512  0.00  0.00    +0.185 C 
ATOM      7  N   UNL     1      -1.509 -10.820  -1.686  0.00  0.00    -0.200 N 
ATOM      8  C   UNL     1      -1.099 -12.090  -2.120  0.00  0.00    +0.093 A 
ATOM      9  C   UNL     1      -1.875 -12.801  -3.022  0.00  0.00    +0.032 A 
ATOM     10  C   UNL     1      -1.465 -14.050  -3.449  0.00  0.00    -0.040 A 
ATOM     11  C   UNL     1      -0.283 -14.590  -2.978  0.00  0.00    +0.008 A 
ATOM     12  C   UNL     1       0.495 -13.886  -2.078  0.00  0.00    +0.048 A 
ATOM     13  C   UNL     1       0.091 -12.633  -1.642  0.00  0.00    +0.144 A 
ATOM     14  O   UNL     1       0.860 -11.951  -0.752  0.00  0.00    -0.476 OA
BRANCH  10  15
ATOM     15  C   UNL     1      -2.308 -14.825  -4.429  0.00  0.00    -0.013 C 
ATOM     16  C   UNL     1      -2.454 -14.021  -5.723  0.00  0.00    +0.015 C 
ATOM     17  C   UNL     1      -1.634 -16.164  -4.735  0.00  0.00    +0.015 C 
ATOM     18  C   UNL     1      -3.692 -15.076  -3.826  0.00  0.00    +0.015 C 
ENDBRANCH  10  15
BRANCH   7  19
ATOM     19  S   UNL     1      -2.716  -9.997  -2.466  0.00  0.00    +0.043 S 
ATOM     20  O   UNL     1      -2.552  -8.644  -2.062  0.00  0.00    -0.155 OA
ATOM     21  O   UNL     1      -2.583 -10.367  -3.832  0.00  0.00    -0.155 OA
ATOM     22  C   UNL     1      -4.256 -10.670  -1.783  0.00  0.00    +0.218 C 
ENDBRANCH   7  19
ENDBRANCH   2   5
BRANCH   1  23
ATOM     23  C   UNL     1       2.160  -8.171   1.960  0.00  0.00    +0.139 C 
BRANCH  23  27
ATOM     24  C   UNL     1       1.865  -3.911   2.059  0.00  0.00    -0.064 A 
ATOM     25  C   UNL     1       0.909  -4.685   2.690  0.00  0.00    +0.002 A 
ATOM     26  C   UNL     1       1.004  -6.064   2.658  0.00  0.00    +0.005 A 
ATOM     27  C   UNL     1       2.055  -6.668   1.994  0.00  0.00    -0.030 A 
ATOM     28  C   UNL     1       3.011  -5.894   1.362  0.00  0.00    +0.005 A 
ATOM     29  C   UNL     1       2.913  -4.516   1.391  0.00  0.00    +0.002 A 
BRANCH  24  30
ATOM     30  C   UNL     1       1.760  -2.408   2.095  0.00  0.00    -0.043 C 
BRANCH  30  36
ATOM     31  C   UNL     1       0.234   1.539  -0.367  0.00  0.00    +0.005 C 
ATOM     32  C   UNL     1       0.227   0.009  -0.332  0.00  0.00    -0.031 C 
ATOM     33  C   UNL     1      -1.218  -0.495  -0.277  0.00  0.00    -0.001 C 
ATOM     34  C   UNL     1      -1.212  -2.022  -0.164  0.00  0.00    -0.018 C 
ATOM     35  C   UNL     1      -0.406  -2.433   1.070  0.00  0.00    -0.078 C 
ATOM     36  N   UNL     1       0.972  -1.945   0.945  0.00  0.00    +0.383 N 
ATOM     37  C   UNL     1       0.980  -0.477   0.908  0.00  0.00    -0.075 C 
ATOM     38  H   UNL     1       1.379  -2.303   0.094  0.00  0.00    -0.081 HD
ENDBRANCH  30  36
ENDBRANCH  24  30
ENDBRANCH  23  27
ENDBRANCH   1  23
TORSDOF 7
