REMARK  Name = ZINC33256845
REMARK  9 active torsions:
REMARK  status: ('A' for Active; 'I' for Inactive)
REMARK    1  A    between atoms: C_1  and  C_2
REMARK    2  A    between atoms: C_5  and  C_36
REMARK    3  A    between atoms: C_6  and  C_8
REMARK    4  A    between atoms: C_8  and  C_10
REMARK    5  A    between atoms: C_10  and  S_11
REMARK    6  A    between atoms: S_11  and  C_12
REMARK    7  A    between atoms: C_19  and  C_27
REMARK    8  A    between atoms: N_25  and  C_26
REMARK    9  A    between atoms: N_29  and  C_30
REMARK                            x       y       z     vdW  Elec       q    Type
REMARK                         _______ _______ _______ _____ _____    ______ ____
ROOT
ATOM      1  C   UNL     1       1.397  -2.127  -1.305  0.00  0.00    +0.198 A 
ATOM      2  N   UNL     1       2.705  -2.221  -1.302  0.00  0.00    -0.120 NA
ATOM      3  N   UNL     1       3.231  -0.948  -1.551  0.00  0.00    -0.109 NA
ATOM      4  C   UNL     1       2.228  -0.113  -1.699  0.00  0.00    +0.240 A 
ATOM      5  N   UNL     1       1.068  -0.822  -1.550  0.00  0.00    -0.256 N 
ATOM      6  C   UNL     1      -0.170  -0.189  -1.657  0.00  0.00    +0.065 A 
ATOM      7  C   UNL     1      -1.348  -0.901  -1.507  0.00  0.00    +0.040 A 
ATOM      8  C   UNL     1      -2.572  -0.245  -1.617  0.00  0.00    +0.039 A 
ATOM      9  C   UNL     1      -2.613   1.128  -1.879  0.00  0.00    +0.014 A 
ATOM     10  C   UNL     1      -1.444   1.841  -2.024  0.00  0.00    +0.016 A 
ATOM     11  C   UNL     1      -0.217   1.189  -1.919  0.00  0.00    +0.064 A 
ATOM     12  C   UNL     1       1.054   1.925  -2.075  0.00  0.00    +0.263 A 
ATOM     13  O   UNL     1       1.053   3.119  -2.303  0.00  0.00    -0.267 OA
ATOM     14  N   UNL     1       2.216   1.249  -1.959  0.00  0.00    -0.280 N 
ATOM     15  C   UNL     1       3.484   1.966  -2.111  0.00  0.00    +0.155 C 
ENDROOT
BRANCH   8  16
ATOM     16  C   UNL     1      -3.833  -1.003  -1.458  0.00  0.00    +0.244 C 
ATOM     17  O   UNL     1      -3.800  -2.197  -1.231  0.00  0.00    -0.270 OA
ATOM     18  N   UNL     1      -5.018  -0.370  -1.565  0.00  0.00    -0.308 N 
ATOM     19  H   UNL     1      -5.048   0.710  -1.770  0.00  0.00    +0.149 HD
BRANCH  18  20
ATOM     20  C   UNL     1      -6.266  -1.121  -1.407  0.00  0.00    +0.073 C 
ATOM     21  C   UNL     1      -6.652  -1.757  -2.744  0.00  0.00    +0.022 C 
ATOM     22  C   UNL     1      -7.955  -2.541  -2.579  0.00  0.00    +0.002 C 
ATOM     23  C   UNL     1      -9.067  -1.592  -2.126  0.00  0.00    +0.000 C 
ATOM     24  C   UNL     1      -8.682  -0.956  -0.789  0.00  0.00    +0.002 C 
ATOM     25  C   UNL     1      -7.378  -0.172  -0.954  0.00  0.00    +0.022 C 
ENDBRANCH  18  20
ENDBRANCH   8  16
BRANCH   1  26
ATOM     26  S   UNL     1       0.263  -3.450  -1.038  0.00  0.00    -0.078 S 
BRANCH  26  27
ATOM     27  C   UNL     1       1.328  -4.894  -0.775  0.00  0.00    +0.157 C 
BRANCH  27  28
ATOM     28  C   UNL     1       0.473  -6.111  -0.532  0.00  0.00    +0.174 C 
ATOM     29  O   UNL     1      -0.736  -6.013  -0.536  0.00  0.00    -0.291 OA
BRANCH  28  35
ATOM     30  C   UNL     1       4.568  -8.947  -0.306  0.00  0.00    +0.044 C 
ATOM     31  C   UNL     1       3.075  -8.790  -0.179  0.00  0.00    -0.050 A 
ATOM     32  C   UNL     1       2.293  -9.878   0.167  0.00  0.00    +0.003 A 
ATOM     33  C   UNL     1       0.921  -9.744   0.286  0.00  0.00    +0.004 A 
ATOM     34  C   UNL     1       0.322  -8.522   0.065  0.00  0.00    -0.040 A 
ATOM     35  C   UNL     1       1.104  -7.418  -0.290  0.00  0.00    +0.021 A 
ATOM     36  C   UNL     1       2.490  -7.562  -0.408  0.00  0.00    +0.015 A 
ATOM     37  C   UNL     1      -1.172  -8.376   0.201  0.00  0.00    +0.044 C 
ENDBRANCH  28  35
ENDBRANCH  27  28
ENDBRANCH  26  27
ENDBRANCH   1  26
TORSDOF 6
