REMARK  Name = ZINC41064697
REMARK  4 active torsions:
REMARK  status: ('A' for Active; 'I' for Inactive)
REMARK    1  A    between atoms: C_3  and  N_20
REMARK    2  A    between atoms: C_4  and  C_8
REMARK    3  A    between atoms: C_8  and  O_10
REMARK    4  A    between atoms: O_10  and  C_11
REMARK                            x       y       z     vdW  Elec       q    Type
REMARK                         _______ _______ _______ _____ _____    ______ ____
ROOT
ATOM      1  C   UNL     1       3.825  -0.420  -0.064  0.00  0.00    +0.342 C 
ATOM      2  O   UNL     1       4.797   0.304   0.016  0.00  0.00    -0.245 OA
ENDROOT
BRANCH   1   6
ATOM      3  C   UNL     1      -0.081   1.252   0.022  0.00  0.00    +0.040 A 
ATOM      4  C   UNL     1       1.017   2.088  -0.009  0.00  0.00    +0.026 A 
ATOM      5  C   UNL     1       2.298   1.553  -0.037  0.00  0.00    +0.039 A 
ATOM      6  C   UNL     1       2.471   0.160  -0.034  0.00  0.00    +0.082 A 
ATOM      7  C   UNL     1       1.349  -0.674  -0.002  0.00  0.00    +0.055 A 
ATOM      8  C   UNL     1       0.084  -0.125   0.025  0.00  0.00    +0.124 A 
ATOM      9  F   UNL     1      -0.999  -0.932   0.056  0.00  0.00    -0.205 F 
BRANCH   5  10
ATOM     10  N   UNL     1       3.405   2.393  -0.069  0.00  0.00    -0.357 N 
ATOM     11  H   UNL     1       3.284   3.352  -0.153  0.00  0.00    +0.142 HD
ATOM     12  H   UNL     1       4.298   2.021  -0.007  0.00  0.00    +0.142 HD
ENDBRANCH   5  10
ENDBRANCH   1   6
BRANCH   1  13
ATOM     13  O   UNL     1       3.985  -1.753  -0.181  0.00  0.00    -0.448 OA
BRANCH  13  14
ATOM     14  C   UNL     1       5.326  -2.245  -0.203  0.00  0.00    +0.262 C 
ATOM     15  C   UNL     1       5.388  -3.531  -1.032  0.00  0.00    +0.054 C 
ATOM     16  C   UNL     1       4.115  -4.341  -0.863  0.00  0.00    +0.006 C 
ATOM     17  C   UNL     1       3.927  -4.901   0.534  0.00  0.00    +0.019 C 
ATOM     18  C   UNL     1       3.692  -3.777   1.545  0.00  0.00    +0.104 C 
ATOM     19  N   UNL     1       4.997  -3.285   2.014  0.00  0.00    -0.312 N 
ATOM     20  C   UNL     1       5.777  -2.557   1.208  0.00  0.00    +0.254 C 
ATOM     21  O   UNL     1       6.849  -2.151   1.603  0.00  0.00    -0.272 OA
ATOM     22  H   UNL     1       5.293  -3.487   2.915  0.00  0.00    +0.149 HD
ENDBRANCH  13  14
ENDBRANCH   1  13
TORSDOF 4
