REMARK  Name = ZINC01980910
REMARK  9 active torsions:
REMARK  status: ('A' for Active; 'I' for Inactive)
REMARK    1  A    between atoms: C_1  and  C_2
REMARK    2  A    between atoms: C_2  and  C_3
REMARK    3  A    between atoms: C_6  and  C_9
REMARK    4  A    between atoms: N_16  and  C_19
REMARK    5  A    between atoms: C_19  and  C_21
REMARK    6  A    between atoms: C_19  and  C_22
REMARK    7  A    between atoms: N_24  and  C_25
REMARK    8  A    between atoms: C_28  and  C_32
REMARK    9  A    between atoms: C_30  and  C_31
REMARK                            x       y       z     vdW  Elec       q    Type
REMARK                         _______ _______ _______ _____ _____    ______ ____
ROOT
ATOM      1  C   UNL     1      -4.047  -5.829   1.386  0.00  0.00    +0.004 A 
ATOM      2  C   UNL     1      -3.657  -7.089   1.075  0.00  0.00    +0.056 A 
ATOM      3  S   UNL     1      -2.711  -6.872  -0.419  0.00  0.00    -0.076 S 
ATOM      4  C   UNL     1      -2.859  -5.113  -0.591  0.00  0.00    +0.116 A 
ATOM      5  C   UNL     1      -3.638  -4.734   0.514  0.00  0.00    +0.080 A 
ATOM      6  C   UNL     1      -3.917  -3.335   0.625  0.00  0.00    +0.263 A 
ATOM      7  O   UNL     1      -4.586  -2.909   1.552  0.00  0.00    -0.267 OA
ATOM      8  N   UNL     1      -3.430  -2.496  -0.308  0.00  0.00    -0.287 N 
ATOM      9  C   UNL     1      -2.688  -2.953  -1.348  0.00  0.00    +0.204 A 
ATOM     10  N   UNL     1      -2.412  -4.223  -1.474  0.00  0.00    -0.230 NA
ENDROOT
BRANCH   1  14
ATOM     11  C   UNL     1      -6.416  -5.083   4.836  0.00  0.00    -0.048 A 
ATOM     12  C   UNL     1      -6.792  -6.069   3.942  0.00  0.00    +0.004 A 
ATOM     13  C   UNL     1      -6.027  -6.316   2.820  0.00  0.00    +0.009 A 
ATOM     14  C   UNL     1      -4.873  -5.568   2.588  0.00  0.00    -0.017 A 
ATOM     15  C   UNL     1      -4.496  -4.579   3.495  0.00  0.00    +0.009 A 
ATOM     16  C   UNL     1      -5.272  -4.337   4.611  0.00  0.00    +0.004 A 
BRANCH  11  18
ATOM     17  C   UNL     1      -6.765  -5.695   7.213  0.00  0.00    +0.009 C 
ATOM     18  C   UNL     1      -7.255  -4.818   6.059  0.00  0.00    +0.032 C 
ENDBRANCH  11  18
ENDBRANCH   1  14
BRANCH   8  19
ATOM     19  C   UNL     1      -3.712  -1.062  -0.201  0.00  0.00    +0.174 C 
ATOM     20  C   UNL     1      -4.469  -0.597  -1.447  0.00  0.00    +0.041 C 
BRANCH  19  21
ATOM     21  C   UNL     1      -2.415  -0.302  -0.090  0.00  0.00    +0.240 C 
ATOM     22  O   UNL     1      -1.359  -0.900  -0.098  0.00  0.00    -0.273 OA
ATOM     23  N   UNL     1      -2.428   1.041   0.019  0.00  0.00    -0.284 N 
ATOM     24  H   UNL     1      -3.271   1.512   0.107  0.00  0.00    +0.155 HD
BRANCH  23  25
ATOM     25  C   UNL     1      -1.225   1.756   0.006  0.00  0.00    +0.036 A 
ATOM     26  C   UNL     1      -0.102   1.218  -0.610  0.00  0.00    +0.024 A 
ATOM     27  C   UNL     1       1.082   1.928  -0.626  0.00  0.00    +0.005 A 
ATOM     28  C   UNL     1       1.152   3.172  -0.025  0.00  0.00    -0.050 A 
ATOM     29  C   UNL     1       0.038   3.708   0.594  0.00  0.00    +0.008 A 
ATOM     30  C   UNL     1      -1.150   3.002   0.613  0.00  0.00    -0.029 A 
ATOM     31  C   UNL     1      -2.364   3.587   1.288  0.00  0.00    +0.045 C 
ATOM     32  C   UNL     1       2.446   3.944  -0.045  0.00  0.00    +0.044 C 
ENDBRANCH  23  25
ENDBRANCH  19  21
ENDBRANCH   8  19
TORSDOF 5
