REMARK  Name = ZINC46623617
REMARK  7 active torsions:
REMARK  status: ('A' for Active; 'I' for Inactive)
REMARK    1  A    between atoms: C_1  and  C_2
REMARK    2  A    between atoms: C_4  and  C_16
REMARK    3  A    between atoms: C_6  and  C_11
REMARK    4  A    between atoms: N_18  and  C_19
REMARK    5  A    between atoms: C_19  and  C_20
REMARK    6  A    between atoms: N_26  and  C_27
REMARK    7  A    between atoms: N_26  and  C_28
REMARK                            x       y       z     vdW  Elec       q    Type
REMARK                         _______ _______ _______ _____ _____    ______ ____
ROOT
ATOM      1  C   UNL     1      -1.640   1.321  -0.395  0.00  0.00    +0.070 C 
ATOM      2  C   UNL     1      -1.341  -0.155  -0.334  0.00  0.00    +0.091 A 
ATOM      3  C   UNL     1      -0.702  -0.952  -1.379  0.00  0.00    +0.076 A 
ATOM      4  C   UNL     1      -0.200  -0.657  -2.665  0.00  0.00    +0.053 A 
ATOM      5  C   UNL     1       0.355  -1.697  -3.401  0.00  0.00    +0.042 A 
ATOM      6  C   UNL     1       0.394  -2.982  -2.845  0.00  0.00    +0.082 A 
ATOM      7  N   UNL     1      -0.087  -3.223  -1.633  0.00  0.00    -0.209 NA
ATOM      8  C   UNL     1      -0.626  -2.268  -0.891  0.00  0.00    +0.260 A 
ATOM      9  O   UNL     1      -1.172  -2.261   0.342  0.00  0.00    -0.334 OA
ATOM     10  N   UNL     1      -1.597  -0.951   0.660  0.00  0.00    -0.080 NA
ENDROOT
BRANCH   6  11
ATOM     11  C   UNL     1       0.982  -4.089  -3.622  0.00  0.00    +0.038 A 
ATOM     12  C   UNL     1       1.117  -5.410  -3.279  0.00  0.00    +0.017 A 
ATOM     13  C   UNL     1       1.705  -6.269  -4.178  0.00  0.00    +0.008 A 
ATOM     14  C   UNL     1       2.133  -5.786  -5.374  0.00  0.00    +0.046 A 
ATOM     15  S   UNL     1       1.696  -4.059  -5.258  0.00  0.00    -0.095 S 
ENDBRANCH   6  11
BRANCH   4  16
ATOM     16  C   UNL     1      -0.264   0.716  -3.212  0.00  0.00    +0.245 C 
ATOM     17  O   UNL     1      -0.114   1.671  -2.475  0.00  0.00    -0.270 OA
ATOM     18  N   UNL     1      -0.487   0.908  -4.527  0.00  0.00    -0.307 N 
ATOM     19  H   UNL     1      -0.607   0.146  -5.115  0.00  0.00    +0.149 HD
BRANCH  18  20
ATOM     20  C   UNL     1      -0.550   2.268  -5.069  0.00  0.00    +0.140 C 
BRANCH  20  21
ATOM     21  C   UNL     1      -0.809   2.206  -6.552  0.00  0.00    -0.026 A 
ATOM     22  C   UNL     1       0.245   2.145  -7.454  0.00  0.00    +0.023 A 
ATOM     23  C   UNL     1      -0.025   2.089  -8.807  0.00  0.00    +0.084 A 
ATOM     24  N   UNL     1      -1.269   2.093  -9.249  0.00  0.00    -0.350 N 
ATOM     25  C   UNL     1      -2.300   2.152  -8.421  0.00  0.00    +0.098 A 
ATOM     26  C   UNL     1      -2.101   2.204  -7.045  0.00  0.00    +0.047 A 
ATOM     27  N   UNL     1      -3.593   2.155  -8.930  0.00  0.00    -0.323 N 
ATOM     28  C   UNL     1      -3.810   2.093 -10.378  0.00  0.00    +0.130 C 
ATOM     29  C   UNL     1      -4.739   2.219  -8.020  0.00  0.00    +0.130 C 
ATOM     30  H   UNL     1      -1.431   2.053 -10.205  0.00  0.00    +0.166 HD
ENDBRANCH  20  21
ENDBRANCH  18  20
ENDBRANCH   4  16
TORSDOF 4
