REMARK  Name = ZINC34835307
REMARK  15 active torsions:
REMARK  status: ('A' for Active; 'I' for Inactive)
REMARK    1  A    between atoms: C_1  and  C_2
REMARK    2  A    between atoms: C_2  and  C_3
REMARK    3  A    between atoms: C_4  and  C_24
REMARK    4  A    between atoms: C_5  and  N_15
REMARK    5  A    between atoms: N_6  and  C_8
REMARK    6  A    between atoms: N_18  and  C_21
REMARK    7  A    between atoms: C_21  and  C_22
REMARK    8  A    between atoms: C_21  and  C_23
REMARK    9  A    between atoms: C_24  and  N_25
REMARK   10  A    between atoms: N_25  and  C_26
REMARK   11  A    between atoms: C_26  and  C_27
REMARK   12  A    between atoms: C_27  and  C_28
REMARK   13  A    between atoms: C_27  and  C_29
REMARK   14  A    between atoms: C_30  and  C_32
REMARK   15  A    between atoms: C_35  and  C_38
REMARK                            x       y       z     vdW  Elec       q    Type
REMARK                         _______ _______ _______ _____ _____    ______ ____
ROOT
ATOM      1  C   UNL     1       0.454   0.663  -0.806  0.00  0.00    +0.070 A 
ATOM      2  C   UNL     1      -0.274   0.836  -1.986  0.00  0.00    +0.033 A 
ATOM      3  C   UNL     1       0.612   1.079  -2.992  0.00  0.00    +0.130 A 
ATOM      4  N   UNL     1       1.859   1.057  -2.450  0.00  0.00    -0.218 N 
ATOM      5  N   UNL     1       1.726   0.801  -1.079  0.00  0.00    -0.169 NA
ENDROOT
BRANCH   4   6
ATOM      6  C   UNL     1       3.064   1.261  -3.139  0.00  0.00    +0.068 A 
ATOM      7  C   UNL     1       3.318   0.565  -4.313  0.00  0.00    +0.030 A 
ATOM      8  C   UNL     1       4.505   0.767  -4.991  0.00  0.00    +0.040 A 
ATOM      9  C   UNL     1       5.440   1.663  -4.500  0.00  0.00    +0.124 A 
ATOM     10  C   UNL     1       5.187   2.358  -3.329  0.00  0.00    +0.040 A 
ATOM     11  C   UNL     1       4.000   2.163  -2.651  0.00  0.00    +0.030 A 
ATOM     12  F   UNL     1       6.600   1.859  -5.164  0.00  0.00    -0.205 F 
ENDBRANCH   4   6
BRANCH   3  13
ATOM     13  N   UNL     1       0.298   1.306  -4.329  0.00  0.00    -0.318 N 
ATOM     14  C   UNL     1      -0.123   2.637  -4.791  0.00  0.00    +0.088 C 
ATOM     15  C   UNL     1       0.722   3.018  -6.011  0.00  0.00    -0.059 C 
ATOM     16  N   UNL     1       0.617   1.963  -7.027  0.00  0.00    +0.383 N 
ATOM     17  C   UNL     1       1.201   0.716  -6.515  0.00  0.00    -0.059 C 
ATOM     18  C   UNL     1       0.385   0.223  -5.321  0.00  0.00    +0.088 C 
ATOM     19  H   UNL     1      -0.354   1.810  -7.252  0.00  0.00    -0.081 HD
BRANCH  16  20
ATOM     20  C   UNL     1       1.338   2.378  -8.238  0.00  0.00    -0.075 C 
ATOM     21  C   UNL     1       1.230   1.279  -9.297  0.00  0.00    -0.014 C 
ATOM     22  C   UNL     1       0.724   3.670  -8.779  0.00  0.00    -0.014 C 
ENDBRANCH  16  20
ENDBRANCH   3  13
BRANCH   1  24
ATOM     23  C   UNL     1      -0.591   1.683   1.199  0.00  0.00    +0.010 C 
ATOM     24  C   UNL     1      -0.129   0.374   0.554  0.00  0.00    +0.054 C 
ENDBRANCH   1  24
BRANCH   2  25
ATOM     25  C   UNL     1      -1.774   0.765  -2.123  0.00  0.00    +0.148 C 
BRANCH  25  26
ATOM     26  N   UNL     1      -2.194  -0.637  -2.174  0.00  0.00    -0.293 N 
ATOM     27  C   UNL     1      -2.133  -1.317  -3.336  0.00  0.00    +0.247 C 
ATOM     28  O   UNL     1      -1.614  -0.809  -4.311  0.00  0.00    -0.270 OA
BRANCH  27  29
ATOM     29  C   UNL     1      -2.699  -2.680  -3.426  0.00  0.00    +0.037 A 
ATOM     30  C   UNL     1      -3.371  -3.233  -2.335  0.00  0.00    +0.013 A 
ATOM     31  C   UNL     1      -3.897  -4.505  -2.425  0.00  0.00    +0.004 A 
ATOM     32  C   UNL     1      -3.758  -5.233  -3.593  0.00  0.00    -0.050 A 
ATOM     33  C   UNL     1      -3.092  -4.691  -4.678  0.00  0.00    +0.004 A 
ATOM     34  C   UNL     1      -2.567  -3.418  -4.603  0.00  0.00    +0.013 A 
ATOM     35  C   UNL     1      -4.334  -6.623  -3.685  0.00  0.00    +0.044 C 
ENDBRANCH  27  29
BRANCH  26  36
ATOM     36  C   UNL     1      -2.680  -1.301  -0.962  0.00  0.00    +0.111 C 
BRANCH  36  37
ATOM     37  C   UNL     1      -4.210  -1.314  -0.966  0.00  0.00    +0.000 C 
ATOM     38  C   UNL     1      -4.720  -1.701   0.424  0.00  0.00    +0.009 C 
ATOM     39  C   UNL     1      -4.730   0.078  -1.331  0.00  0.00    +0.009 C 
ENDBRANCH  36  37
ENDBRANCH  26  36
ENDBRANCH  25  26
ENDBRANCH   2  25
TORSDOF 9
