REMARK  Name = ZINC16458603
REMARK  13 active torsions:
REMARK  status: ('A' for Active; 'I' for Inactive)
REMARK    1  A    between atoms: C_1  and  C_2
REMARK    2  A    between atoms: C_2  and  C_3
REMARK    3  A    between atoms: C_3  and  C_5
REMARK    4  A    between atoms: C_3  and  N_6
REMARK    5  A    between atoms: N_6  and  C_7
REMARK    6  A    between atoms: C_7  and  C_8
REMARK    7  A    between atoms: N_10  and  C_11
REMARK    8  A    between atoms: N_10  and  C_25
REMARK    9  A    between atoms: C_11  and  C_12
REMARK   10  A    between atoms: N_16  and  C_17
REMARK   11  A    between atoms: C_17  and  C_18
REMARK   12  A    between atoms: C_31  and  C_33
REMARK   13  A    between atoms: C_36  and  C_39
REMARK                            x       y       z     vdW  Elec       q    Type
REMARK                         _______ _______ _______ _____ _____    ______ ____
ROOT
ATOM      1  C   UNL     1      -1.765  -9.011  -5.026  0.00  0.00    +0.234 C 
ATOM      2  O   UNL     1      -1.425  -8.016  -4.421  0.00  0.00    -0.274 OA
ATOM      3  N   UNL     1      -2.968  -9.052  -5.632  0.00  0.00    -0.291 N 
ENDROOT
BRANCH   3   4
ATOM      4  C   UNL     1      -3.815  -7.857  -5.662  0.00  0.00    +0.077 C 
ATOM      5  C   UNL     1      -3.064  -6.718  -6.354  0.00  0.00    +0.022 C 
ATOM      6  C   UNL     1      -3.949  -5.470  -6.386  0.00  0.00    +0.002 C 
ATOM      7  C   UNL     1      -4.297  -5.055  -4.955  0.00  0.00    +0.000 C 
ATOM      8  C   UNL     1      -5.048  -6.195  -4.263  0.00  0.00    +0.002 C 
ATOM      9  C   UNL     1      -4.163  -7.443  -4.231  0.00  0.00    +0.022 C 
ENDBRANCH   3   4
BRANCH   1  10
ATOM     10  C   UNL     1      -0.842 -10.200  -5.099  0.00  0.00    +0.204 C 
BRANCH  10  11
ATOM     11  N   UNL     1       0.334  -9.958  -4.260  0.00  0.00    -0.286 N 
ATOM     12  C   UNL     1       1.450  -9.429  -4.800  0.00  0.00    +0.247 C 
ATOM     13  O   UNL     1       1.362  -8.565  -5.651  0.00  0.00    -0.270 OA
BRANCH  12  14
ATOM     14  C   UNL     1       2.780  -9.898  -4.357  0.00  0.00    +0.037 A 
ATOM     15  C   UNL     1       3.296  -9.484  -3.128  0.00  0.00    +0.013 A 
ATOM     16  C   UNL     1       4.536  -9.930  -2.719  0.00  0.00    +0.004 A 
ATOM     17  C   UNL     1       5.272 -10.777  -3.529  0.00  0.00    -0.050 A 
ATOM     18  C   UNL     1       4.768 -11.187  -4.750  0.00  0.00    +0.004 A 
ATOM     19  C   UNL     1       3.527 -10.753  -5.169  0.00  0.00    +0.013 A 
ATOM     20  C   UNL     1       6.628 -11.255  -3.078  0.00  0.00    +0.044 C 
ENDBRANCH  12  14
BRANCH  11  21
ATOM     21  C   UNL     1       0.298 -10.292  -2.834  0.00  0.00    +0.074 C 
ATOM     22  C   UNL     1      -0.041  -9.038  -2.025  0.00  0.00    +0.028 C 
BRANCH  21  24
ATOM     23  C   UNL     1       1.477 -12.113  -1.594  0.00  0.00    +0.005 C 
ATOM     24  C   UNL     1       1.664 -10.826  -2.400  0.00  0.00    +0.019 C 
ENDBRANCH  21  24
ENDBRANCH  11  21
ENDBRANCH  10  11
ENDBRANCH   1  10
BRANCH   3  25
ATOM     25  C   UNL     1      -3.428 -10.292  -6.261  0.00  0.00    +0.161 C 
BRANCH  25  26
ATOM     26  C   UNL     1      -4.182 -11.118  -5.251  0.00  0.00    +0.036 A 
ATOM     27  C   UNL     1      -3.666 -12.113  -4.500  0.00  0.00    +0.024 A 
ATOM     28  C   UNL     1      -4.706 -12.616  -3.694  0.00  0.00    +0.019 A 
ATOM     29  C   UNL     1      -5.818 -11.910  -3.983  0.00  0.00    +0.086 A 
ATOM     30  N   UNL     1      -5.501 -10.986  -4.934  0.00  0.00    -0.345 N 
BRANCH  30  31
ATOM     31  C   UNL     1      -6.426 -10.013  -5.521  0.00  0.00    +0.158 C 
BRANCH  31  32
ATOM     32  C   UNL     1      -7.779 -10.152  -4.872  0.00  0.00    -0.009 A 
ATOM     33  C   UNL     1      -8.118  -9.345  -3.802  0.00  0.00    +0.007 A 
ATOM     34  C   UNL     1      -9.359  -9.472  -3.206  0.00  0.00    +0.000 A 
ATOM     35  C   UNL     1     -10.262 -10.406  -3.680  0.00  0.00    +0.001 A 
ATOM     36  C   UNL     1      -9.924 -11.212  -4.750  0.00  0.00    +0.020 A 
ATOM     37  C   UNL     1      -8.684 -11.082  -5.350  0.00  0.00    +0.046 A 
ATOM     38 CL   UNL     1      -8.262 -12.090  -6.699  0.00  0.00    -0.083 Cl
ENDBRANCH  31  32
ENDBRANCH  30  31
ENDBRANCH  25  26
ENDBRANCH   3  25
TORSDOF 10
