REMARK  Name = ZINC38550622
REMARK  5 active torsions:
REMARK  status: ('A' for Active; 'I' for Inactive)
REMARK    1  A    between atoms: N_7  and  C_8
REMARK    2  A    between atoms: C_8  and  C_10
REMARK    3  A    between atoms: C_8  and  C_17
REMARK    4  A    between atoms: C_21  and  N_22
REMARK    5  A    between atoms: C_23  and  C_25
REMARK                            x       y       z     vdW  Elec       q    Type
REMARK                         _______ _______ _______ _____ _____    ______ ____
ROOT
ATOM      1  C   UNL     1      -0.183  -3.952   0.638  0.00  0.00    +0.009 A 
ATOM      2  C   UNL     1      -0.905  -4.082   1.826  0.00  0.00    -0.030 A 
ATOM      3  C   UNL     1      -0.577  -5.132   2.626  0.00  0.00    -0.005 A 
ATOM      4  S   UNL     1       0.727  -5.948   1.745  0.00  0.00    -0.078 S 
ATOM      5  C   UNL     1       0.786  -4.855   0.333  0.00  0.00    +0.078 A 
ATOM      6  C   UNL     1      -1.185  -5.500   3.941  0.00  0.00    +0.043 C 
ATOM      7  C   UNL     1      -2.001  -4.301   4.448  0.00  0.00    +0.005 C 
ATOM      8  C   UNL     1      -2.880  -3.787   3.304  0.00  0.00    +0.005 C 
ATOM      9  C   UNL     1      -2.012  -3.116   2.238  0.00  0.00    +0.036 C 
ENDROOT
BRANCH   5  10
ATOM     10  N   UNL     1       1.613  -4.913  -0.791  0.00  0.00    -0.273 N 
ATOM     11  C   UNL     1       2.433  -5.967  -0.971  0.00  0.00    +0.284 C 
ATOM     12  O   UNL     1       2.453  -6.869  -0.153  0.00  0.00    -0.266 OA
ATOM     13  H   UNL     1       1.597  -4.194  -1.442  0.00  0.00    +0.156 HD
BRANCH  11  14
ATOM     14  C   UNL     1       3.301  -6.027  -2.150  0.00  0.00    +0.189 A 
ATOM     15  C   UNL     1       4.172  -7.034  -2.456  0.00  0.00    +0.054 A 
ATOM     16  C   UNL     1       4.790  -6.680  -3.665  0.00  0.00    +0.042 A 
ATOM     17  C   UNL     1       4.277  -5.488  -4.040  0.00  0.00    +0.196 A 
ATOM     18  O   UNL     1       3.377  -5.100  -3.128  0.00  0.00    -0.458 OA
ENDBRANCH  11  14
ENDBRANCH   5  10
BRANCH   1  19
ATOM     19  C   UNL     1      -0.482  -2.816  -0.306  0.00  0.00    +0.135 C 
BRANCH  19  26
ATOM     20  C   UNL     1      -0.463   0.807  -2.422  0.00  0.00    +0.005 A 
ATOM     21  C   UNL     1       0.753   1.343  -2.824  0.00  0.00    +0.018 A 
ATOM     22  C   UNL     1       1.921   0.675  -2.519  0.00  0.00    +0.084 A 
ATOM     23  N   UNL     1       1.895  -0.464  -1.851  0.00  0.00    -0.350 N 
ATOM     24  C   UNL     1       0.756  -1.008  -1.451  0.00  0.00    +0.097 A 
ATOM     25  C   UNL     1      -0.459  -0.388  -1.725  0.00  0.00    +0.041 A 
ATOM     26  N   UNL     1       0.774  -2.208  -0.751  0.00  0.00    -0.320 N 
ATOM     27  H   UNL     1       1.619  -2.644  -0.558  0.00  0.00    +0.148 HD
ATOM     28  H   UNL     1       2.730  -0.913  -1.650  0.00  0.00    +0.166 HD
ENDBRANCH  19  26
BRANCH  19  29
ATOM     29  C   UNL     1      -1.238  -3.341  -1.500  0.00  0.00    -0.023 A 
ATOM     30  C   UNL     1      -0.549  -3.778  -2.615  0.00  0.00    +0.008 A 
ATOM     31  C   UNL     1      -1.240  -4.260  -3.710  0.00  0.00    +0.038 A 
ATOM     32  C   UNL     1      -2.624  -4.304  -3.690  0.00  0.00    +0.123 A 
ATOM     33  C   UNL     1      -3.313  -3.865  -2.572  0.00  0.00    +0.038 A 
ATOM     34  C   UNL     1      -2.619  -3.389  -1.476  0.00  0.00    +0.008 A 
ATOM     35  F   UNL     1      -3.302  -4.774  -4.760  0.00  0.00    -0.205 F 
ENDBRANCH  19  29
ENDBRANCH   1  19
TORSDOF 5
