REMARK  Name = ZINC39940956
REMARK  12 active torsions:
REMARK  status: ('A' for Active; 'I' for Inactive)
REMARK    1  A    between atoms: C_1  and  C_2
REMARK    2  A    between atoms: C_5  and  N_8
REMARK    3  A    between atoms: C_9  and  C_11
REMARK    4  A    between atoms: C_11  and  S_12
REMARK    5  A    between atoms: S_12  and  C_13
REMARK    6  A    between atoms: C_18  and  C_19
REMARK    7  A    between atoms: C_19  and  O_21
REMARK    8  A    between atoms: O_21  and  C_22
REMARK    9  A    between atoms: C_22  and  C_24
REMARK   10  A    between atoms: C_22  and  C_25
REMARK   11  A    between atoms: C_25  and  C_27
REMARK   12  A    between atoms: C_35  and  C_37
REMARK                            x       y       z     vdW  Elec       q    Type
REMARK                         _______ _______ _______ _____ _____    ______ ____
ROOT
ATOM      1  C   UNL     1       0.940  -8.821   2.641  0.00  0.00    +0.022 A 
ATOM      2  C   UNL     1       1.038  -9.417   1.389  0.00  0.00    +0.015 A 
ATOM      3  C   UNL     1       1.208 -10.782   1.285  0.00  0.00    +0.001 A 
ATOM      4  C   UNL     1       1.282 -11.569   2.424  0.00  0.00    +0.001 A 
ATOM      5  C   UNL     1       1.186 -10.998   3.673  0.00  0.00    +0.016 A 
ATOM      6  C   UNL     1       1.020  -9.616   3.797  0.00  0.00    +0.072 A 
ENDROOT
BRANCH   6   7
ATOM      7  C   UNL     1       0.922  -8.997   5.129  0.00  0.00    +0.341 C 
ATOM      8  O   UNL     1       0.773  -7.795   5.232  0.00  0.00    -0.245 OA
BRANCH   7   9
ATOM      9  O   UNL     1       0.999  -9.764   6.235  0.00  0.00    -0.450 OA
BRANCH   9  10
ATOM     10  C   UNL     1       0.897  -9.097   7.495  0.00  0.00    +0.244 C 
ATOM     11  C   UNL     1       2.293  -8.683   7.967  0.00  0.00    +0.061 C 
BRANCH  10  12
ATOM     12  C   UNL     1       0.280 -10.027   8.507  0.00  0.00    +0.202 C 
ATOM     13  O   UNL     1       0.290 -11.226   8.315  0.00  0.00    -0.288 OA
BRANCH  12  14
ATOM     14  C   UNL     1      -0.308  -9.505   9.678  0.00  0.00    +0.030 C 
ATOM     15  C   UNL     1      -0.348  -8.181  10.076  0.00  0.00    +0.007 A 
ATOM     16  C   UNL     1       0.145  -6.988   9.498  0.00  0.00    +0.010 A 
ATOM     17  C   UNL     1      -0.041  -5.802  10.120  0.00  0.00    +0.001 A 
ATOM     18  C   UNL     1      -0.718  -5.691  11.345  0.00  0.00    +0.002 A 
ATOM     19  C   UNL     1      -1.227  -6.769  11.980  0.00  0.00    +0.026 A 
ATOM     20  C   UNL     1      -1.069  -8.100  11.370  0.00  0.00    +0.043 A 
ATOM     21  N   UNL     1      -1.451  -9.284  11.755  0.00  0.00    -0.377 N 
ATOM     22  C   UNL     1      -1.034 -10.276  10.760  0.00  0.00    +0.111 C 
ATOM     23  C   UNL     1      -0.092 -11.297  11.401  0.00  0.00    +0.035 C 
ATOM     24  H   UNL     1      -1.939  -9.479  12.571  0.00  0.00    +0.160 HD
ENDBRANCH  12  14
ENDBRANCH  10  12
ENDBRANCH   9  10
ENDBRANCH   7   9
ENDBRANCH   6   7
BRANCH   1  25
ATOM     25  S   UNL     1       0.724  -7.077   2.777  0.00  0.00    -0.115 S 
BRANCH  25  26
ATOM     26  C   UNL     1       0.680  -6.505   1.057  0.00  0.00    +0.170 C 
BRANCH  26  28
ATOM     27  N   UNL     1       0.435  -4.359  -0.149  0.00  0.00    -0.285 N 
ATOM     28  C   UNL     1       0.497  -5.009   1.030  0.00  0.00    +0.227 C 
ATOM     29  O   UNL     1       0.405  -4.391   2.069  0.00  0.00    -0.275 OA
ATOM     30  H   UNL     1       0.434  -4.860  -0.980  0.00  0.00    +0.155 HD
BRANCH  27  35
ATOM     31  C   UNL     1       0.182   1.308  -0.254  0.00  0.00    +0.044 C 
ATOM     32  C   UNL     1       0.249  -0.198  -0.227  0.00  0.00    -0.050 A 
ATOM     33  C   UNL     1       0.973  -0.838   0.763  0.00  0.00    +0.005 A 
ATOM     34  C   UNL     1       1.037  -2.217   0.791  0.00  0.00    +0.023 A 
ATOM     35  C   UNL     1       0.372  -2.961  -0.175  0.00  0.00    +0.033 A 
ATOM     36  C   UNL     1      -0.354  -2.315  -1.167  0.00  0.00    +0.023 A 
ATOM     37  C   UNL     1      -0.417  -0.936  -1.187  0.00  0.00    +0.005 A 
ENDBRANCH  27  35
ENDBRANCH  26  28
ENDBRANCH  25  26
ENDBRANCH   1  25
TORSDOF 9
