REMARK  Name = ZINC03042999
REMARK  10 active torsions:
REMARK  status: ('A' for Active; 'I' for Inactive)
REMARK    1  A    between atoms: C_1  and  C_2
REMARK    2  A    between atoms: C_7  and  C_8
REMARK    3  A    between atoms: C_8  and  N_9
REMARK    4  A    between atoms: N_17  and  N_18
REMARK    5  A    between atoms: N_18  and  C_19
REMARK    6  A    between atoms: C_19  and  N_21
REMARK    7  A    between atoms: N_21  and  C_22
REMARK    8  A    between atoms: C_23  and  C_30
REMARK    9  A    between atoms: C_25  and  C_29
REMARK   10  A    between atoms: C_27  and  C_28
REMARK                            x       y       z     vdW  Elec       q    Type
REMARK                         _______ _______ _______ _____ _____    ______ ____
ROOT
ATOM      1  N   UNL     1      -1.183   1.025   2.778  0.00  0.00    -0.261 N 
ATOM      2  C   UNL     1      -1.786   1.425   1.590  0.00  0.00    +0.046 A 
ATOM      3  C   UNL     1      -1.252   1.774   0.354  0.00  0.00    +0.025 A 
ATOM      4  C   UNL     1      -2.085   2.141  -0.682  0.00  0.00    +0.017 A 
ATOM      5  C   UNL     1      -3.460   2.168  -0.507  0.00  0.00    +0.019 A 
ATOM      6  C   UNL     1      -4.008   1.825   0.713  0.00  0.00    +0.027 A 
ATOM      7  C   UNL     1      -3.176   1.453   1.763  0.00  0.00    +0.029 A 
ATOM      8  C   UNL     1      -3.432   1.039   3.162  0.00  0.00    +0.153 C 
ATOM      9  N   UNL     1      -4.593   0.922   3.761  0.00  0.00    -0.175 NA
ATOM     10  C   UNL     1      -2.096   0.779   3.733  0.00  0.00    +0.272 C 
ATOM     11  O   UNL     1      -1.862   0.410   4.869  0.00  0.00    -0.268 OA
ATOM     12 BR   UNL     1      -4.585   2.675  -1.940  0.00  0.00    -0.050 Br
ENDROOT
BRANCH   9  13
ATOM     13  N   UNL     1      -4.652   0.515   5.100  0.00  0.00    -0.217 N 
ATOM     14  H   UNL     1      -3.835   0.319   5.584  0.00  0.00    +0.176 HD
BRANCH  13  15
ATOM     15  C   UNL     1      -5.846   0.396   5.716  0.00  0.00    +0.154 C 
ATOM     16  S   UNL     1      -5.918  -0.103   7.352  0.00  0.00    -0.017 S 
BRANCH  15  17
ATOM     17  N   UNL     1      -6.981   0.668   5.043  0.00  0.00    -0.295 N 
ATOM     18  H   UNL     1      -6.938   0.997   4.132  0.00  0.00    +0.154 HD
BRANCH  17  19
ATOM     19  C   UNL     1      -8.222   0.477   5.660  0.00  0.00    +0.039 A 
ATOM     20  C   UNL     1      -9.137   1.521   5.720  0.00  0.00    -0.029 A 
ATOM     21  C   UNL     1     -10.361   1.329   6.329  0.00  0.00    +0.008 A 
ATOM     22  C   UNL     1     -10.677   0.100   6.879  0.00  0.00    -0.050 A 
ATOM     23  C   UNL     1      -9.768  -0.941   6.821  0.00  0.00    +0.008 A 
ATOM     24  C   UNL     1      -8.544  -0.757   6.208  0.00  0.00    -0.029 A 
ATOM     25  C   UNL     1      -7.557  -1.894   6.138  0.00  0.00    +0.045 C 
ATOM     26  C   UNL     1     -12.013  -0.106   7.545  0.00  0.00    +0.044 C 
ATOM     27  C   UNL     1      -8.794   2.861   5.122  0.00  0.00    +0.045 C 
ENDBRANCH  17  19
ENDBRANCH  15  17
ENDBRANCH  13  15
ENDBRANCH   9  13
BRANCH   1  28
ATOM     28  C   UNL     1       0.263   0.884   2.962  0.00  0.00    +0.149 C 
BRANCH  28  35
ATOM     29  C   UNL     1       3.114   1.160   3.338  0.00  0.00    +0.044 C 
ATOM     30  C   UNL     1       2.199   2.317   3.644  0.00  0.00    -0.046 A 
ATOM     31  C   UNL     1       2.724   3.512   4.099  0.00  0.00    +0.003 A 
ATOM     32  C   UNL     1       1.884   4.574   4.379  0.00  0.00    +0.000 A 
ATOM     33  C   UNL     1       0.519   4.440   4.204  0.00  0.00    +0.000 A 
ATOM     34  C   UNL     1      -0.006   3.245   3.749  0.00  0.00    +0.005 A 
ATOM     35  C   UNL     1       0.835   2.185   3.464  0.00  0.00    -0.027 A 
ENDBRANCH  28  35
ENDBRANCH   1  28
TORSDOF 6
