REMARK  Name = ZINC03233119
REMARK  9 active torsions:
REMARK  status: ('A' for Active; 'I' for Inactive)
REMARK    1  A    between atoms: C_2  and  C_3
REMARK    2  A    between atoms: C_2  and  N_17
REMARK    3  A    between atoms: C_6  and  O_13
REMARK    4  A    between atoms: C_8  and  O_9
REMARK    5  A    between atoms: O_9  and  C_10
REMARK    6  A    between atoms: O_13  and  C_14
REMARK    7  A    between atoms: N_17  and  N_18
REMARK    8  A    between atoms: C_19  and  C_21
REMARK    9  A    between atoms: C_30  and  O_31
REMARK                            x       y       z     vdW  Elec       q    Type
REMARK                         _______ _______ _______ _____ _____    ______ ____
ROOT
ATOM      1  N   UNL     1      -2.505   1.409  -0.094  0.00  0.00    -0.264 N 
ATOM      2  H   UNL     1      -2.492   0.442  -0.173  0.00  0.00    +0.170 HD
ENDROOT
BRANCH   1   3
ATOM      3  N   UNL     1      -3.726   2.096  -0.096  0.00  0.00    -0.232 N 
ATOM      4  C   UNL     1      -4.883   1.414  -0.206  0.00  0.00    +0.264 C 
ATOM      5  O   UNL     1      -4.867   0.202  -0.304  0.00  0.00    -0.269 OA
ATOM      6  H   UNL     1      -3.738   3.063  -0.017  0.00  0.00    +0.173 HD
BRANCH   4   7
ATOM      7  C   UNL     1      -6.169   2.138  -0.207  0.00  0.00    +0.080 A 
ATOM      8  C   UNL     1      -6.182   3.518  -0.089  0.00  0.00    +0.025 A 
ATOM      9  C   UNL     1      -7.407   4.201  -0.096  0.00  0.00    -0.017 A 
ATOM     10  C   UNL     1      -7.457   5.602   0.018  0.00  0.00    +0.008 A 
ATOM     11  C   UNL     1      -8.661   6.236   0.014  0.00  0.00    +0.001 A 
ATOM     12  C   UNL     1      -9.850   5.516  -0.100  0.00  0.00    +0.001 A 
ATOM     13  C   UNL     1      -9.841   4.160  -0.211  0.00  0.00    +0.008 A 
ATOM     14  C   UNL     1      -8.617   3.469  -0.212  0.00  0.00    -0.014 A 
ATOM     15  C   UNL     1      -8.576   2.069  -0.325  0.00  0.00    +0.054 A 
ATOM     16  C   UNL     1      -7.377   1.419  -0.323  0.00  0.00    +0.130 A 
BRANCH  16  17
ATOM     17  O   UNL     1      -7.346   0.067  -0.432  0.00  0.00    -0.506 OA
ATOM     18  H   UNL     1      -7.379  -0.398   0.415  0.00  0.00    +0.292 HD
ENDBRANCH  16  17
ENDBRANCH   4   7
ENDBRANCH   1   3
BRANCH   1  20
ATOM     19  C   UNL     1      -1.324   3.445   0.128  0.00  0.00    +0.035 C 
ATOM     20  C   UNL     1      -1.307   2.115   0.020  0.00  0.00    +0.048 C 
BRANCH  20  21
ATOM     21  C   UNL     1      -0.017   1.390   0.021  0.00  0.00    +0.039 A 
ATOM     22  C   UNL     1       0.871   1.543   1.086  0.00  0.00    +0.017 A 
ATOM     23  C   UNL     1       2.069   0.861   1.087  0.00  0.00    +0.047 A 
ATOM     24  C   UNL     1       2.396   0.021   0.030  0.00  0.00    +0.130 A 
ATOM     25  C   UNL     1       1.518  -0.138  -1.033  0.00  0.00    +0.092 A 
ATOM     26  C   UNL     1       0.313   0.543  -1.043  0.00  0.00    +0.139 A 
BRANCH  26  27
ATOM     27  O   UNL     1      -0.547   0.389  -2.083  0.00  0.00    -0.433 OA
BRANCH  27  28
ATOM     28  C   UNL     1      -0.144  -0.492  -3.134  0.00  0.00    +0.541 C 
ATOM     29  F   UNL     1       1.049  -0.028  -3.699  0.00  0.00    -0.166 F 
ATOM     30  F   UNL     1       0.054  -1.776  -2.616  0.00  0.00    -0.166 F 
ENDBRANCH  27  28
ENDBRANCH  26  27
BRANCH  24  31
ATOM     31  O   UNL     1       3.578  -0.648   0.037  0.00  0.00    -0.434 OA
BRANCH  31  32
ATOM     32  C   UNL     1       4.434  -0.440   1.162  0.00  0.00    +0.541 C 
ATOM     33  F   UNL     1       4.769   0.916   1.248  0.00  0.00    -0.166 F 
ATOM     34  F   UNL     1       3.773  -0.832   2.330  0.00  0.00    -0.166 F 
ENDBRANCH  31  32
ENDBRANCH  24  31
ENDBRANCH  20  21
ENDBRANCH   1  20
TORSDOF 9
