REMARK  Name = ZINC02743647
REMARK  8 active torsions:
REMARK  status: ('A' for Active; 'I' for Inactive)
REMARK    1  A    between atoms: C_1  and  C_2
REMARK    2  A    between atoms: C_3  and  C_30
REMARK    3  A    between atoms: C_4  and  C_14
REMARK    4  A    between atoms: C_19  and  O_20
REMARK    5  A    between atoms: O_20  and  C_21
REMARK    6  A    between atoms: C_21  and  C_22
REMARK    7  A    between atoms: C_30  and  O_32
REMARK    8  A    between atoms: O_32  and  C_33
REMARK                            x       y       z     vdW  Elec       q    Type
REMARK                         _______ _______ _______ _____ _____    ______ ____
ROOT
ATOM      1  C   UNL     1      -0.021   1.051   0.017  0.00  0.00    +0.061 C 
ATOM      2  C   UNL     1      -0.722   1.556   1.252  0.00  0.00    +0.016 C 
ATOM      3  C   UNL     1      -0.034   1.701   2.398  0.00  0.00    +0.065 C 
ATOM      4  C   UNL     1      -0.697   2.208   3.645  0.00  0.00    +0.096 C 
ATOM      5  C   UNL     1      -2.197   2.093   3.545  0.00  0.00    +0.024 C 
ATOM      6  C   UNL     1      -2.798   1.935   2.346  0.00  0.00    +0.015 C 
ATOM      7  N   UNL     1      -2.052   1.867   1.199  0.00  0.00    -0.321 N 
ATOM      8  C   UNL     1      -4.299   1.831   2.237  0.00  0.00    +0.051 C 
ATOM      9  C   UNL     1      -4.862   1.182   3.504  0.00  0.00    +0.014 C 
ATOM     10  C   UNL     1      -4.448   2.030   4.710  0.00  0.00    +0.080 C 
ATOM     11  C   UNL     1      -2.949   2.153   4.731  0.00  0.00    +0.162 C 
ATOM     12  O   UNL     1      -2.378   2.306   5.793  0.00  0.00    -0.292 OA
ATOM     13  H   UNL     1      -2.532   2.064   0.229  0.00  0.00    +0.152 HD
ENDROOT
BRANCH   4  14
ATOM     14  C   UNL     1      -0.324   3.654   3.851  0.00  0.00    +0.007 A 
ATOM     15  C   UNL     1      -0.641   4.593   2.889  0.00  0.00    +0.023 A 
ATOM     16  C   UNL     1      -0.304   5.921   3.080  0.00  0.00    +0.018 A 
ATOM     17  C   UNL     1       0.361   6.309   4.230  0.00  0.00    +0.019 A 
ATOM     18  C   UNL     1       0.684   5.372   5.192  0.00  0.00    +0.047 A 
ATOM     19  C   UNL     1       0.342   4.041   5.005  0.00  0.00    +0.125 A 
ATOM     20 BR   UNL     1      -0.745   7.206   1.765  0.00  0.00    -0.050 Br
BRANCH  19  21
ATOM     21  O   UNL     1       0.659   3.117   5.950  0.00  0.00    -0.487 OA
BRANCH  21  22
ATOM     22  C   UNL     1       1.345   3.587   7.112  0.00  0.00    +0.264 C 
BRANCH  22  23
ATOM     23  C   UNL     1       1.611   2.431   8.041  0.00  0.00    -0.010 A 
ATOM     24  C   UNL     1       0.685   2.097   9.012  0.00  0.00    +0.008 A 
ATOM     25  C   UNL     1       0.926   1.033   9.860  0.00  0.00    +0.020 A 
ATOM     26  C   UNL     1       2.099   0.308   9.745  0.00  0.00    +0.041 A 
ATOM     27  C   UNL     1       3.028   0.646   8.776  0.00  0.00    +0.020 A 
ATOM     28  C   UNL     1       2.783   1.707   7.925  0.00  0.00    +0.008 A 
ATOM     29 CL   UNL     1       2.405  -1.024  10.814  0.00  0.00    -0.084 Cl
ENDBRANCH  22  23
ENDBRANCH  21  22
ENDBRANCH  19  21
ENDBRANCH   4  14
BRANCH   3  30
ATOM     30  C   UNL     1       1.341   1.371   2.428  0.00  0.00    +0.337 C 
ATOM     31  O   UNL     1       1.915   1.061   1.401  0.00  0.00    -0.245 OA
BRANCH  30  32
ATOM     32  O   UNL     1       2.016   1.399   3.596  0.00  0.00    -0.465 OA
ATOM     33  C   UNL     1       3.402   1.054   3.553  0.00  0.00    +0.280 C 
ENDBRANCH  30  32
ENDBRANCH   3  30
TORSDOF 6
