REMARK  Name = ZINC14548278
REMARK  6 active torsions:
REMARK  status: ('A' for Active; 'I' for Inactive)
REMARK    1  A    between atoms: C_1  and  C_2
REMARK    2  A    between atoms: C_2  and  C_3
REMARK    3  A    between atoms: C_2  and  C_4
REMARK    4  A    between atoms: N_6  and  C_7
REMARK    5  A    between atoms: C_20  and  C_23
REMARK    6  A    between atoms: C_32  and  O_33
REMARK                            x       y       z     vdW  Elec       q    Type
REMARK                         _______ _______ _______ _____ _____    ______ ____
ROOT
ATOM      1  C   UNL     1       2.391   1.264   0.076  0.00  0.00    +0.034 A 
ATOM      2  C   UNL     1       2.468  -0.123   0.062  0.00  0.00    +0.025 A 
ATOM      3  C   UNL     1       3.696  -0.747   0.130  0.00  0.00    +0.025 A 
ATOM      4  C   UNL     1       4.863   0.002   0.213  0.00  0.00    +0.031 A 
ATOM      5  C   UNL     1       4.780   1.399   0.239  0.00  0.00    -0.018 A 
ATOM      6  C   UNL     1       3.552   2.019   0.159  0.00  0.00    +0.029 A 
ATOM      7  C   UNL     1       6.045   2.156   0.356  0.00  0.00    +0.049 C 
ATOM      8  C   UNL     1       6.179   3.546  -0.149  0.00  0.00    -0.023 C 
ATOM      9  C   UNL     1       7.434   3.737  -0.537  0.00  0.00    -0.030 C 
ATOM     10  C   UNL     1       8.241   2.450  -0.349  0.00  0.00    +0.033 C 
ATOM     11  C   UNL     1       7.143   1.382  -0.433  0.00  0.00    +0.029 C 
ATOM     12  C   UNL     1       7.369   0.097   0.344  0.00  0.00    +0.109 C 
ATOM     13  N   UNL     1       6.100  -0.658   0.245  0.00  0.00    -0.336 N 
ATOM     14  H   UNL     1       6.124  -1.626   0.202  0.00  0.00    +0.147 HD
ENDROOT
BRANCH  12  15
ATOM     15  C   UNL     1       8.493  -0.694  -0.273  0.00  0.00    +0.022 A 
ATOM     16  C   UNL     1       9.753  -0.734   0.348  0.00  0.00    -0.009 A 
ATOM     17  C   UNL     1       9.995  -0.045   1.549  0.00  0.00    +0.009 A 
ATOM     18  C   UNL     1      11.227  -0.106   2.123  0.00  0.00    +0.001 A 
ATOM     19  C   UNL     1      12.256  -0.843   1.539  0.00  0.00    +0.001 A 
ATOM     20  C   UNL     1      12.058  -1.522   0.376  0.00  0.00    +0.008 A 
ATOM     21  C   UNL     1      10.799  -1.482  -0.247  0.00  0.00    -0.017 A 
ATOM     22  C   UNL     1      10.558  -2.172  -1.448  0.00  0.00    +0.012 A 
ATOM     23  C   UNL     1       9.328  -2.114  -2.025  0.00  0.00    +0.046 A 
ATOM     24  C   UNL     1       8.293  -1.380  -1.437  0.00  0.00    +0.122 A 
BRANCH  24  25
ATOM     25  O   UNL     1       7.073  -1.345  -2.034  0.00  0.00    -0.506 OA
ATOM     26  H   UNL     1       6.966  -0.624  -2.669  0.00  0.00    +0.292 HD
ENDBRANCH  24  25
ENDBRANCH  12  15
BRANCH   1  29
ATOM     27  C   UNL     1       0.068   1.343   0.594  0.00  0.00    +0.220 C 
ATOM     28  O   UNL     1       0.160   0.254   1.120  0.00  0.00    -0.275 OA
ATOM     29  N   UNL     1       1.143   1.899   0.001  0.00  0.00    -0.285 N 
ATOM     30  H   UNL     1       1.054   2.738  -0.477  0.00  0.00    +0.155 HD
BRANCH  27  32
ATOM     31  C   UNL     1      -1.702   2.317  -0.844  0.00  0.00    +0.017 C 
ATOM     32  C   UNL     1      -1.251   2.072   0.597  0.00  0.00    +0.069 C 
ATOM     33  C   UNL     1      -2.300   1.226   1.323  0.00  0.00    +0.017 C 
ENDBRANCH  27  32
ENDBRANCH   1  29
TORSDOF 4
