REMARK  Name = ZINC63119439
REMARK  12 active torsions:
REMARK  status: ('A' for Active; 'I' for Inactive)
REMARK    1  A    between atoms: C_1  and  C_2
REMARK    2  A    between atoms: C_2  and  C_3
REMARK    3  A    between atoms: C_2  and  O_4
REMARK    4  A    between atoms: O_4  and  C_5
REMARK    5  A    between atoms: C_5  and  C_7
REMARK    6  A    between atoms: C_9  and  N_17
REMARK    7  A    between atoms: C_18  and  C_20
REMARK    8  A    between atoms: N_22  and  C_23
REMARK    9  A    between atoms: C_23  and  C_24
REMARK   10  A    between atoms: C_24  and  C_25
REMARK   11  A    between atoms: C_28  and  O_34
REMARK   12  A    between atoms: O_34  and  C_35
REMARK                            x       y       z     vdW  Elec       q    Type
REMARK                         _______ _______ _______ _____ _____    ______ ____
ROOT
ATOM      1  N   UNL     1      -4.625  -0.439  -0.392  0.00  0.00    -0.294 N 
ATOM      2  C   UNL     1      -4.738   0.886  -0.612  0.00  0.00    +0.300 C 
ATOM      3  O   UNL     1      -4.233   1.383  -1.597  0.00  0.00    -0.265 OA
ATOM      4  H   UNL     1      -5.029  -0.836   0.395  0.00  0.00    +0.150 HD
ENDROOT
BRANCH   1   6
ATOM      5  C   UNL     1      -2.946  -2.263  -0.619  0.00  0.00    +0.155 C 
ATOM      6  C   UNL     1      -3.893  -1.279  -1.343  0.00  0.00    +0.154 C 
ATOM      7  S   UNL     1      -5.000  -2.505  -2.155  0.00  0.00    -0.106 S 
ATOM      8  C   UNL     1      -3.894  -3.904  -2.138  0.00  0.00    -0.013 C 
ATOM      9  C   UNL     1      -2.903  -3.608  -1.319  0.00  0.00    -0.044 C 
ATOM     10  C   UNL     1      -1.918  -4.783  -1.302  0.00  0.00    +0.033 C 
ATOM     11  C   UNL     1      -2.703  -5.984  -1.864  0.00  0.00    +0.009 C 
ATOM     12  C   UNL     1      -3.744  -5.277  -2.749  0.00  0.00    +0.042 C 
BRANCH   5  13
ATOM     13  C   UNL     1      -1.558  -1.678  -0.590  0.00  0.00    +0.317 C 
ATOM     14  O   UNL     1      -0.641  -2.271  -1.109  0.00  0.00    -0.250 OA
BRANCH  13  15
ATOM     15  O   UNL     1      -1.339  -0.499   0.012  0.00  0.00    -0.461 OA
BRANCH  15  17
ATOM     16  C   UNL     1      -0.019   1.526   0.010  0.00  0.00    +0.052 C 
ATOM     17  C   UNL     1       0.002  -0.004   0.002  0.00  0.00    +0.170 C 
ATOM     18  C   UNL     1       0.742  -0.511   1.242  0.00  0.00    +0.052 C 
ENDBRANCH  15  17
ENDBRANCH  13  15
ENDBRANCH   5  13
ENDBRANCH   1   6
BRANCH   2  19
ATOM     19  C   UNL     1      -5.484   1.744   0.359  0.00  0.00    +0.299 C 
ATOM     20  O   UNL     1      -5.989   1.247   1.344  0.00  0.00    -0.265 OA
ATOM     21  N   UNL     1      -5.597   3.068   0.139  0.00  0.00    -0.307 N 
ATOM     22  H   UNL     1      -5.194   3.466  -0.648  0.00  0.00    +0.149 HD
BRANCH  21  23
ATOM     23  C   UNL     1      -6.329   3.909   1.090  0.00  0.00    +0.109 C 
BRANCH  23  24
ATOM     24  C   UNL     1      -6.307   5.361   0.610  0.00  0.00    +0.052 C 
BRANCH  24  25
ATOM     25  C   UNL     1      -7.060   6.226   1.588  0.00  0.00    -0.040 C 
ATOM     26  C   UNL     1      -6.538   6.940   2.610  0.00  0.00    +0.002 A 
ATOM     27  C   UNL     1      -5.167   7.121   3.101  0.00  0.00    +0.055 A 
ATOM     28  C   UNL     1      -4.942   7.917   4.173  0.00  0.00    +0.121 A 
ATOM     29  C   UNL     1      -5.981   8.585   4.844  0.00  0.00    +0.047 A 
ATOM     30  C   UNL     1      -7.274   8.480   4.468  0.00  0.00    +0.029 A 
ATOM     31  C   UNL     1      -7.632   7.645   3.317  0.00  0.00    +0.043 A 
ATOM     32  N   UNL     1      -8.784   7.376   2.755  0.00  0.00    -0.380 N 
ATOM     33  C   UNL     1      -8.551   6.474   1.621  0.00  0.00    +0.144 C 
ATOM     34  H   UNL     1      -9.646   7.718   3.038  0.00  0.00    +0.160 HD
BRANCH  28  35
ATOM     35  O   UNL     1      -3.667   8.075   4.617  0.00  0.00    -0.495 OA
ATOM     36  C   UNL     1      -3.475   8.922   5.751  0.00  0.00    +0.277 C 
ENDBRANCH  28  35
ENDBRANCH  24  25
ENDBRANCH  23  24
ENDBRANCH  21  23
ENDBRANCH   2  19
TORSDOF 9
