REMARK  Name = ZINC35044021
REMARK  10 active torsions:
REMARK  status: ('A' for Active; 'I' for Inactive)
REMARK    1  A    between atoms: C_1  and  C_2
REMARK    2  A    between atoms: C_2  and  C_4
REMARK    3  A    between atoms: C_2  and  N_17
REMARK    4  A    between atoms: N_14  and  C_15
REMARK    5  A    between atoms: N_17  and  C_18
REMARK    6  A    between atoms: C_18  and  C_19
REMARK    7  A    between atoms: C_19  and  C_20
REMARK    8  A    between atoms: C_20  and  C_21
REMARK    9  A    between atoms: C_20  and  C_22
REMARK   10  A    between atoms: N_25  and  C_26
REMARK                            x       y       z     vdW  Elec       q    Type
REMARK                         _______ _______ _______ _____ _____    ______ ____
ROOT
ATOM      1  N   UNL     1       0.704   0.005   0.896  0.00  0.00    -0.276 N 
ATOM      2  C   UNL     1       2.001  -0.340   0.774  0.00  0.00    +0.307 C 
ATOM      3  O   UNL     1       2.518  -0.381  -0.326  0.00  0.00    -0.252 OA
ATOM      4  N   UNL     1       2.725  -0.639   1.871  0.00  0.00    -0.268 N 
ATOM      5  H   UNL     1       2.294  -0.682   2.739  0.00  0.00    +0.156 HD
ENDROOT
BRANCH   4   6
ATOM      6  C   UNL     1       4.098  -0.887   1.757  0.00  0.00    +0.049 A 
ATOM      7  C   UNL     1       4.831  -0.288   0.742  0.00  0.00    +0.024 A 
ATOM      8  C   UNL     1       6.186  -0.535   0.632  0.00  0.00    +0.002 A 
ATOM      9  C   UNL     1       6.812  -1.377   1.532  0.00  0.00    +0.001 A 
ATOM     10  C   UNL     1       6.085  -1.976   2.544  0.00  0.00    +0.017 A 
ATOM     11  C   UNL     1       4.730  -1.730   2.663  0.00  0.00    +0.039 A 
ATOM     12 BR   UNL     1       3.738  -2.543   4.051  0.00  0.00    -0.048 Br
ENDBRANCH   4   6
BRANCH   1  14
ATOM     13  C   UNL     1      -0.493   1.804  -0.251  0.00  0.00    +0.036 C 
ATOM     14  C   UNL     1      -0.083   0.330  -0.296  0.00  0.00    +0.141 C 
BRANCH  14  15
ATOM     15  C   UNL     1      -1.318  -0.533  -0.334  0.00  0.00    +0.133 A 
ATOM     16  N   UNL     1      -2.452  -0.002   0.006  0.00  0.00    -0.232 NA
ATOM     17  C   UNL     1      -3.604  -0.717  -0.004  0.00  0.00    +0.080 A 
ATOM     18  C   UNL     1      -4.825  -0.148   0.361  0.00  0.00    +0.048 A 
ATOM     19  C   UNL     1      -5.969  -0.916   0.334  0.00  0.00    +0.043 A 
ATOM     20  C   UNL     1      -5.920  -2.251  -0.052  0.00  0.00    +0.021 A 
ATOM     21  C   UNL     1      -4.736  -2.830  -0.414  0.00  0.00    +0.017 A 
ATOM     22  C   UNL     1      -3.565  -2.074  -0.396  0.00  0.00    +0.065 A 
ATOM     23  C   UNL     1      -2.265  -2.645  -0.775  0.00  0.00    +0.262 A 
ATOM     24  O   UNL     1      -2.161  -3.807  -1.122  0.00  0.00    -0.267 OA
ATOM     25  N   UNL     1      -1.188  -1.827  -0.728  0.00  0.00    -0.298 N 
ATOM     26  C   UNL     1       0.132  -2.343  -1.101  0.00  0.00    +0.154 C 
ATOM     27 CL   UNL     1      -7.489  -0.210   0.788  0.00  0.00    -0.083 Cl
ENDBRANCH  14  15
ENDBRANCH   1  14
BRANCH   1  28
ATOM     28  C   UNL     1       0.081   0.055   2.221  0.00  0.00    +0.110 C 
BRANCH  28  29
ATOM     29  C   UNL     1      -0.410  -1.342   2.607  0.00  0.00    +0.022 C 
BRANCH  29  30
ATOM     30  C   UNL     1      -1.136  -1.274   3.952  0.00  0.00    -0.016 C 
ATOM     31  C   UNL     1      -2.402  -0.427   3.806  0.00  0.00    +0.007 C 
ATOM     32  C   UNL     1      -1.517  -2.688   4.397  0.00  0.00    +0.007 C 
ENDBRANCH  29  30
ENDBRANCH  28  29
ENDBRANCH   1  28
TORSDOF 6
