REMARK  Name = ZINC11813006
REMARK  11 active torsions:
REMARK  status: ('A' for Active; 'I' for Inactive)
REMARK    1  A    between atoms: C_1  and  C_2
REMARK    2  A    between atoms: C_6  and  S_8
REMARK    3  A    between atoms: S_8  and  C_9
REMARK    4  A    between atoms: C_12  and  C_25
REMARK    5  A    between atoms: C_15  and  C_16
REMARK    6  A    between atoms: C_15  and  N_59
REMARK    7  A    between atoms: C_16  and  C_24
REMARK    8  A    between atoms: C_17  and  C_18
REMARK    9  A    between atoms: N_27  and  C_28
REMARK   10  A    between atoms: C_28  and  C_29
REMARK   11  A    between atoms: C_28  and  C_30
REMARK                            x       y       z     vdW  Elec       q    Type
REMARK                         _______ _______ _______ _____ _____    ______ ____
ROOT
ATOM      1  C   UNL     1      -0.155  -4.867  -2.104  0.00  0.00    +0.037 C 
ATOM      2  C   UNL     1      -0.275  -6.014  -3.141  0.00  0.00    +0.006 C 
ATOM      3  C   UNL     1       0.587  -7.134  -2.522  0.00  0.00    +0.021 C 
ATOM      4  C   UNL     1       1.308  -5.032  -1.621  0.00  0.00    -0.063 C 
ATOM      5  N   UNL     1       1.515  -6.494  -1.576  0.00  0.00    +0.390 N 
ATOM      6  H   UNL     1       1.323  -6.835  -0.627  0.00  0.00    -0.080 HD
ENDROOT
BRANCH   3   7
ATOM      7  C   UNL     1       1.347  -7.855  -3.605  0.00  0.00    +0.200 C 
ATOM      8  O   UNL     1       2.106  -7.241  -4.324  0.00  0.00    -0.278 OA
ATOM      9  N   UNL     1       1.183  -9.182  -3.774  0.00  0.00    -0.314 N 
ATOM     10  H   UNL     1       0.576  -9.673  -3.199  0.00  0.00    +0.149 HD
BRANCH   9  11
ATOM     11  C   UNL     1       1.923  -9.883  -4.827  0.00  0.00    +0.067 C 
ATOM     12  C   UNL     1       2.072 -11.358  -4.450  0.00  0.00    +0.027 C 
ATOM     13  C   UNL     1       1.159  -9.768  -6.149  0.00  0.00    +0.027 C 
ENDBRANCH   9  11
ENDBRANCH   3   7
BRANCH   1  14
ATOM     14  S   UNL     1      -0.400  -3.254  -2.889  0.00  0.00    -0.085 S 
BRANCH  14  20
ATOM     15  C   UNL     1      -0.649   1.392  -0.756  0.00  0.00    +0.066 C 
ATOM     16  C   UNL     1      -0.479  -0.095  -0.575  0.00  0.00    +0.043 A 
ATOM     17  C   UNL     1      -0.293  -0.630   0.691  0.00  0.00    +0.043 A 
ATOM     18  C   UNL     1      -0.141  -2.002   0.814  0.00  0.00    +0.115 A 
ATOM     19  N   UNL     1      -0.178  -2.756  -0.273  0.00  0.00    -0.230 NA
ATOM     20  C   UNL     1      -0.357  -2.213  -1.468  0.00  0.00    +0.189 A 
ATOM     21  N   UNL     1      -0.511  -0.905  -1.620  0.00  0.00    -0.227 NA
ENDBRANCH  14  20
ENDBRANCH   1  14
BRANCH   5  22
ATOM     22  C   UNL     1       2.920  -6.822  -1.935  0.00  0.00    -0.047 C 
BRANCH  22  23
ATOM     23  C   UNL     1       3.855  -6.107  -0.995  0.00  0.00    -0.089 C 
ATOM     24  C   UNL     1       4.312  -6.726   0.085  0.00  0.00    +0.005 C 
ATOM     25  C   UNL     1       4.272  -4.687  -1.282  0.00  0.00    +0.037 C 
BRANCH  24  26
ATOM     26  C   UNL     1       5.086  -5.976   1.096  0.00  0.00    -0.025 A 
ATOM     27  C   UNL     1       6.105  -6.607   1.809  0.00  0.00    +0.008 A 
ATOM     28  C   UNL     1       6.827  -5.899   2.748  0.00  0.00    +0.001 A 
ATOM     29  C   UNL     1       6.535  -4.569   2.990  0.00  0.00    +0.000 A 
ATOM     30  C   UNL     1       5.522  -3.938   2.290  0.00  0.00    +0.001 A 
ATOM     31  C   UNL     1       4.796  -4.633   1.345  0.00  0.00    +0.008 A 
ENDBRANCH  24  26
ENDBRANCH  22  23
ENDBRANCH   5  22
TORSDOF 7
