REMARK  Name = ZINC36825399
REMARK  5 active torsions:
REMARK  status: ('A' for Active; 'I' for Inactive)
REMARK    1  A    between atoms: C_1  and  C_2
REMARK    2  A    between atoms: C_2  and  C_3
REMARK    3  A    between atoms: C_6  and  C_9
REMARK    4  A    between atoms: C_11  and  C_14
REMARK    5  A    between atoms: C_19  and  N_20
REMARK                            x       y       z     vdW  Elec       q    Type
REMARK                         _______ _______ _______ _____ _____    ______ ____
ROOT
ATOM      1  C   UNL     1       2.521  -1.413  -5.521  0.00  0.00    +0.202 A 
ATOM      2  N   UNL     1       3.832  -1.686  -5.430  0.00  0.00    -0.187 NA
ATOM      3  C   UNL     1       4.229  -2.333  -6.503  0.00  0.00    +0.261 A 
ATOM      4  O   UNL     1       3.169  -2.491  -7.315  0.00  0.00    -0.332 OA
ATOM      5  N   UNL     1       2.066  -1.890  -6.654  0.00  0.00    -0.056 NA
ENDROOT
BRANCH   3   6
ATOM      6  C   UNL     1       5.601  -2.804  -6.770  0.00  0.00    +0.060 A 
ATOM      7  C   UNL     1       6.689  -1.953  -6.561  0.00  0.00    +0.018 A 
ATOM      8  C   UNL     1       7.968  -2.397  -6.811  0.00  0.00    +0.039 A 
ATOM      9  C   UNL     1       8.183  -3.690  -7.271  0.00  0.00    +0.125 A 
ATOM     10  C   UNL     1       7.115  -4.543  -7.482  0.00  0.00    +0.061 A 
ATOM     11  C   UNL     1       5.821  -4.112  -7.229  0.00  0.00    +0.040 A 
ATOM     12  F   UNL     1       9.442  -4.116  -7.513  0.00  0.00    -0.205 F 
BRANCH  11  13
ATOM     13  N   UNL     1       4.746  -4.970  -7.435  0.00  0.00    -0.357 N 
ATOM     14  H   UNL     1       3.851  -4.698  -7.176  0.00  0.00    +0.142 HD
ATOM     15  H   UNL     1       4.890  -5.840  -7.839  0.00  0.00    +0.142 HD
ENDBRANCH  11  13
ENDBRANCH   3   6
BRANCH   1  19
ATOM     16  C   UNL     1       0.215   0.646  -2.600  0.00  0.00    -0.048 A 
ATOM     17  C   UNL     1      -0.388   0.192  -3.759  0.00  0.00    +0.004 A 
ATOM     18  C   UNL     1       0.356  -0.476  -4.710  0.00  0.00    +0.012 A 
ATOM     19  C   UNL     1       1.716  -0.694  -4.501  0.00  0.00    +0.022 A 
ATOM     20  C   UNL     1       2.318  -0.234  -3.332  0.00  0.00    +0.012 A 
ATOM     21  C   UNL     1       1.567   0.438  -2.390  0.00  0.00    +0.004 A 
BRANCH  16  23
ATOM     22  C   UNL     1      -0.584   2.875  -1.865  0.00  0.00    +0.009 C 
ATOM     23  C   UNL     1      -0.602   1.375  -1.564  0.00  0.00    +0.032 C 
ENDBRANCH  16  23
ENDBRANCH   1  19
TORSDOF 4
