REMARK  Name = ZINC08920618
REMARK  10 active torsions:
REMARK  status: ('A' for Active; 'I' for Inactive)
REMARK    1  A    between atoms: C_1  and  C_2
REMARK    2  A    between atoms: C_2  and  O_3
REMARK    3  A    between atoms: O_3  and  C_4
REMARK    4  A    between atoms: C_8  and  C_11
REMARK    5  A    between atoms: C_9  and  O_10
REMARK    6  A    between atoms: N_12  and  C_13
REMARK    7  A    between atoms: C_14  and  C_22
REMARK    8  A    between atoms: C_21  and  N_48
REMARK    9  A    between atoms: C_22  and  O_24
REMARK   10  A    between atoms: O_24  and  C_25
REMARK                            x       y       z     vdW  Elec       q    Type
REMARK                         _______ _______ _______ _____ _____    ______ ____
ROOT
ATOM      1  C   UNL     1       2.287   5.573   0.009  0.00  0.00    +0.115 A 
ATOM      2  C   UNL     1       3.366   6.467   0.004  0.00  0.00    +0.095 A 
ATOM      3  C   UNL     1       3.092   7.845   0.013  0.00  0.00    -0.025 A 
ATOM      4  C   UNL     1       1.786   8.214   0.028  0.00  0.00    -0.021 A 
ATOM      5  S   UNL     1       0.890   6.686   0.020  0.00  0.00    -0.075 S 
ATOM      6  C   UNL     1       1.251   9.611   0.043  0.00  0.00    -0.036 C 
ATOM      7  C   UNL     1       3.540  10.241  -0.430  0.00  0.00    -0.074 C 
ATOM      8  C   UNL     1       4.178   8.919   0.004  0.00  0.00    +0.018 C 
ATOM      9  C   UNL     1       1.941  11.927   0.252  0.00  0.00    -0.096 C 
ATOM     10  N   UNL     1       2.362  10.519   0.416  0.00  0.00    +0.381 N 
ATOM     11  H   UNL     1       2.610  10.357   1.399  0.00  0.00    -0.082 HD
ENDROOT
BRANCH   1  13
ATOM     12  C   UNL     1       1.173   3.558   0.009  0.00  0.00    +0.123 C 
ATOM     13  N   UNL     1       2.300   4.223   0.002  0.00  0.00    -0.247 NA
BRANCH  12  18
ATOM     14  C   UNL     1       2.407   0.006  -0.021  0.00  0.00    +0.163 A 
ATOM     15  C   UNL     1       1.208  -0.688  -0.013  0.00  0.00    +0.064 A 
ATOM     16  C   UNL     1       0.002  -0.004   0.002  0.00  0.00    +0.022 A 
ATOM     17  C   UNL     1      -0.017   1.374   0.010  0.00  0.00    +0.028 A 
ATOM     18  C   UNL     1       1.187   2.090   0.002  0.00  0.00    +0.039 A 
ATOM     19  C   UNL     1       2.406   1.396  -0.014  0.00  0.00    +0.167 A 
ATOM     20 BR   UNL     1      -1.625  -0.967   0.013  0.00  0.00    -0.050 Br
BRANCH  19  21
ATOM     21  O   UNL     1       3.580   2.079  -0.022  0.00  0.00    -0.503 OA
ATOM     22  H   UNL     1       3.912   2.281  -0.907  0.00  0.00    +0.292 HD
ENDBRANCH  19  21
BRANCH  14  23
ATOM     23  O   UNL     1       3.585  -0.673  -0.036  0.00  0.00    -0.489 OA
BRANCH  23  25
ATOM     24  C   UNL     1       4.925  -2.685  -0.059  0.00  0.00    +0.048 C 
ATOM     25  C   UNL     1       3.511  -2.101  -0.043  0.00  0.00    +0.226 C 
ENDBRANCH  23  25
ENDBRANCH  14  23
ENDBRANCH  12  18
ENDBRANCH   1  13
BRANCH   2  26
ATOM     26  C   UNL     1       4.746   5.977  -0.012  0.00  0.00    +0.342 C 
ATOM     27  O   UNL     1       5.309   5.778  -1.071  0.00  0.00    -0.245 OA
BRANCH  26  28
ATOM     28  O   UNL     1       5.393   5.746   1.149  0.00  0.00    -0.464 OA
ATOM     29  C   UNL     1       6.758   5.261   1.058  0.00  0.00    +0.280 C 
ENDBRANCH  26  28
ENDBRANCH   2  26
TORSDOF 7
