REMARK  Name = ZINC02731725
REMARK  13 active torsions:
REMARK  status: ('A' for Active; 'I' for Inactive)
REMARK    1  A    between atoms: C_1  and  C_2
REMARK    2  A    between atoms: C_2  and  C_3
REMARK    3  A    between atoms: C_3  and  O_4
REMARK    4  A    between atoms: O_4  and  C_5
REMARK    5  A    between atoms: C_7  and  C_28
REMARK    6  A    between atoms: C_12  and  C_17
REMARK    7  A    between atoms: C_22  and  O_23
REMARK    8  A    between atoms: O_23  and  C_24
REMARK    9  A    between atoms: C_26  and  C_27
REMARK   10  A    between atoms: C_31  and  O_36
REMARK   11  A    between atoms: C_32  and  O_34
REMARK   12  A    between atoms: O_34  and  C_35
REMARK   13  A    between atoms: O_36  and  C_37
REMARK                            x       y       z     vdW  Elec       q    Type
REMARK                         _______ _______ _______ _____ _____    ______ ____
ROOT
ATOM      1  C   UNL     1      -2.603  -2.591   0.045  0.00  0.00    +0.338 C 
ATOM      2  C   UNL     1      -2.658  -3.969   0.022  0.00  0.00    +0.069 C 
ATOM      3  C   UNL     1      -3.987  -4.653   0.140  0.00  0.00    +0.093 C 
ATOM      4  C   UNL     1      -3.831  -6.152   0.097  0.00  0.00    +0.028 C 
ATOM      5  C   UNL     1      -2.595  -6.736  -0.042  0.00  0.00    +0.050 C 
ATOM      6  C   UNL     1      -2.458  -8.241  -0.091  0.00  0.00    +0.064 C 
ATOM      7  C   UNL     1      -3.568  -8.884   0.742  0.00  0.00    +0.036 C 
ATOM      8  C   UNL     1      -4.920  -8.434   0.181  0.00  0.00    +0.088 C 
ATOM      9  C   UNL     1      -4.986  -6.932   0.206  0.00  0.00    +0.162 C 
ATOM     10  O   UNL     1      -6.066  -6.385   0.322  0.00  0.00    -0.292 OA
ATOM     11  N   UNL     1      -1.485  -6.007  -0.136  0.00  0.00    -0.256 NA
ATOM     12  C   UNL     1      -1.485  -4.693  -0.114  0.00  0.00    +0.049 C 
ATOM     13  C   UNL     1      -0.176  -3.956  -0.233  0.00  0.00    +0.066 C 
ATOM     14  O   UNL     1      -3.742  -1.871   0.053  0.00  0.00    -0.245 OA
ENDROOT
BRANCH   7  15
ATOM     15  C   UNL     1      -3.456 -10.385   0.661  0.00  0.00    -0.002 A 
ATOM     16  C   UNL     1      -3.544 -11.020  -0.563  0.00  0.00    +0.007 A 
ATOM     17  C   UNL     1      -3.442 -12.397  -0.638  0.00  0.00    +0.001 A 
ATOM     18  C   UNL     1      -3.251 -13.142   0.512  0.00  0.00    +0.004 A 
ATOM     19  C   UNL     1      -3.162 -12.512   1.738  0.00  0.00    +0.046 A 
ATOM     20  C   UNL     1      -3.259 -11.130   1.815  0.00  0.00    +0.124 A 
BRANCH  20  21
ATOM     21  O   UNL     1      -3.166 -10.507   3.019  0.00  0.00    -0.495 OA
ATOM     22  C   UNL     1      -2.964 -11.337   4.165  0.00  0.00    +0.277 C 
ENDBRANCH  20  21
ENDBRANCH   7  15
BRANCH   3  23
ATOM     23  C   UNL     1      -4.870  -4.217  -1.000  0.00  0.00    -0.031 A 
ATOM     24  C   UNL     1      -4.483  -4.460  -2.305  0.00  0.00    +0.008 A 
ATOM     25  C   UNL     1      -5.290  -4.061  -3.355  0.00  0.00    +0.050 A 
ATOM     26  C   UNL     1      -6.490  -3.417  -3.100  0.00  0.00    +0.162 A 
ATOM     27  C   UNL     1      -6.880  -3.174  -1.787  0.00  0.00    +0.162 A 
ATOM     28  C   UNL     1      -6.069  -3.580  -0.739  0.00  0.00    +0.054 A 
BRANCH  27  29
ATOM     29  O   UNL     1      -8.057  -2.542  -1.532  0.00  0.00    -0.491 OA
ATOM     30  C   UNL     1      -8.393  -2.326  -0.160  0.00  0.00    +0.277 C 
ENDBRANCH  27  29
BRANCH  26  31
ATOM     31  O   UNL     1      -7.285  -3.025  -4.131  0.00  0.00    -0.491 OA
ATOM     32  C   UNL     1      -6.820  -3.307  -5.453  0.00  0.00    +0.277 C 
ENDBRANCH  26  31
ENDBRANCH   3  23
BRANCH   1  33
ATOM     33  O   UNL     1      -1.410  -1.964   0.058  0.00  0.00    -0.461 OA
BRANCH  33  34
ATOM     34  C   UNL     1      -1.428  -0.536   0.082  0.00  0.00    +0.232 C 
BRANCH  34  36
ATOM     35  C   UNL     1      -0.011   1.522   0.119  0.00  0.00    +0.007 C 
ATOM     36  C   UNL     1       0.008  -0.008   0.094  0.00  0.00    +0.038 C 
ENDBRANCH  34  36
ENDBRANCH  33  34
ENDBRANCH   1  33
TORSDOF 8
