REMARK  Name = ZINC63506740
REMARK  10 active torsions:
REMARK  status: ('A' for Active; 'I' for Inactive)
REMARK    1  A    between atoms: C_1  and  C_2
REMARK    2  A    between atoms: C_4  and  C_12
REMARK    3  A    between atoms: C_12  and  C_13
REMARK    4  A    between atoms: C_13  and  N_14
REMARK    5  A    between atoms: C_19  and  C_20
REMARK    6  A    between atoms: C_19  and  O_21
REMARK    7  A    between atoms: C_23  and  C_29
REMARK    8  A    between atoms: C_23  and  C_30
REMARK    9  A    between atoms: C_25  and  C_27
REMARK   10  A    between atoms: C_25  and  C_28
REMARK                            x       y       z     vdW  Elec       q    Type
REMARK                         _______ _______ _______ _____ _____    ______ ____
ROOT
ATOM      1  N   UNL     1       0.999  -0.729  -4.975  0.00  0.00    -0.235 N 
ATOM      2  C   UNL     1       0.193  -1.498  -5.734  0.00  0.00    +0.406 C 
ATOM      3  O   UNL     1      -0.330  -2.521  -5.345  0.00  0.00    -0.226 OA
ATOM      4  O   UNL     1       0.033  -1.000  -6.976  0.00  0.00    -0.439 OA
ATOM      5  C   UNL     1       0.371   0.398  -6.926  0.00  0.00    +0.158 C 
ATOM      6  C   UNL     1       1.449   0.399  -5.823  0.00  0.00    +0.175 C 
ATOM      7  C   UNL     1       1.484   1.699  -5.027  0.00  0.00    +0.068 C 
ATOM      8  C   UNL     1       0.960   0.868  -8.245  0.00  0.00    +0.040 C 
ATOM      9  C   UNL     1      -0.087   0.881  -9.353  0.00  0.00    -0.070 C 
ATOM     10  N   UNL     1      -1.343   1.498  -8.970  0.00  0.00    +0.386 N 
ATOM     11  C   UNL     1      -1.887   1.220  -7.654  0.00  0.00    -0.070 C 
ATOM     12  C   UNL     1      -0.829   1.243  -6.550  0.00  0.00    +0.040 C 
ATOM     13  C   UNL     1      -2.656  -0.103  -7.630  0.00  0.00    -0.010 C 
ATOM     14  C   UNL     1      -2.907   2.338  -7.326  0.00  0.00    -0.010 C 
ATOM     15  C   UNL     1      -0.308  -0.539  -9.885  0.00  0.00    -0.010 C 
ATOM     16  C   UNL     1       0.498   1.709 -10.524  0.00  0.00    -0.010 C 
ATOM     17  H   UNL     1      -1.246   2.514  -9.069  0.00  0.00    -0.084 HD
ATOM     18  H   UNL     1      -2.051   1.240  -9.667  0.00  0.00    -0.084 HD
ENDROOT
BRANCH   6  19
ATOM     19  O   UNL     1       2.738   0.114  -6.378  0.00  0.00    -0.368 OA
ATOM     20  H   UNL     1       3.433  -0.008  -5.716  0.00  0.00    +0.212 HD
ENDBRANCH   6  19
BRANCH   1  21
ATOM     21  C   UNL     1       1.364  -0.963  -3.578  0.00  0.00    +0.118 C 
BRANCH  21  22
ATOM     22  C   UNL     1       0.353  -0.268  -2.664  0.00  0.00    +0.052 C 
BRANCH  22  25
ATOM     23  C   UNL     1      -0.019   1.526   0.010  0.00  0.00    +0.035 C 
ATOM     24  C   UNL     1       0.002  -0.004   0.002  0.00  0.00    +0.103 C 
ATOM     25  C   UNL     1       0.729  -0.509  -1.224  0.00  0.00    -0.037 C 
ATOM     26  C   UNL     1       1.785  -1.220  -0.768  0.00  0.00    -0.001 A 
ATOM     27  C   UNL     1       2.858  -1.954  -1.449  0.00  0.00    +0.010 A 
ATOM     28  C   UNL     1       3.797  -2.583  -0.705  0.00  0.00    +0.001 A 
ATOM     29  C   UNL     1       3.770  -2.551   0.696  0.00  0.00    +0.002 A 
ATOM     30  C   UNL     1       2.817  -1.897   1.393  0.00  0.00    +0.026 A 
ATOM     31  C   UNL     1       1.780  -1.201   0.712  0.00  0.00    +0.043 A 
ATOM     32  N   UNL     1       0.758  -0.506   1.155  0.00  0.00    -0.378 N 
ATOM     33  H   UNL     1       0.540  -0.349   2.087  0.00  0.00    +0.160 HD
ENDBRANCH  22  25
ENDBRANCH  21  22
ENDBRANCH   1  21
TORSDOF 4
