REMARK  Name = ZINC50308857
REMARK  5 active torsions:
REMARK  status: ('A' for Active; 'I' for Inactive)
REMARK    1  A    between atoms: C_1  and  C_2
REMARK    2  A    between atoms: C_2  and  C_3
REMARK    3  A    between atoms: C_2  and  C_4
REMARK    4  A    between atoms: C_7  and  C_9
REMARK    5  A    between atoms: C_14  and  N_15
REMARK                            x       y       z     vdW  Elec       q    Type
REMARK                         _______ _______ _______ _____ _____    ______ ____
ROOT
ATOM      1  C   UNL     1      -4.252  -2.330  -1.244  0.00  0.00    +0.062 A 
ATOM      2  C   UNL     1      -5.578  -1.900  -1.298  0.00  0.00    +0.053 A 
ATOM      3  C   UNL     1      -6.528  -2.675  -1.935  0.00  0.00    +0.124 A 
ATOM      4  C   UNL     1      -6.169  -3.880  -2.520  0.00  0.00    +0.040 A 
ATOM      5  C   UNL     1      -4.859  -4.316  -2.472  0.00  0.00    +0.026 A 
ATOM      6  C   UNL     1      -3.892  -3.546  -1.842  0.00  0.00    +0.037 A 
ATOM      7  F   UNL     1      -7.812  -2.257  -1.987  0.00  0.00    -0.205 F 
ENDROOT
BRANCH   1  11
ATOM      8  C   UNL     1      -1.423  -0.429  -0.104  0.00  0.00    +0.220 A 
ATOM      9  N   UNL     1      -2.259  -0.307   0.888  0.00  0.00    -0.112 NA
ATOM     10  N   UNL     1      -3.342  -0.949   0.619  0.00  0.00    -0.107 NA
ATOM     11  C   UNL     1      -3.231  -1.507  -0.565  0.00  0.00    +0.250 A 
ATOM     12  O   UNL     1      -2.015  -1.182  -1.047  0.00  0.00    -0.420 OA
BRANCH   8  14
ATOM     13  C   UNL     1      -0.143   1.696  -0.076  0.00  0.00    +0.017 C 
ATOM     14  C   UNL     1      -0.043   0.173  -0.182  0.00  0.00    +0.071 C 
ATOM     15  C   UNL     1       0.813  -0.363   0.968  0.00  0.00    +0.017 C 
ENDBRANCH   8  14
ENDBRANCH   1  11
BRANCH   6  16
ATOM     16  N   UNL     1      -2.568  -3.983  -1.799  0.00  0.00    -0.357 N 
ATOM     17  H   UNL     1      -1.913  -3.493  -1.278  0.00  0.00    +0.142 HD
ATOM     18  H   UNL     1      -2.303  -4.777  -2.290  0.00  0.00    +0.142 HD
ENDBRANCH   6  16
TORSDOF 3
