REMARK  Name = ZINC63514792
REMARK  9 active torsions:
REMARK  status: ('A' for Active; 'I' for Inactive)
REMARK    1  A    between atoms: C_1  and  C_2
REMARK    2  A    between atoms: C_4  and  C_17
REMARK    3  A    between atoms: C_7  and  O_12
REMARK    4  A    between atoms: O_12  and  C_13
REMARK    5  A    between atoms: C_17  and  C_18
REMARK    6  A    between atoms: C_18  and  N_19
REMARK    7  A    between atoms: N_19  and  C_20
REMARK    8  A    between atoms: C_23  and  C_29
REMARK    9  A    between atoms: C_25  and  N_26
REMARK                            x       y       z     vdW  Elec       q    Type
REMARK                         _______ _______ _______ _____ _____    ______ ____
ROOT
ATOM      1  C   UNL     1      -2.304  -1.117  -1.597  0.00  0.00    +0.052 C 
ENDROOT
BRANCH   1   4
ATOM      2  C   UNL     1       0.543   0.277  -0.919  0.00  0.00    +0.035 C 
ATOM      3  C   UNL     1       0.314  -1.236  -0.938  0.00  0.00    +0.103 C 
ATOM      4  C   UNL     1      -1.151  -1.544  -0.725  0.00  0.00    -0.037 C 
ATOM      5  C   UNL     1      -1.218  -2.279   0.408  0.00  0.00    +0.003 A 
ATOM      6  C   UNL     1      -2.339  -2.880   1.140  0.00  0.00    +0.056 A 
ATOM      7  C   UNL     1      -2.096  -3.580   2.274  0.00  0.00    +0.131 A 
ATOM      8  C   UNL     1      -0.798  -3.757   2.784  0.00  0.00    +0.048 A 
ATOM      9  C   UNL     1       0.296  -3.242   2.182  0.00  0.00    +0.029 A 
ATOM     10  C   UNL     1       0.149  -2.466   0.947  0.00  0.00    +0.043 A 
ATOM     11  N   UNL     1       1.027  -1.869   0.177  0.00  0.00    -0.378 N 
ATOM     12  H   UNL     1       1.986  -1.850   0.320  0.00  0.00    +0.160 HD
BRANCH   7  13
ATOM     13  O   UNL     1      -3.144  -4.132   2.942  0.00  0.00    -0.406 OA
BRANCH  13  14
ATOM     14  C   UNL     1      -2.842  -4.861   4.133  0.00  0.00    +0.575 C 
ATOM     15  F   UNL     1      -2.214  -4.014   5.052  0.00  0.00    -0.133 F 
ATOM     16  F   UNL     1      -4.027  -5.357   4.689  0.00  0.00    -0.133 F 
ATOM     17  F   UNL     1      -1.991  -5.927   3.824  0.00  0.00    -0.133 F 
ENDBRANCH  13  14
ENDBRANCH   7  13
ENDBRANCH   1   4
BRANCH   1  18
ATOM     18  C   UNL     1      -3.612  -1.648  -1.009  0.00  0.00    +0.106 C 
BRANCH  18  19
ATOM     19  N   UNL     1      -4.732  -1.233  -1.857  0.00  0.00    -0.342 N 
ATOM     20  H   UNL     1      -4.568  -0.703  -2.653  0.00  0.00    +0.146 HD
BRANCH  19  21
ATOM     21  C   UNL     1      -6.037  -1.602  -1.521  0.00  0.00    +0.058 A 
ATOM     22  C   UNL     1      -6.264  -2.462  -0.454  0.00  0.00    +0.026 A 
ATOM     23  C   UNL     1      -7.556  -2.824  -0.124  0.00  0.00    +0.014 A 
ATOM     24  C   UNL     1      -8.622  -2.331  -0.855  0.00  0.00    +0.057 A 
ATOM     25  C   UNL     1      -8.399  -1.476  -1.917  0.00  0.00    +0.047 A 
ATOM     26  C   UNL     1      -7.110  -1.105  -2.249  0.00  0.00    +0.147 A 
BRANCH  24  27
ATOM     27  C   UNL     1     -10.029  -2.728  -0.491  0.00  0.00    +0.417 C 
ATOM     28  F   UNL     1     -10.001  -3.593   0.608  0.00  0.00    -0.166 F 
ATOM     29  F   UNL     1     -10.767  -1.585  -0.166  0.00  0.00    -0.166 F 
ATOM     30  F   UNL     1     -10.626  -3.375  -1.579  0.00  0.00    -0.166 F 
ENDBRANCH  24  27
BRANCH  26  31
ATOM     31  N   UNL     1      -6.873  -0.184  -3.384  0.00  0.00    +0.058 N 
ATOM     32  O   UNL     1      -5.998   0.648  -3.314  0.00  0.00    -0.126 OA
ATOM     33  O   UNL     1      -7.554  -0.263  -4.379  0.00  0.00    -0.126 OA
ENDBRANCH  26  31
ENDBRANCH  19  21
ENDBRANCH  18  19
ENDBRANCH   1  18
TORSDOF 8
