REMARK  Name = ZINC61972156
REMARK  4 active torsions:
REMARK  status: ('A' for Active; 'I' for Inactive)
REMARK    1  A    between atoms: C_7  and  C_8
REMARK    2  A    between atoms: C_8  and  C_9
REMARK    3  A    between atoms: C_14  and  C_17
REMARK    4  A    between atoms: C_22  and  C_25
REMARK                            x       y       z     vdW  Elec       q    Type
REMARK                         _______ _______ _______ _____ _____    ______ ____
ROOT
ATOM      1  C   UNL     1       2.702  -1.678  -3.092  0.00  0.00    +0.216 C 
ATOM      2  O   UNL     1       1.932  -1.105  -3.835  0.00  0.00    -0.276 OA
ATOM      3  N   UNL     1       3.394  -2.747  -3.533  0.00  0.00    -0.301 N 
ATOM      4  C   UNL     1       4.325  -3.454  -2.644  0.00  0.00    +0.108 C 
ATOM      5  C   UNL     1       5.694  -3.536  -3.327  0.00  0.00    +0.032 C 
ATOM      6  C   UNL     1       5.532  -4.178  -4.707  0.00  0.00    +0.078 C 
ATOM      7  C   UNL     1       4.613  -3.312  -5.570  0.00  0.00    +0.032 C 
ATOM      8  C   UNL     1       3.228  -3.230  -4.910  0.00  0.00    +0.108 C 
ENDROOT
BRANCH   6   9
ATOM      9  C   UNL     1       6.882  -4.292  -5.369  0.00  0.00    +0.219 C 
ATOM     10  O   UNL     1       7.721  -3.435  -5.187  0.00  0.00    -0.275 OA
ATOM     11  N   UNL     1       7.156  -5.346  -6.163  0.00  0.00    -0.301 N 
ATOM     12  C   UNL     1       6.112  -6.326  -6.494  0.00  0.00    +0.108 C 
ATOM     13  C   UNL     1       6.033  -6.467  -8.017  0.00  0.00    +0.032 C 
ATOM     14  C   UNL     1       7.418  -6.814  -8.566  0.00  0.00    +0.078 C 
ATOM     15  C   UNL     1       8.398  -5.686  -8.236  0.00  0.00    +0.032 C 
ATOM     16  C   UNL     1       8.503  -5.533  -6.720  0.00  0.00    +0.108 C 
BRANCH  14  17
ATOM     17  C   UNL     1       7.337  -6.987 -10.061  0.00  0.00    +0.214 C 
ATOM     18  O   UNL     1       6.275  -6.846 -10.631  0.00  0.00    -0.276 OA
ATOM     19  N   UNL     1       8.443  -7.298 -10.765  0.00  0.00    -0.329 N 
ATOM     20  H   UNL     1       9.292  -7.411 -10.309  0.00  0.00    +0.145 HD
ATOM     21  H   UNL     1       8.391  -7.410 -11.727  0.00  0.00    +0.145 HD
ENDBRANCH  14  17
ENDBRANCH   6   9
BRANCH   1  22
ATOM     22  C   UNL     1       2.884  -1.194  -1.677  0.00  0.00    +0.099 C 
BRANCH  22  29
ATOM     23  C   UNL     1      -0.025   1.543   0.016  0.00  0.00    +0.004 C 
ATOM     24  C   UNL     1       1.463   1.964  -0.007  0.00  0.00    +0.004 C 
ATOM     25  C   UNL     1       2.252   0.620  -0.018  0.00  0.00    -0.007 C 
ATOM     26  C   UNL     1       1.307  -0.279   0.855  0.00  0.00    +0.007 C 
ATOM     27  C   UNL     1       0.006  -0.016   0.017  0.00  0.00    -0.010 C 
ATOM     28  C   UNL     1       0.501  -0.397  -1.412  0.00  0.00    +0.007 C 
ATOM     29  C   UNL     1       1.989   0.024  -1.435  0.00  0.00    +0.001 C 
ENDBRANCH  22  29
ENDBRANCH   1  22
TORSDOF 4
