REMARK  Name = ZINC08896694
REMARK  9 active torsions:
REMARK  status: ('A' for Active; 'I' for Inactive)
REMARK    1  A    between atoms: C_1  and  C_2
REMARK    2  A    between atoms: C_6  and  C_10
REMARK    3  A    between atoms: C_7  and  O_8
REMARK    4  A    between atoms: O_8  and  C_9
REMARK    5  A    between atoms: N_12  and  C_13
REMARK    6  A    between atoms: C_13  and  N_15
REMARK    7  A    between atoms: N_15  and  C_16
REMARK    8  A    between atoms: C_17  and  C_27
REMARK    9  A    between atoms: C_22  and  C_26
REMARK                            x       y       z     vdW  Elec       q    Type
REMARK                         _______ _______ _______ _____ _____    ______ ____
ROOT
ATOM      1  N   UNL     1      -1.119   2.575   0.022  0.00  0.00    -0.291 N 
ATOM      2  H   UNL     1      -0.990   3.536   0.026  0.00  0.00    +0.154 HD
ENDROOT
BRANCH   1   3
ATOM      3  C   UNL     1      -0.021   1.728   0.011  0.00  0.00    +0.084 A 
ATOM      4  C   UNL     1       1.326   2.063   0.001  0.00  0.00    +0.068 A 
ATOM      5  C   UNL     1       2.288   0.974  -0.015  0.00  0.00    -0.023 A 
ATOM      6  C   UNL     1       1.753  -0.266  -0.017  0.00  0.00    -0.004 A 
ATOM      7  S   UNL     1       0.002  -0.004   0.002  0.00  0.00    -0.077 S 
ATOM      8  C   UNL     1       2.492  -1.569  -0.032  0.00  0.00    +0.046 C 
ATOM      9  C   UNL     1       3.951  -1.292  -0.423  0.00  0.00    -0.009 C 
ATOM     10  C   UNL     1       4.473  -0.122   0.416  0.00  0.00    +0.008 C 
ATOM     11  C   UNL     1       3.798   1.177  -0.027  0.00  0.00    +0.037 C 
ATOM     12  C   UNL     1       4.799  -2.537  -0.152  0.00  0.00    +0.008 C 
BRANCH   4  13
ATOM     13  C   UNL     1       1.762   3.462   0.003  0.00  0.00    +0.244 C 
ATOM     14  O   UNL     1       1.953   4.038   1.059  0.00  0.00    -0.270 OA
ATOM     15  N   UNL     1       1.950   4.112  -1.162  0.00  0.00    -0.325 N 
ATOM     16  H   UNL     1       1.798   3.653  -2.003  0.00  0.00    +0.145 HD
ATOM     17  H   UNL     1       2.239   5.038  -1.161  0.00  0.00    +0.145 HD
ENDBRANCH   4  13
ENDBRANCH   1   3
BRANCH   1  18
ATOM     18  C   UNL     1      -2.365   2.062   0.026  0.00  0.00    +0.141 C 
ATOM     19  S   UNL     1      -2.593   0.365   0.018  0.00  0.00    -0.018 S 
BRANCH  18  22
ATOM     20  C   UNL     1      -4.679   2.372   0.039  0.00  0.00    +0.253 C 
ATOM     21  O   UNL     1      -4.840   1.167   0.034  0.00  0.00    -0.270 OA
ATOM     22  N   UNL     1      -3.432   2.885   0.035  0.00  0.00    -0.263 N 
ATOM     23  H   UNL     1      -3.303   3.846   0.040  0.00  0.00    +0.157 HD
BRANCH  20  29
ATOM     24  C   UNL     1      -9.633   3.036   0.069  0.00  0.00    +0.047 C 
ATOM     25  C   UNL     1      -8.236   3.599   0.064  0.00  0.00    -0.007 A 
ATOM     26  C   UNL     1      -8.043   4.967   0.070  0.00  0.00    +0.022 A 
ATOM     27  C   UNL     1      -6.761   5.494   0.066  0.00  0.00    +0.019 A 
ATOM     28  C   UNL     1      -5.665   4.658   0.062  0.00  0.00    +0.032 A 
ATOM     29  C   UNL     1      -5.846   3.273   0.050  0.00  0.00    +0.080 A 
ATOM     30  C   UNL     1      -7.145   2.744   0.054  0.00  0.00    +0.135 A 
ATOM     31 BR   UNL     1      -6.515   7.369   0.074  0.00  0.00    -0.050 Br
BRANCH  30  32
ATOM     32  O   UNL     1      -7.333   1.400   0.048  0.00  0.00    -0.494 OA
ATOM     33  C   UNL     1      -7.416   0.751   1.318  0.00  0.00    +0.277 C 
ENDBRANCH  30  32
ENDBRANCH  20  29
ENDBRANCH  18  22
ENDBRANCH   1  18
TORSDOF 6
