REMARK  Name = ZINC19805205
REMARK  10 active torsions:
REMARK  status: ('A' for Active; 'I' for Inactive)
REMARK    1  A    between atoms: C_1  and  C_2
REMARK    2  A    between atoms: C_3  and  C_31
REMARK    3  A    between atoms: C_4  and  C_21
REMARK    4  A    between atoms: C_10  and  C_15
REMARK    5  A    between atoms: C_24  and  O_29
REMARK    6  A    between atoms: C_25  and  O_27
REMARK    7  A    between atoms: O_27  and  C_28
REMARK    8  A    between atoms: O_29  and  C_30
REMARK    9  A    between atoms: C_31  and  O_33
REMARK   10  A    between atoms: O_33  and  C_34
REMARK                            x       y       z     vdW  Elec       q    Type
REMARK                         _______ _______ _______ _____ _____    ______ ____
ROOT
ATOM      1  C   UNL     1       3.755   4.990  -2.464  0.00  0.00    +0.061 C 
ATOM      2  C   UNL     1       3.090   4.546  -1.186  0.00  0.00    +0.016 C 
ATOM      3  C   UNL     1       1.768   4.305  -1.169  0.00  0.00    +0.065 C 
ATOM      4  C   UNL     1       1.074   3.854   0.082  0.00  0.00    +0.092 C 
ATOM      5  C   UNL     1       1.918   4.134   1.300  0.00  0.00    +0.024 C 
ATOM      6  C   UNL     1       3.239   4.386   1.181  0.00  0.00    +0.016 C 
ATOM      7  N   UNL     1       3.836   4.392  -0.051  0.00  0.00    -0.321 N 
ATOM      8  C   UNL     1       4.088   4.672   2.395  0.00  0.00    +0.059 C 
ATOM      9  C   UNL     1       3.523   3.925   3.605  0.00  0.00    +0.032 C 
ATOM     10  C   UNL     1       2.074   4.373   3.820  0.00  0.00    +0.088 C 
ATOM     11  C   UNL     1       1.292   4.122   2.559  0.00  0.00    +0.162 C 
ATOM     12  O   UNL     1       0.099   3.905   2.631  0.00  0.00    -0.292 OA
ATOM     13  H   UNL     1       4.927   4.271  -0.122  0.00  0.00    +0.152 HD
ENDROOT
BRANCH   9  14
ATOM     14  C   UNL     1       4.341   4.252   4.828  0.00  0.00    -0.044 A 
ATOM     15  C   UNL     1       4.463   5.563   5.248  0.00  0.00    +0.004 A 
ATOM     16  C   UNL     1       5.210   5.862   6.372  0.00  0.00    +0.000 A 
ATOM     17  C   UNL     1       5.842   4.851   7.072  0.00  0.00    +0.000 A 
ATOM     18  C   UNL     1       5.724   3.540   6.649  0.00  0.00    +0.000 A 
ATOM     19  C   UNL     1       4.974   3.241   5.527  0.00  0.00    +0.004 A 
ENDBRANCH   9  14
BRANCH   4  20
ATOM     20  C   UNL     1       0.808   2.374  -0.006  0.00  0.00    -0.032 A 
ATOM     21  C   UNL     1       1.862   1.490  -0.147  0.00  0.00    +0.008 A 
ATOM     22  C   UNL     1       1.623   0.131  -0.228  0.00  0.00    +0.050 A 
ATOM     23  C   UNL     1       0.324  -0.348  -0.169  0.00  0.00    +0.162 A 
ATOM     24  C   UNL     1      -0.737   0.541  -0.027  0.00  0.00    +0.162 A 
ATOM     25  C   UNL     1      -0.490   1.902   0.054  0.00  0.00    +0.054 A 
BRANCH  24  26
ATOM     26  O   UNL     1      -2.013   0.075   0.031  0.00  0.00    -0.491 OA
ATOM     27  C   UNL     1      -3.052   1.045   0.177  0.00  0.00    +0.277 C 
ENDBRANCH  24  26
BRANCH  23  28
ATOM     28  O   UNL     1       0.087  -1.685  -0.249  0.00  0.00    -0.491 OA
ATOM     29  C   UNL     1       1.224  -2.538  -0.393  0.00  0.00    +0.277 C 
ENDBRANCH  23  28
ENDBRANCH   4  20
BRANCH   3  30
ATOM     30  C   UNL     1       1.016   4.481  -2.355  0.00  0.00    +0.338 C 
ATOM     31  O   UNL     1       1.540   4.962  -3.342  0.00  0.00    -0.245 OA
BRANCH  30  32
ATOM     32  O   UNL     1      -0.282   4.114  -2.391  0.00  0.00    -0.458 OA
BRANCH  32  33
ATOM     33  C   UNL     1      -0.980   4.320  -3.620  0.00  0.00    +0.177 C 
ATOM     34  C   UNL     1      -1.614   5.713  -3.620  0.00  0.00    +0.044 C 
ATOM     35  C   UNL     1      -2.361   5.933  -4.937  0.00  0.00    +0.004 C 
ATOM     36  C   UNL     1      -3.456   4.874  -5.085  0.00  0.00    +0.000 C 
ATOM     37  C   UNL     1      -2.823   3.482  -5.085  0.00  0.00    +0.004 C 
ATOM     38  C   UNL     1      -2.075   3.262  -3.768  0.00  0.00    +0.044 C 
ENDBRANCH  32  33
ENDBRANCH  30  32
ENDBRANCH   3  30
TORSDOF 7
