REMARK  Name = ZINC06288219
REMARK  7 active torsions:
REMARK  status: ('A' for Active; 'I' for Inactive)
REMARK    1  A    between atoms: C_1  and  O_2
REMARK    2  A    between atoms: O_2  and  C_3
REMARK    3  A    between atoms: C_3  and  C_5
REMARK    4  A    between atoms: C_7  and  N_12
REMARK    5  A    between atoms: C_13  and  C_15
REMARK    6  A    between atoms: C_15  and  N_16
REMARK    7  A    between atoms: C_18  and  C_26
REMARK                            x       y       z     vdW  Elec       q    Type
REMARK                         _______ _______ _______ _____ _____    ______ ____
ROOT
ATOM      1  N   UNL     1      -4.256   0.805  -1.638  0.00  0.00    -0.284 N 
ATOM      2  C   UNL     1      -3.011   1.259  -1.394  0.00  0.00    +0.237 C 
ATOM      3  O   UNL     1      -2.310   1.629  -2.312  0.00  0.00    -0.274 OA
ATOM      4  H   UNL     1      -4.792   0.446  -0.913  0.00  0.00    +0.155 HD
ENDROOT
BRANCH   1   7
ATOM      5  C   UNL     1      -4.466   0.689  -5.317  0.00  0.00    +0.079 A 
ATOM      6  C   UNL     1      -3.943   0.643  -4.024  0.00  0.00    +0.039 A 
ATOM      7  C   UNL     1      -4.777   0.850  -2.937  0.00  0.00    +0.034 A 
ATOM      8  C   UNL     1      -6.130   1.097  -3.135  0.00  0.00    +0.025 A 
ATOM      9  C   UNL     1      -6.649   1.148  -4.415  0.00  0.00    +0.022 A 
ATOM     10  C   UNL     1      -5.827   0.943  -5.507  0.00  0.00    +0.055 A 
ATOM     11 CL   UNL     1      -6.485   1.002  -7.112  0.00  0.00    -0.083 Cl
BRANCH   5  12
ATOM     12  C   UNL     1      -3.584   0.470  -6.482  0.00  0.00    +0.340 C 
ATOM     13  O   UNL     1      -4.042   0.511  -7.606  0.00  0.00    -0.245 OA
BRANCH  12  15
ATOM     14  C   UNL     1      -1.466   0.021  -7.486  0.00  0.00    +0.280 C 
ATOM     15  O   UNL     1      -2.272   0.226  -6.296  0.00  0.00    -0.464 OA
ENDBRANCH  12  15
ENDBRANCH   5  12
ENDBRANCH   1   7
BRANCH   2  16
ATOM     16  C   UNL     1      -2.490   1.307   0.019  0.00  0.00    +0.217 C 
BRANCH  16  17
ATOM     17  N   UNL     1      -1.123   1.834   0.017  0.00  0.00    -0.337 N 
ATOM     18  C   UNL     1      -0.010   1.077   0.000  0.00  0.00    +0.098 A 
ATOM     19  C   UNL     1       1.104   1.890  -0.003  0.00  0.00    +0.039 A 
ATOM     20  C   UNL     1       0.600   3.277   0.020  0.00  0.00    +0.011 A 
ATOM     21  C   UNL     1      -0.800   3.176   0.035  0.00  0.00    +0.050 A 
ATOM     22  C   UNL     1      -1.566   4.337   0.058  0.00  0.00    +0.027 A 
ATOM     23  C   UNL     1      -0.949   5.569   0.065  0.00  0.00    +0.017 A 
ATOM     24  C   UNL     1       0.435   5.667   0.050  0.00  0.00    +0.019 A 
ATOM     25  C   UNL     1       1.212   4.527   0.028  0.00  0.00    +0.026 A 
ATOM     26 BR   UNL     1       1.260   7.369   0.060  0.00  0.00    -0.050 Br
BRANCH  19  27
ATOM     27  C   UNL     1       2.459   1.476  -0.023  0.00  0.00    +0.260 C 
ATOM     28  O   UNL     1       3.346   2.305  -0.023  0.00  0.00    -0.296 OA
ENDBRANCH  19  27
ENDBRANCH  16  17
ENDBRANCH   2  16
TORSDOF 6
