REMARK  Name = ZINC36005242
REMARK  12 active torsions:
REMARK  status: ('A' for Active; 'I' for Inactive)
REMARK    1  A    between atoms: C_1  and  C_2
REMARK    2  A    between atoms: C_2  and  O_3
REMARK    3  A    between atoms: O_3  and  C_4
REMARK    4  A    between atoms: C_4  and  C_6
REMARK    5  A    between atoms: C_7  and  C_24
REMARK    6  A    between atoms: N_8  and  C_23
REMARK    7  A    between atoms: C_12  and  C_14
REMARK    8  A    between atoms: C_17  and  C_20
REMARK    9  A    between atoms: C_20  and  C_21
REMARK   10  A    between atoms: C_20  and  C_22
REMARK   11  A    between atoms: C_24  and  N_25
REMARK   12  A    between atoms: C_31  and  C_33
REMARK                            x       y       z     vdW  Elec       q    Type
REMARK                         _______ _______ _______ _____ _____    ______ ____
ROOT
ATOM      1  C   UNL     1      -2.795  -2.408   0.114  0.00  0.00    +0.080 C 
ATOM      2  C   UNL     1      -2.985  -3.731  -0.085  0.00  0.00    +0.041 C 
ATOM      3  N   UNL     1      -4.241  -4.257  -0.174  0.00  0.00    -0.260 N 
ATOM      4  C   UNL     1      -5.360  -3.528  -0.076  0.00  0.00    +0.307 C 
ATOM      5  O   UNL     1      -6.436  -4.087  -0.169  0.00  0.00    -0.252 OA
ATOM      6  N   UNL     1      -5.333  -2.196   0.123  0.00  0.00    -0.288 N 
ATOM      7  C   UNL     1      -4.024  -1.531   0.240  0.00  0.00    +0.144 C 
ATOM      8  C   UNL     1      -4.373  -5.700  -0.390  0.00  0.00    +0.139 C 
ATOM      9  H   UNL     1      -6.156  -1.687   0.191  0.00  0.00    +0.151 HD
ENDROOT
BRANCH   7  10
ATOM     10  C   UNL     1      -3.967  -0.840   1.577  0.00  0.00    -0.022 A 
ATOM     11  C   UNL     1      -4.345  -1.516   2.722  0.00  0.00    +0.006 A 
ATOM     12  C   UNL     1      -4.292  -0.882   3.949  0.00  0.00    +0.004 A 
ATOM     13  C   UNL     1      -3.861   0.429   4.032  0.00  0.00    -0.045 A 
ATOM     14  C   UNL     1      -3.481   1.105   2.887  0.00  0.00    +0.004 A 
ATOM     15  C   UNL     1      -3.530   0.469   1.661  0.00  0.00    +0.006 A 
BRANCH  13  16
ATOM     16  C   UNL     1      -3.804   1.120   5.369  0.00  0.00    +0.013 C 
ATOM     17  C   UNL     1      -2.366   1.556   5.658  0.00  0.00    +0.012 C 
ATOM     18  C   UNL     1      -4.715   2.349   5.347  0.00  0.00    +0.012 C 
ENDBRANCH  13  16
ENDBRANCH   7  10
BRANCH   1  19
ATOM     19  C   UNL     1      -1.494  -1.862   0.207  0.00  0.00    +0.339 C 
ATOM     20  O   UNL     1      -1.014  -1.615   1.298  0.00  0.00    -0.245 OA
BRANCH  19  21
ATOM     21  O   UNL     1      -0.784  -1.614  -0.913  0.00  0.00    -0.462 OA
BRANCH  21  23
ATOM     22  C   UNL     1       1.169  -0.852  -2.116  0.00  0.00    +0.048 C 
ATOM     23  C   UNL     1       0.523  -1.062  -0.745  0.00  0.00    +0.229 C 
ENDBRANCH  21  23
ENDBRANCH  19  21
ENDBRANCH   1  19
BRANCH   2  24
ATOM     24  C   UNL     1      -1.789  -4.640  -0.210  0.00  0.00    +0.136 C 
BRANCH  24  25
ATOM     25  N   UNL     1      -1.770  -5.582   0.917  0.00  0.00    -0.294 NA
ATOM     26  C   UNL     1      -1.552  -4.878   2.188  0.00  0.00    +0.104 C 
ATOM     27  C   UNL     1      -1.719  -5.864   3.349  0.00  0.00    +0.123 C 
ATOM     28  N   UNL     1      -0.834  -7.016   3.116  0.00  0.00    -0.299 N 
ATOM     29  C   UNL     1      -0.899  -7.689   1.810  0.00  0.00    +0.123 C 
ATOM     30  C   UNL     1      -0.764  -6.632   0.709  0.00  0.00    +0.104 C 
ATOM     31  C   UNL     1       0.013  -7.442   4.073  0.00  0.00    +0.219 C 
ATOM     32  O   UNL     1       0.054  -6.875   5.144  0.00  0.00    -0.275 OA
BRANCH  31  33
ATOM     33  C   UNL     1       0.911  -8.624   3.812  0.00  0.00    +0.075 C 
ATOM     34  C   UNL     1       0.628  -9.912   4.590  0.00  0.00    +0.013 C 
ATOM     35  C   UNL     1       1.850  -9.060   4.938  0.00  0.00    +0.013 C 
ENDBRANCH  31  33
ENDBRANCH  24  25
ENDBRANCH   2  24
TORSDOF 8
