REMARK  Name = ZINC02618592
REMARK  11 active torsions:
REMARK  status: ('A' for Active; 'I' for Inactive)
REMARK    1  A    between atoms: C_1  and  O_2
REMARK    2  A    between atoms: O_2  and  C_3
REMARK    3  A    between atoms: C_6  and  C_11
REMARK    4  A    between atoms: C_8  and  O_9
REMARK    5  A    between atoms: O_9  and  C_10
REMARK    6  A    between atoms: C_14  and  C_31
REMARK    7  A    between atoms: C_17  and  C_19
REMARK    8  A    between atoms: C_19  and  O_20
REMARK    9  A    between atoms: O_20  and  C_21
REMARK   10  A    between atoms: C_21  and  C_23
REMARK   11  A    between atoms: C_27  and  N_29
REMARK                            x       y       z     vdW  Elec       q    Type
REMARK                         _______ _______ _______ _____ _____    ______ ____
ROOT
ATOM      1  C   UNL     1      -3.522   7.882   0.068  0.00  0.00    +0.152 C 
ATOM      2  C   UNL     1      -4.985   8.266   0.070  0.00  0.00    +0.027 C 
ATOM      3  C   UNL     1      -5.693   7.135   0.068  0.00  0.00    +0.057 C 
ATOM      4  N   UNL     1      -4.866   6.019   0.058  0.00  0.00    -0.260 N 
ATOM      5  N   UNL     1      -3.520   6.410   0.054  0.00  0.00    -0.208 N 
ATOM      6  C   UNL     1      -2.442   5.602   0.044  0.00  0.00    +0.270 C 
ATOM      7  O   UNL     1      -1.327   6.079   0.041  0.00  0.00    -0.270 OA
ATOM      8  H   UNL     1      -5.175   5.100   0.055  0.00  0.00    +0.170 HD
ENDROOT
BRANCH   1  12
ATOM      9  C   UNL     1      -1.600   9.403  -3.437  0.00  0.00    +0.162 A 
ATOM     10  C   UNL     1      -2.434   8.300  -3.524  0.00  0.00    +0.050 A 
ATOM     11  C   UNL     1      -3.050   7.807  -2.389  0.00  0.00    +0.009 A 
ATOM     12  C   UNL     1      -2.844   8.420  -1.166  0.00  0.00    -0.018 A 
ATOM     13  C   UNL     1      -2.013   9.520  -1.072  0.00  0.00    +0.055 A 
ATOM     14  C   UNL     1      -1.389  10.016  -2.206  0.00  0.00    +0.162 A 
BRANCH   9  16
ATOM     15  C   UNL     1      -1.253   9.206  -5.782  0.00  0.00    +0.277 C 
ATOM     16  O   UNL     1      -0.989   9.885  -4.552  0.00  0.00    -0.491 OA
ENDBRANCH   9  16
BRANCH  14  17
ATOM     17  O   UNL     1      -0.571  11.099  -2.115  0.00  0.00    -0.491 OA
ATOM     18  C   UNL     1      -0.401  11.677  -0.820  0.00  0.00    +0.277 C 
ENDBRANCH  14  17
ENDBRANCH   1  12
BRANCH   3  19
ATOM     19  C   UNL     1      -7.166   7.077   0.075  0.00  0.00    +0.034 A 
ATOM     20  C   UNL     1      -7.987   5.979   0.068  0.00  0.00    +0.017 A 
ATOM     21  C   UNL     1      -9.351   6.173   0.081  0.00  0.00    +0.008 A 
ATOM     22  C   UNL     1      -9.839   7.441   0.089  0.00  0.00    +0.046 A 
ATOM     23  S   UNL     1      -8.345   8.418   0.086  0.00  0.00    -0.095 S 
ENDBRANCH   3  19
BRANCH   6  24
ATOM     24  C   UNL     1      -2.622   4.106   0.037  0.00  0.00    +0.329 C 
BRANCH  24  25
ATOM     25  O   UNL     1      -1.320   3.462   0.027  0.00  0.00    -0.452 OA
BRANCH  25  26
ATOM     26  C   UNL     1      -1.304   2.115   0.020  0.00  0.00    +0.340 C 
ATOM     27  O   UNL     1      -2.349   1.495   0.021  0.00  0.00    -0.245 OA
BRANCH  26  28
ATOM     28  C   UNL     1      -0.017   1.391   0.010  0.00  0.00    +0.061 A 
ATOM     29  C   UNL     1       1.186   2.102   0.002  0.00  0.00    +0.016 A 
ATOM     30  C   UNL     1       2.387   1.424  -0.013  0.00  0.00    +0.022 A 
ATOM     31  C   UNL     1       2.406   0.041  -0.021  0.00  0.00    +0.062 A 
ATOM     32  C   UNL     1       1.214  -0.676  -0.013  0.00  0.00    +0.044 A 
ATOM     33  C   UNL     1       0.002  -0.004   0.002  0.00  0.00    +0.039 A 
ATOM     34 CL   UNL     1       3.923  -0.803  -0.039  0.00  0.00    -0.082 Cl
BRANCH  32  35
ATOM     35  N   UNL     1       1.238  -2.074  -0.020  0.00  0.00    -0.357 N 
ATOM     36  H   UNL     1       0.407  -2.573  -0.015  0.00  0.00    +0.142 HD
ATOM     37  H   UNL     1       2.087  -2.544  -0.031  0.00  0.00    +0.142 HD
ENDBRANCH  32  35
ENDBRANCH  26  28
ENDBRANCH  25  26
ENDBRANCH  24  25
ENDBRANCH   6  24
TORSDOF 9
