REMARK  Name = ZINC50286096
REMARK  5 active torsions:
REMARK  status: ('A' for Active; 'I' for Inactive)
REMARK    1  A    between atoms: C_1  and  C_2
REMARK    2  A    between atoms: C_2  and  C_3
REMARK    3  A    between atoms: C_3  and  C_4
REMARK    4  A    between atoms: C_10  and  C_12
REMARK    5  A    between atoms: N_21  and  C_22
REMARK                            x       y       z     vdW  Elec       q    Type
REMARK                         _______ _______ _______ _____ _____    ______ ____
ROOT
ATOM      1  C   UNL     1       0.371  -1.794  -0.288  0.00  0.00    +0.049 A 
ATOM      2  C   UNL     1      -0.715  -2.444  -0.796  0.00  0.00    +0.093 A 
ATOM      3  C   UNL     1      -0.722  -3.852  -0.811  0.00  0.00    +0.252 A 
ATOM      4  O   UNL     1      -1.677  -4.465  -1.259  0.00  0.00    -0.268 OA
ATOM      5  N   UNL     1       0.350  -4.511  -0.320  0.00  0.00    -0.307 N 
ATOM      6  H   UNL     1       0.367  -5.480  -0.321  0.00  0.00    +0.170 HD
ATOM      7  C   UNL     1       1.407  -3.807   0.175  0.00  0.00    +0.141 A 
ATOM      8  N   UNL     1       1.406  -2.488   0.180  0.00  0.00    -0.234 NA
ENDROOT
BRANCH   7   9
ATOM      9  C   UNL     1       2.574  -4.532   0.710  0.00  0.00    +0.018 A 
ATOM     10  C   UNL     1       2.594  -5.931   0.702  0.00  0.00    +0.013 A 
ATOM     11  C   UNL     1       3.685  -6.601   1.204  0.00  0.00    +0.024 A 
ATOM     12  C   UNL     1       4.769  -5.891   1.719  0.00  0.00    +0.033 A 
ATOM     13  C   UNL     1       4.756  -4.502   1.727  0.00  0.00    -0.026 A 
ATOM     14  C   UNL     1       3.665  -3.825   1.221  0.00  0.00    +0.017 A 
ATOM     15  C   UNL     1       5.917  -3.708   2.267  0.00  0.00    +0.038 C 
ATOM     16  C   UNL     1       6.765  -4.569   3.202  0.00  0.00    +0.024 C 
ATOM     17  C   UNL     1       7.114  -5.880   2.486  0.00  0.00    +0.105 C 
ATOM     18  N   UNL     1       5.859  -6.598   2.226  0.00  0.00    -0.333 N 
ATOM     19  C   UNL     1       5.754  -8.034   2.495  0.00  0.00    +0.129 C 
ENDBRANCH   7   9
BRANCH   1  20
ATOM     20  C   UNL     1       0.403  -0.288  -0.262  0.00  0.00    +0.055 C 
BRANCH  20  22
ATOM     21  C   UNL     1      -0.038   1.738   1.133  0.00  0.00    +0.004 C 
ATOM     22  C   UNL     1      -0.070   0.208   1.106  0.00  0.00    +0.003 C 
ENDBRANCH  20  22
ENDBRANCH   1  20
TORSDOF 3
