REMARK  Name = ZINC54726725
REMARK  11 active torsions:
REMARK  status: ('A' for Active; 'I' for Inactive)
REMARK    1  A    between atoms: C_1  and  C_2
REMARK    2  A    between atoms: C_5  and  C_27
REMARK    3  A    between atoms: N_8  and  C_10
REMARK    4  A    between atoms: C_10  and  C_11
REMARK    5  A    between atoms: C_10  and  C_12
REMARK    6  A    between atoms: C_10  and  C_13
REMARK    7  A    between atoms: C_13  and  N_14
REMARK    8  A    between atoms: N_17  and  N_18
REMARK    9  A    between atoms: N_18  and  C_19
REMARK   10  A    between atoms: C_19  and  N_21
REMARK   11  A    between atoms: N_21  and  C_22
REMARK                            x       y       z     vdW  Elec       q    Type
REMARK                         _______ _______ _______ _____ _____    ______ ____
ROOT
ATOM      1  N   UNL     1       2.001   1.661   3.436  0.00  0.00    -0.300 N 
ATOM      2  C   UNL     1       1.527   2.460   4.412  0.00  0.00    +0.316 C 
ATOM      3  O   UNL     1       1.211   1.985   5.486  0.00  0.00    -0.251 OA
ATOM      4  N   UNL     1       1.403   3.785   4.198  0.00  0.00    -0.219 N 
ATOM      5  H   UNL     1       2.253   2.039   2.579  0.00  0.00    +0.150 HD
ATOM      6  H   UNL     1       1.062   4.359   4.901  0.00  0.00    +0.174 HD
ENDROOT
BRANCH   4   7
ATOM      7  N   UNL     1       1.767   4.331   2.961  0.00  0.00    -0.245 N 
ATOM      8  H   UNL     1       2.109   3.756   2.258  0.00  0.00    +0.172 HD
BRANCH   7   9
ATOM      9  C   UNL     1       1.643   5.656   2.747  0.00  0.00    +0.147 C 
ATOM     10  S   UNL     1       2.088   6.324   1.235  0.00  0.00    -0.017 S 
BRANCH   9  11
ATOM     11  N   UNL     1       1.169   6.455   3.723  0.00  0.00    -0.323 N 
ATOM     12  H   UNL     1       0.917   6.077   4.580  0.00  0.00    +0.148 HD
BRANCH  11  13
ATOM     13  C   UNL     1       1.034   7.895   3.491  0.00  0.00    +0.072 C 
ATOM     14  C   UNL     1       2.353   8.613   3.843  0.00  0.00    +0.022 C 
ATOM     15  C   UNL     1       1.900   9.950   4.480  0.00  0.00    +0.002 C 
ATOM     16  C   UNL     1       0.655   9.533   5.301  0.00  0.00    +0.002 C 
ATOM     17  C   UNL     1      -0.046   8.480   4.418  0.00  0.00    +0.022 C 
ENDBRANCH  11  13
ENDBRANCH   9  11
ENDBRANCH   7   9
ENDBRANCH   4   7
BRANCH   1  18
ATOM     18  C   UNL     1       2.136   0.221   3.668  0.00  0.00    +0.093 C 
BRANCH  18  19
ATOM     19  C   UNL     1       2.570  -0.467   2.372  0.00  0.00    -0.055 C 
ATOM     20  C   UNL     1       2.629  -1.980   2.592  0.00  0.00    -0.008 C 
ATOM     21  C   UNL     1       3.953   0.043   1.963  0.00  0.00    -0.008 C 
BRANCH  19  27
ATOM     22  C   UNL     1      -0.774   1.282   0.483  0.00  0.00    +0.005 C 
ATOM     23  C   UNL     1      -0.757  -0.239   0.650  0.00  0.00    -0.031 C 
ATOM     24  C   UNL     1      -0.373  -0.895  -0.679  0.00  0.00    +0.003 C 
ATOM     25  C   UNL     1       1.047  -0.466  -1.058  0.00  0.00    -0.031 C 
ATOM     26  C   UNL     1       2.007  -0.843   0.073  0.00  0.00    -0.075 C 
ATOM     27  N   UNL     1       1.602  -0.164   1.310  0.00  0.00    +0.384 N 
ATOM     28  C   UNL     1       0.269  -0.624   1.718  0.00  0.00    -0.075 C 
ATOM     29  C   UNL     1       1.470  -1.177  -2.345  0.00  0.00    +0.005 C 
ATOM     30  H   UNL     1       1.579   0.833   1.153  0.00  0.00    -0.081 HD
ENDBRANCH  19  27
ENDBRANCH  18  19
ENDBRANCH   1  18
TORSDOF 7
