REMARK  Name = ZINC39715076
REMARK  8 active torsions:
REMARK  status: ('A' for Active; 'I' for Inactive)
REMARK    1  A    between atoms: C_4  and  C_7
REMARK    2  A    between atoms: C_8  and  C_9
REMARK    3  A    between atoms: N_10  and  N_11
REMARK    4  A    between atoms: N_13  and  C_30
REMARK    5  A    between atoms: C_16  and  C_19
REMARK    6  A    between atoms: C_19  and  C_20
REMARK    7  A    between atoms: N_22  and  C_23
REMARK    8  A    between atoms: C_33  and  O_36
REMARK                            x       y       z     vdW  Elec       q    Type
REMARK                         _______ _______ _______ _____ _____    ______ ____
ROOT
ATOM      1  N   UNL     1       6.045  -4.779   0.808  0.00  0.00    -0.126 NA
ATOM      2  C   UNL     1       6.098  -6.056   0.483  0.00  0.00    +0.190 C 
ATOM      3  N   UNL     1       5.053  -6.896   0.157  0.00  0.00    -0.217 N 
ATOM      4  C   UNL     1       5.236  -8.168  -0.153  0.00  0.00    +0.239 C 
ATOM      5  O   UNL     1       4.312  -8.900  -0.438  0.00  0.00    -0.274 OA
ATOM      6  C   UNL     1       6.675  -8.655  -0.129  0.00  0.00    +0.149 C 
ATOM      7  S   UNL     1       7.540  -7.104   0.354  0.00  0.00    -0.075 S 
ENDROOT
BRANCH   3   8
ATOM      8  C   UNL     1       3.749  -6.381   0.155  0.00  0.00    +0.043 A 
ATOM      9  C   UNL     1       2.903  -6.627   1.228  0.00  0.00    +0.027 A 
ATOM     10  C   UNL     1       1.619  -6.120   1.226  0.00  0.00    +0.047 A 
ATOM     11  C   UNL     1       1.174  -5.363   0.152  0.00  0.00    +0.117 A 
ATOM     12  C   UNL     1       2.018  -5.116  -0.921  0.00  0.00    +0.047 A 
ATOM     13  C   UNL     1       3.304  -5.619  -0.917  0.00  0.00    +0.027 A 
BRANCH  11  14
ATOM     14  O   UNL     1      -0.091  -4.864   0.150  0.00  0.00    -0.507 OA
ATOM     15  H   UNL     1      -0.167  -3.985   0.546  0.00  0.00    +0.292 HD
ENDBRANCH  11  14
ENDBRANCH   3   8
BRANCH   1  17
ATOM     16  C   UNL     1       4.869  -2.876   1.059  0.00  0.00    +0.135 C 
ATOM     17  N   UNL     1       4.911  -4.165   0.829  0.00  0.00    -0.155 NA
BRANCH  16  19
ATOM     18  C   UNL     1       3.578  -0.914   1.525  0.00  0.00    +0.009 C 
ATOM     19  C   UNL     1       3.623  -2.223   1.189  0.00  0.00    +0.022 C 
BRANCH  18  23
ATOM     20  C   UNL     1      -0.162   1.048   1.914  0.00  0.00    +0.000 A 
ATOM     21  C   UNL     1       1.010   1.751   2.133  0.00  0.00    +0.001 A 
ATOM     22  C   UNL     1       2.230   1.121   2.009  0.00  0.00    +0.008 A 
ATOM     23  C   UNL     1       2.281  -0.233   1.660  0.00  0.00    -0.025 A 
ATOM     24  C   UNL     1       1.092  -0.937   1.441  0.00  0.00    +0.008 A 
ATOM     25  C   UNL     1      -0.120  -0.292   1.569  0.00  0.00    +0.001 A 
ENDBRANCH  18  23
ENDBRANCH  16  19
ENDBRANCH   1  17
BRANCH   6  26
ATOM     26  C   UNL     1       7.124  -9.127  -1.514  0.00  0.00    +0.120 C 
BRANCH  26  27
ATOM     27  C   UNL     1       8.509  -9.713  -1.420  0.00  0.00    +0.219 C 
ATOM     28  O   UNL     1       9.081  -9.751  -0.351  0.00  0.00    -0.275 OA
ATOM     29  N   UNL     1       9.112 -10.197  -2.524  0.00  0.00    -0.285 N 
ATOM     30  H   UNL     1       8.678 -10.119  -3.388  0.00  0.00    +0.155 HD
BRANCH  29  31
ATOM     31  C   UNL     1      10.366 -10.812  -2.425  0.00  0.00    +0.033 A 
ATOM     32  C   UNL     1      11.289 -10.679  -3.453  0.00  0.00    +0.025 A 
ATOM     33  C   UNL     1      12.525 -11.286  -3.353  0.00  0.00    +0.022 A 
ATOM     34  C   UNL     1      12.844 -12.027  -2.228  0.00  0.00    +0.041 A 
ATOM     35  C   UNL     1      11.926 -12.161  -1.202  0.00  0.00    +0.022 A 
ATOM     36  C   UNL     1      10.690 -11.550  -1.295  0.00  0.00    +0.025 A 
ATOM     37 CL   UNL     1      14.399 -12.790  -2.105  0.00  0.00    -0.084 Cl
ENDBRANCH  29  31
ENDBRANCH  26  27
ENDBRANCH   6  26
TORSDOF 8
