REMARK  Name = ZINC09562761
REMARK  7 active torsions:
REMARK  status: ('A' for Active; 'I' for Inactive)
REMARK    1  A    between atoms: C_1  and  C_2
REMARK    2  A    between atoms: C_9  and  N_13
REMARK    3  A    between atoms: C_10  and  C_11
REMARK    4  A    between atoms: C_14  and  C_16
REMARK    5  A    between atoms: C_16  and  O_17
REMARK    6  A    between atoms: O_17  and  C_18
REMARK    7  A    between atoms: C_18  and  C_20
REMARK                            x       y       z     vdW  Elec       q    Type
REMARK                         _______ _______ _______ _____ _____    ______ ____
ROOT
ATOM      1  N   UNL     1      -3.517   6.413   0.053  0.00  0.00    -0.276 N 
ATOM      2  C   UNL     1      -2.439   5.604   0.044  0.00  0.00    +0.255 C 
ATOM      3  O   UNL     1      -1.323   6.080   0.041  0.00  0.00    -0.272 OA
ATOM      4  H   UNL     1      -4.409   6.033   0.056  0.00  0.00    +0.155 HD
ENDROOT
BRANCH   1  12
ATOM      5  C   UNL     1      -2.154  14.117   0.184  0.00  0.00    +0.008 C 
ATOM      6  C   UNL     1      -2.785  12.752   0.464  0.00  0.00    -0.009 C 
ATOM      7  C   UNL     1      -4.062  12.596  -0.368  0.00  0.00    +0.008 C 
ATOM      8  C   UNL     1      -4.830  11.354   0.086  0.00  0.00    +0.037 C 
ATOM      9  C   UNL     1      -3.883  10.161   0.076  0.00  0.00    -0.018 A 
ATOM     10  C   UNL     1      -2.543  10.336   0.070  0.00  0.00    -0.004 A 
ATOM     11  S   UNL     1      -1.873   8.697   0.066  0.00  0.00    -0.077 S 
ATOM     12  C   UNL     1      -3.350   7.791   0.060  0.00  0.00    +0.090 A 
ATOM     13  C   UNL     1      -4.326   8.777   0.070  0.00  0.00    +0.084 A 
ATOM     14  C   UNL     1      -1.803  11.637   0.075  0.00  0.00    +0.046 C 
BRANCH  13  15
ATOM     15  C   UNL     1      -5.718   8.443   0.075  0.00  0.00    +0.102 C 
ATOM     16  N   UNL     1      -6.823   8.179   0.078  0.00  0.00    -0.191 NA
ENDBRANCH  13  15
ENDBRANCH   1  12
BRANCH   2  17
ATOM     17  C   UNL     1      -2.620   4.108   0.037  0.00  0.00    +0.328 C 
BRANCH  17  18
ATOM     18  O   UNL     1      -1.319   3.463   0.027  0.00  0.00    -0.452 OA
BRANCH  18  19
ATOM     19  C   UNL     1      -1.304   2.116   0.020  0.00  0.00    +0.340 C 
ATOM     20  O   UNL     1      -2.349   1.498   0.021  0.00  0.00    -0.245 OA
BRANCH  19  21
ATOM     21  C   UNL     1      -0.017   1.392   0.010  0.00  0.00    +0.059 A 
ATOM     22  C   UNL     1       1.186   2.101   0.002  0.00  0.00    +0.016 A 
ATOM     23  C   UNL     1       2.385   1.419  -0.013  0.00  0.00    +0.015 A 
ATOM     24  C   UNL     1       2.397   0.034  -0.020  0.00  0.00    +0.013 A 
ATOM     25  C   UNL     1       1.207  -0.674  -0.013  0.00  0.00    +0.015 A 
ATOM     26  C   UNL     1       0.002  -0.004   0.002  0.00  0.00    +0.016 A 
ATOM     27  I   UNL     1       4.223  -0.993  -0.042  0.00  0.00    -0.044 I 
ENDBRANCH  19  21
ENDBRANCH  18  19
ENDBRANCH  17  18
ENDBRANCH   2  17
TORSDOF 6
