REMARK  Name = ZINC11973819
REMARK  6 active torsions:
REMARK  status: ('A' for Active; 'I' for Inactive)
REMARK    1  A    between atoms: C_3  and  C_6
REMARK    2  A    between atoms: C_13  and  C_33
REMARK    3  A    between atoms: C_14  and  C_17
REMARK    4  A    between atoms: C_22  and  N_67
REMARK    5  A    between atoms: C_28  and  C_31
REMARK    6  A    between atoms: C_31  and  O_32
REMARK                            x       y       z     vdW  Elec       q    Type
REMARK                         _______ _______ _______ _____ _____    ______ ____
ROOT
ATOM      1  C   UNL     1       8.553   3.849  -7.007  0.00  0.00    +0.083 A 
ATOM      2  C   UNL     1       8.437   4.556  -8.211  0.00  0.00    +0.049 A 
ATOM      3  C   UNL     1       7.187   4.667  -8.790  0.00  0.00    +0.117 A 
ATOM      4  N   UNL     1       6.145   4.106  -8.194  0.00  0.00    -0.219 NA
ATOM      5  C   UNL     1       6.283   3.444  -7.057  0.00  0.00    +0.252 A 
ATOM      6  N   UNL     1       7.458   3.317  -6.464  0.00  0.00    -0.210 NA
ATOM      7  N   UNL     1       5.158   2.870  -6.464  0.00  0.00    -0.201 N 
ATOM      8  C   UNL     1       3.924   2.822  -7.001  0.00  0.00    +0.063 A 
ATOM      9  C   UNL     1       3.107   2.175  -6.097  0.00  0.00    +0.078 A 
ATOM     10  C   UNL     1       3.908   1.824  -4.986  0.00  0.00    +0.148 A 
ATOM     11  N   UNL     1       5.122   2.241  -5.215  0.00  0.00    -0.171 NA
ENDROOT
BRANCH   9  12
ATOM     12  C   UNL     1       1.668   1.897  -6.260  0.00  0.00    +0.250 C 
ATOM     13  O   UNL     1       1.202   1.742  -7.373  0.00  0.00    -0.270 OA
ATOM     14  N   UNL     1       0.870   1.815  -5.177  0.00  0.00    -0.298 N 
ATOM     15  C   UNL     1      -0.577   1.611  -5.328  0.00  0.00    +0.106 C 
ATOM     16  C   UNL     1      -1.313   2.708  -4.553  0.00  0.00    +0.004 C 
ATOM     17  C   UNL     1      -0.827   2.716  -3.101  0.00  0.00    -0.066 C 
ATOM     18  C   UNL     1       0.672   3.022  -3.066  0.00  0.00    +0.004 C 
ATOM     19  C   UNL     1       1.431   1.928  -3.824  0.00  0.00    +0.106 C 
BRANCH  17  25
ATOM     20  C   UNL     1      -1.414   5.061  -2.982  0.00  0.00    -0.078 C 
ATOM     21  C   UNL     1      -2.299   6.077  -2.256  0.00  0.00    -0.018 C 
ATOM     22  C   UNL     1      -1.880   6.152  -0.785  0.00  0.00    +0.002 C 
ATOM     23  C   UNL     1      -1.990   4.758  -0.160  0.00  0.00    -0.002 C 
ATOM     24  C   UNL     1      -1.113   3.781  -0.947  0.00  0.00    -0.073 C 
ATOM     25  N   UNL     1      -1.583   3.737  -2.348  0.00  0.00    +0.382 N 
ATOM     26  H   UNL     1      -2.580   3.488  -2.357  0.00  0.00    -0.081 HD
BRANCH  23  27
ATOM     27  C   UNL     1      -1.516   4.813   1.294  0.00  0.00    +0.157 C 
BRANCH  27  28
ATOM     28  O   UNL     1      -2.404   5.634   2.054  0.00  0.00    -0.395 OA
ATOM     29  H   UNL     1      -2.164   5.714   2.988  0.00  0.00    +0.209 HD
ENDBRANCH  27  28
ENDBRANCH  23  27
ENDBRANCH  17  25
ENDBRANCH   9  12
BRANCH   1  32
ATOM     30  C   UNL     1      11.486   3.048  -4.757  0.00  0.00    +0.008 A 
ATOM     31  C   UNL     1      10.177   3.054  -5.181  0.00  0.00    +0.017 A 
ATOM     32  C   UNL     1       9.865   3.701  -6.348  0.00  0.00    +0.038 A 
ATOM     33  S   UNL     1      11.460   4.312  -6.868  0.00  0.00    -0.095 S 
ATOM     34  C   UNL     1      12.427   3.681  -5.506  0.00  0.00    +0.046 A 
ENDBRANCH   1  32
BRANCH   8  35
ATOM     35  C   UNL     1       3.510   3.375  -8.340  0.00  0.00    +0.039 C 
ATOM     36  C   UNL     1       2.764   2.438  -9.292  0.00  0.00    +0.010 C 
ATOM     37  C   UNL     1       4.217   2.824  -9.581  0.00  0.00    +0.010 C 
ENDBRANCH   8  35
TORSDOF 6
