REMARK  Name = ZINC28294753
REMARK  9 active torsions:
REMARK  status: ('A' for Active; 'I' for Inactive)
REMARK    1  A    between atoms: C_4  and  N_7
REMARK    2  A    between atoms: C_11  and  S_19
REMARK    3  A    between atoms: N_12  and  C_13
REMARK    4  A    between atoms: S_19  and  C_20
REMARK    5  A    between atoms: C_20  and  C_21
REMARK    6  A    between atoms: N_23  and  N_24
REMARK    7  A    between atoms: N_24  and  C_25
REMARK    8  A    between atoms: C_25  and  N_27
REMARK    9  A    between atoms: N_27  and  C_28
REMARK                            x       y       z     vdW  Elec       q    Type
REMARK                         _______ _______ _______ _____ _____    ______ ____
ROOT
ATOM      1  N   UNL     1      -2.515   1.164  -1.067  0.00  0.00    -0.283 N 
ATOM      2  C   UNL     1      -3.708   1.826  -0.801  0.00  0.00    +0.226 A 
ATOM      3  N   UNL     1      -3.917   3.114  -0.915  0.00  0.00    -0.112 NA
ATOM      4  N   UNL     1      -5.245   3.373  -0.554  0.00  0.00    -0.120 NA
ATOM      5  C   UNL     1      -5.807   2.234  -0.230  0.00  0.00    +0.198 A 
ATOM      6  N   UNL     1      -4.873   1.245  -0.379  0.00  0.00    -0.258 N 
ATOM      7  H   UNL     1      -2.476   0.066  -1.031  0.00  0.00    +0.155 HD
ENDROOT
BRANCH   1  11
ATOM      8  C   UNL     1       0.906   3.344  -2.009  0.00  0.00    +0.000 A 
ATOM      9  C   UNL     1       0.761   2.051  -2.478  0.00  0.00    +0.002 A 
ATOM     10  C   UNL     1      -0.371   1.324  -2.164  0.00  0.00    +0.023 A 
ATOM     11  C   UNL     1      -1.366   1.895  -1.381  0.00  0.00    +0.034 A 
ATOM     12  C   UNL     1      -1.215   3.192  -0.907  0.00  0.00    +0.023 A 
ATOM     13  C   UNL     1      -0.081   3.914  -1.225  0.00  0.00    +0.002 A 
ENDBRANCH   1  11
BRANCH   6  14
ATOM     14  C   UNL     1      -5.074  -0.122  -0.138  0.00  0.00    +0.052 A 
ATOM     15  C   UNL     1      -5.004  -1.030  -1.186  0.00  0.00    +0.026 A 
ATOM     16  C   UNL     1      -5.198  -2.377  -0.945  0.00  0.00    +0.002 A 
ATOM     17  C   UNL     1      -5.471  -2.819   0.336  0.00  0.00    +0.000 A 
ATOM     18  C   UNL     1      -5.546  -1.916   1.381  0.00  0.00    +0.002 A 
ATOM     19  C   UNL     1      -5.348  -0.569   1.147  0.00  0.00    +0.026 A 
ENDBRANCH   6  14
BRANCH   5  20
ATOM     20  S   UNL     1      -7.474   2.015   0.299  0.00  0.00    -0.076 S 
BRANCH  20  21
ATOM     21  C   UNL     1      -8.166   3.692   0.276  0.00  0.00    +0.174 C 
BRANCH  21  22
ATOM     22  C   UNL     1      -9.607   3.646   0.714  0.00  0.00    +0.239 C 
ATOM     23  O   UNL     1     -10.117   2.587   1.011  0.00  0.00    -0.273 OA
ATOM     24  N   UNL     1     -10.329   4.783   0.774  0.00  0.00    -0.234 N 
ATOM     25  H   UNL     1      -9.866   5.743   0.504  0.00  0.00    +0.173 HD
BRANCH  24  26
ATOM     26  N   UNL     1     -11.669   4.740   1.180  0.00  0.00    -0.246 N 
ATOM     27  H   UNL     1     -12.132   3.780   1.450  0.00  0.00    +0.172 HD
BRANCH  26  28
ATOM     28  C   UNL     1     -12.391   5.877   1.241  0.00  0.00    +0.151 C 
ATOM     29  S   UNL     1     -14.029   5.825   1.737  0.00  0.00    -0.017 S 
BRANCH  28  30
ATOM     30  N   UNL     1     -11.824   7.054   0.910  0.00  0.00    -0.296 N 
ATOM     31  H   UNL     1     -10.803   7.077   0.501  0.00  0.00    +0.154 HD
BRANCH  30  32
ATOM     32  C   UNL     1     -12.534   8.246   1.087  0.00  0.00    +0.033 A 
ATOM     33  C   UNL     1     -12.464   9.247   0.126  0.00  0.00    +0.023 A 
ATOM     34  C   UNL     1     -13.171  10.421   0.301  0.00  0.00    +0.002 A 
ATOM     35  C   UNL     1     -13.938  10.605   1.437  0.00  0.00    +0.000 A 
ATOM     36  C   UNL     1     -14.004   9.613   2.398  0.00  0.00    +0.002 A 
ATOM     37  C   UNL     1     -13.305   8.435   2.227  0.00  0.00    +0.023 A 
ENDBRANCH  30  32
ENDBRANCH  28  30
ENDBRANCH  26  28
ENDBRANCH  24  26
ENDBRANCH  21  22
ENDBRANCH  20  21
ENDBRANCH   5  20
TORSDOF 9
