REMARK  Name = ZINC21677924
REMARK  15 active torsions:
REMARK  status: ('A' for Active; 'I' for Inactive)
REMARK    1  A    between atoms: C_1  and  C_2
REMARK    2  A    between atoms: N_6  and  C_33
REMARK    3  A    between atoms: C_9  and  C_32
REMARK    4  A    between atoms: C_10  and  C_11
REMARK    5  A    between atoms: C_11  and  C_12
REMARK    6  A    between atoms: C_12  and  C_13
REMARK    7  A    between atoms: N_15  and  C_16
REMARK    8  A    between atoms: N_20  and  C_21
REMARK    9  A    between atoms: C_21  and  C_22
REMARK   10  A    between atoms: C_26  and  O_30
REMARK   11  A    between atoms: C_27  and  O_28
REMARK   12  A    between atoms: O_28  and  C_29
REMARK   13  A    between atoms: O_30  and  C_31
REMARK   14  A    between atoms: C_33  and  C_34
REMARK   15  A    between atoms: C_33  and  C_35
REMARK                            x       y       z     vdW  Elec       q    Type
REMARK                         _______ _______ _______ _____ _____    ______ ____
ROOT
ATOM      1  C   UNL     1       4.208  -0.452  -0.042  0.00  0.00    +0.219 C 
ATOM      2  O   UNL     1       3.617  -1.511  -0.041  0.00  0.00    -0.275 OA
ATOM      3  N   UNL     1       3.517   0.705  -0.028  0.00  0.00    -0.271 N 
ATOM      4  H   UNL     1       4.053   1.666  -0.029  0.00  0.00    +0.156 HD
ENDROOT
BRANCH   3   5
ATOM      5  C   UNL     1       2.123   0.684  -0.015  0.00  0.00    +0.123 A 
ATOM      6  C   UNL     1       1.335  -0.425  -0.013  0.00  0.00    +0.065 A 
ATOM      7  C   UNL     1       0.002  -0.004   0.002  0.00  0.00    +0.136 A 
ATOM      8  N   UNL     1      -0.016   1.304   0.009  0.00  0.00    -0.178 NA
ATOM      9  N   UNL     1       1.307   1.764  -0.001  0.00  0.00    -0.246 N 
BRANCH   9  10
ATOM     10  C   UNL     1       1.733   3.166   0.002  0.00  0.00    +0.184 C 
BRANCH  10  11
ATOM     11  C   UNL     1       1.893   3.639   1.423  0.00  0.00    +0.019 A 
ATOM     12  C   UNL     1       0.855   4.303   2.052  0.00  0.00    +0.009 A 
ATOM     13  C   UNL     1       0.996   4.733   3.358  0.00  0.00    +0.004 A 
ATOM     14  C   UNL     1       2.180   4.513   4.037  0.00  0.00    +0.049 A 
ATOM     15  C   UNL     1       3.226   3.854   3.412  0.00  0.00    +0.162 A 
ATOM     16  C   UNL     1       3.082   3.415   2.099  0.00  0.00    +0.166 A 
BRANCH  16  17
ATOM     17  O   UNL     1       4.105   2.768   1.480  0.00  0.00    -0.491 OA
ATOM     18  C   UNL     1       5.043   3.573   0.763  0.00  0.00    +0.277 C 
ENDBRANCH  16  17
BRANCH  15  19
ATOM     19  O   UNL     1       4.391   3.636   4.079  0.00  0.00    -0.491 OA
ATOM     20  C   UNL     1       4.467   4.114   5.423  0.00  0.00    +0.277 C 
ENDBRANCH  15  19
ENDBRANCH  10  11
ENDBRANCH   9  10
ENDBRANCH   3   5
BRANCH   1  21
ATOM     21  C   UNL     1       5.715  -0.430  -0.057  0.00  0.00    +0.101 C 
BRANCH  21  22
ATOM     22  C   UNL     1       6.246  -1.865  -0.070  0.00  0.00    +0.046 C 
BRANCH  22  32
ATOM     23  C   UNL     1       7.738  -1.856   2.420  0.00  0.00    +0.045 C 
ATOM     24  C   UNL     1       8.453  -1.839   1.093  0.00  0.00    -0.033 A 
ATOM     25  C   UNL     1       9.851  -1.818   1.030  0.00  0.00    +0.042 A 
ATOM     26  C   UNL     1      10.916  -1.808   2.027  0.00  0.00    +0.144 A 
ATOM     27  N   UNL     1      12.052  -1.789   1.392  0.00  0.00    -0.177 NA
ATOM     28  N   UNL     1      11.831  -1.784   0.011  0.00  0.00    -0.244 N 
ATOM     29  C   UNL     1      10.484  -1.803  -0.229  0.00  0.00    +0.159 A 
ATOM     30  N   UNL     1       9.752  -1.807  -1.337  0.00  0.00    -0.232 NA
ATOM     31  C   UNL     1       8.438  -1.832  -1.291  0.00  0.00    +0.044 A 
ATOM     32  C   UNL     1       7.753  -1.843  -0.085  0.00  0.00    -0.022 A 
ATOM     33  C   UNL     1       7.658  -1.842  -2.580  0.00  0.00    +0.066 C 
BRANCH  28  34
ATOM     34  C   UNL     1      12.876  -1.763  -1.015  0.00  0.00    +0.103 C 
ATOM     35  C   UNL     1      13.727  -0.503  -0.851  0.00  0.00    +0.032 C 
ATOM     36  C   UNL     1      13.763  -3.001  -0.866  0.00  0.00    +0.032 C 
ENDBRANCH  28  34
ENDBRANCH  22  32
ENDBRANCH  21  22
ENDBRANCH   1  21
TORSDOF 9
