REMARK  Name = ZINC00709317
REMARK  7 active torsions:
REMARK  status: ('A' for Active; 'I' for Inactive)
REMARK    1  A    between atoms: C_1  and  C_2
REMARK    2  A    between atoms: C_9  and  N_30
REMARK    3  A    between atoms: C_10  and  C_28
REMARK    4  A    between atoms: C_11  and  C_13
REMARK    5  A    between atoms: C_16  and  O_19
REMARK    6  A    between atoms: O_19  and  C_20
REMARK    7  A    between atoms: C_20  and  C_22
REMARK                            x       y       z     vdW  Elec       q    Type
REMARK                         _______ _______ _______ _____ _____    ______ ____
ROOT
ATOM      1  C   UNL     1      -1.879   4.915   3.020  0.00  0.00    +0.068 C 
ATOM      2  C   UNL     1      -3.018   4.028   2.585  0.00  0.00    +0.068 A 
ATOM      3  C   UNL     1      -3.277   3.612   1.286  0.00  0.00    +0.049 A 
ATOM      4  C   UNL     1      -4.393   2.823   1.308  0.00  0.00    +0.222 A 
ATOM      5  N   UNL     1      -4.813   2.751   2.582  0.00  0.00    -0.246 N 
ATOM      6  H   UNL     1      -5.609   2.243   2.911  0.00  0.00    +0.192 HD
ATOM      7  N   UNL     1      -3.937   3.515   3.368  0.00  0.00    -0.176 NA
ATOM      8  O   UNL     1      -4.911   2.256   0.191  0.00  0.00    -0.423 OA
ATOM      9  C   UNL     1      -4.466   2.705  -1.001  0.00  0.00    +0.200 C 
ATOM     10  C   UNL     1      -3.370   3.480  -1.151  0.00  0.00    +0.098 C 
ATOM     11  C   UNL     1      -2.524   3.920   0.018  0.00  0.00    +0.101 C 
ENDROOT
BRANCH  11  12
ATOM     12  C   UNL     1      -1.215   3.172   0.009  0.00  0.00    -0.034 A 
ATOM     13  C   UNL     1      -1.209   1.792   0.092  0.00  0.00    +0.008 A 
ATOM     14  C   UNL     1      -0.011   1.104   0.090  0.00  0.00    +0.046 A 
ATOM     15  C   UNL     1       1.186   1.799  -0.006  0.00  0.00    +0.132 A 
ATOM     16  C   UNL     1       1.177   3.184  -0.095  0.00  0.00    +0.046 A 
ATOM     17  C   UNL     1      -0.024   3.867  -0.087  0.00  0.00    +0.008 A 
BRANCH  15  18
ATOM     18  O   UNL     1       2.366   1.125  -0.015  0.00  0.00    -0.422 OA
BRANCH  18  19
ATOM     19  C   UNL     1       3.158   1.264   1.067  0.00  0.00    +0.344 C 
ATOM     20  O   UNL     1       2.761   1.882   2.034  0.00  0.00    -0.245 OA
BRANCH  19  21
ATOM     21  C   UNL     1       4.508   0.666   1.076  0.00  0.00    +0.059 A 
ATOM     22  C   UNL     1       4.965  -0.050  -0.033  0.00  0.00    +0.015 A 
ATOM     23  C   UNL     1       6.230  -0.601  -0.020  0.00  0.00    +0.001 A 
ATOM     24  C   UNL     1       7.040  -0.456   1.092  0.00  0.00    +0.000 A 
ATOM     25  C   UNL     1       6.591   0.247   2.196  0.00  0.00    +0.001 A 
ATOM     26  C   UNL     1       5.331   0.808   2.195  0.00  0.00    +0.015 A 
ENDBRANCH  19  21
ENDBRANCH  18  19
ENDBRANCH  15  18
ENDBRANCH  11  12
BRANCH   9  27
ATOM     27  N   UNL     1      -5.168   2.353  -2.127  0.00  0.00    -0.328 N 
ATOM     28  H   UNL     1      -4.872   2.659  -2.998  0.00  0.00    +0.145 HD
ATOM     29  H   UNL     1      -5.960   1.797  -2.051  0.00  0.00    +0.145 HD
ENDBRANCH   9  27
BRANCH  10  30
ATOM     30  C   UNL     1      -2.997   3.899  -2.469  0.00  0.00    +0.101 C 
ATOM     31  N   UNL     1      -2.701   4.231  -3.514  0.00  0.00    -0.191 NA
ENDBRANCH  10  30
TORSDOF 6
