REMARK  Name = ZINC35926673
REMARK  7 active torsions:
REMARK  status: ('A' for Active; 'I' for Inactive)
REMARK    1  A    between atoms: C_1  and  C_2
REMARK    2  A    between atoms: C_2  and  C_3
REMARK    3  A    between atoms: C_6  and  C_9
REMARK    4  A    between atoms: C_23  and  C_25
REMARK    5  A    between atoms: C_25  and  N_26
REMARK    6  A    between atoms: N_29  and  C_32
REMARK    7  A    between atoms: C_32  and  C_33
REMARK                            x       y       z     vdW  Elec       q    Type
REMARK                         _______ _______ _______ _____ _____    ______ ____
ROOT
ATOM      1  C   UNL     1       2.325  -4.121  -4.054  0.00  0.00    +0.247 C 
ATOM      2  O   UNL     1       1.778  -3.624  -3.089  0.00  0.00    -0.270 OA
ATOM      3  N   UNL     1       3.636  -4.428  -4.002  0.00  0.00    -0.295 N 
ATOM      4  C   UNL     1       4.339  -4.912  -5.199  0.00  0.00    +0.127 C 
ATOM      5  C   UNL     1       5.550  -4.007  -5.454  0.00  0.00    +0.127 C 
ATOM      6  N   UNL     1       6.303  -3.864  -4.200  0.00  0.00    -0.298 N 
ATOM      7  C   UNL     1       5.600  -3.380  -3.003  0.00  0.00    +0.127 C 
ATOM      8  C   UNL     1       4.390  -4.280  -2.749  0.00  0.00    +0.127 C 
ATOM      9  C   UNL     1       7.635  -4.175  -4.147  0.00  0.00    +0.198 A 
ATOM     10  N   UNL     1       8.290  -4.505  -5.293  0.00  0.00    -0.295 N 
ATOM     11  H   UNL     1       7.815  -4.518  -6.139  0.00  0.00    +0.172 HD
ATOM     12  C   UNL     1       9.604  -4.813  -5.249  0.00  0.00    +0.253 A 
ATOM     13  O   UNL     1      10.207  -5.110  -6.267  0.00  0.00    -0.268 OA
ATOM     14  C   UNL     1      10.264  -4.785  -4.008  0.00  0.00    +0.091 A 
ATOM     15  C   UNL     1       9.554  -4.447  -2.892  0.00  0.00    +0.034 A 
ATOM     16  N   UNL     1       8.261  -4.146  -2.988  0.00  0.00    -0.223 NA
ENDROOT
BRANCH   1  20
ATOM     17  C   UNL     1       0.102  -4.890  -7.591  0.00  0.00    -0.048 A 
ATOM     18  C   UNL     1      -0.213  -3.797  -6.804  0.00  0.00    +0.004 A 
ATOM     19  C   UNL     1       0.505  -3.542  -5.654  0.00  0.00    +0.013 A 
ATOM     20  C   UNL     1       1.551  -4.389  -5.285  0.00  0.00    +0.037 A 
ATOM     21  C   UNL     1       1.864  -5.490  -6.084  0.00  0.00    +0.013 A 
ATOM     22  C   UNL     1       1.135  -5.737  -7.229  0.00  0.00    +0.004 A 
BRANCH  17  24
ATOM     23  C   UNL     1      -1.880  -6.060  -8.514  0.00  0.00    +0.009 C 
ATOM     24  C   UNL     1      -0.686  -5.163  -8.846  0.00  0.00    +0.032 C 
ENDBRANCH  17  24
ENDBRANCH   1  20
BRANCH  15  25
ATOM     25  C   UNL     1      10.238  -4.409  -1.549  0.00  0.00    -0.022 C 
BRANCH  25  26
ATOM     26  N   UNL     1      10.245  -3.030  -1.042  0.00  0.00    +0.385 N 
ATOM     27  C   UNL     1      11.068  -2.190  -1.922  0.00  0.00    -0.063 C 
ATOM     28  C   UNL     1      11.061  -0.750  -1.405  0.00  0.00    +0.066 C 
ATOM     29  N   UNL     1      11.592  -0.721  -0.035  0.00  0.00    -0.302 NA
ATOM     30  C   UNL     1      10.794  -1.578   0.852  0.00  0.00    +0.066 C 
ATOM     31  C   UNL     1      10.803  -3.011   0.317  0.00  0.00    -0.063 C 
ATOM     32  H   UNL     1       9.302  -2.674  -1.023  0.00  0.00    -0.081 HD
BRANCH  29  33
ATOM     33  C   UNL     1      11.655   0.654   0.477  0.00  0.00    +0.119 C 
BRANCH  33  34
ATOM     34  C   UNL     1      12.424   0.673   1.772  0.00  0.00    -0.033 A 
ATOM     35  C   UNL     1      11.761   0.497   2.972  0.00  0.00    +0.008 A 
ATOM     36  C   UNL     1      12.466   0.514   4.161  0.00  0.00    +0.038 A 
ATOM     37  C   UNL     1      13.837   0.708   4.150  0.00  0.00    +0.123 A 
ATOM     38  C   UNL     1      14.500   0.884   2.947  0.00  0.00    +0.038 A 
ATOM     39  C   UNL     1      13.794   0.862   1.759  0.00  0.00    +0.008 A 
ATOM     40  F   UNL     1      14.526   0.725   5.311  0.00  0.00    -0.205 F 
ENDBRANCH  33  34
ENDBRANCH  29  33
ENDBRANCH  25  26
ENDBRANCH  15  25
TORSDOF 6
