REMARK  Name = ZINC05275826
REMARK  5 active torsions:
REMARK  status: ('A' for Active; 'I' for Inactive)
REMARK    1  A    between atoms: C_1  and  C_2
REMARK    2  A    between atoms: C_13  and  C_15
REMARK    3  A    between atoms: N_17  and  N_18
REMARK    4  A    between atoms: C_22  and  C_29
REMARK    5  A    between atoms: C_25  and  O_28
REMARK                            x       y       z     vdW  Elec       q    Type
REMARK                         _______ _______ _______ _____ _____    ______ ____
ROOT
ATOM      1  C   UNL     1      -2.145  -1.690   0.944  0.00  0.00    +0.012 C 
ATOM      2  C   UNL     1      -0.837  -1.125   0.387  0.00  0.00    -0.018 C 
ATOM      3  C   UNL     1      -0.527  -1.652  -1.017  0.00  0.00    +0.008 C 
ATOM      4  C   UNL     1      -1.501  -1.060  -2.030  0.00  0.00    +0.005 C 
ATOM      5  C   UNL     1      -1.309   0.461  -2.079  0.00  0.00    +0.003 C 
ATOM      6  C   UNL     1      -1.646   1.044  -0.705  0.00  0.00    +0.000 C 
ATOM      7  C   UNL     1      -0.826   0.412   0.395  0.00  0.00    -0.001 C 
ATOM      8  C   UNL     1       0.670   0.762   0.290  0.00  0.00    +0.005 C 
ATOM      9  C   UNL     1       1.351  -0.295   1.190  0.00  0.00    +0.013 C 
ATOM     10  C   UNL     1       0.382  -1.488   1.277  0.00  0.00    +0.082 C 
ATOM     11  C   UNL     1      -1.381   2.543  -0.729  0.00  0.00    +0.031 C 
ATOM     12  C   UNL     1      -2.087   3.171  -1.894  0.00  0.00    -0.027 C 
ATOM     13  C   UNL     1      -2.479   2.511  -2.936  0.00  0.00    -0.065 C 
ATOM     14  C   UNL     1      -2.257   1.036  -3.127  0.00  0.00    -0.008 C 
ATOM     15  C   UNL     1      -3.609   0.327  -3.085  0.00  0.00    +0.014 C 
ATOM     16  C   UNL     1      -4.711   1.270  -3.564  0.00  0.00    +0.032 C 
ATOM     17  C   UNL     1      -4.198   2.204  -4.659  0.00  0.00    +0.119 C 
ATOM     18  C   UNL     1      -3.233   3.230  -4.046  0.00  0.00    +0.062 C 
ATOM     19  C   UNL     1      -1.640   0.815  -4.509  0.00  0.00    +0.016 C 
ENDROOT
BRANCH  10  20
ATOM     20  C   UNL     1       1.048  -2.736   0.757  0.00  0.00    +0.230 C 
ATOM     21  O   UNL     1       2.006  -2.648   0.018  0.00  0.00    -0.274 OA
ATOM     22  N   UNL     1       0.581  -3.949   1.113  0.00  0.00    -0.253 N 
ATOM     23  H   UNL     1      -0.185  -4.018   1.704  0.00  0.00    +0.169 HD
BRANCH  22  24
ATOM     24  N   UNL     1       1.185  -5.079   0.642  0.00  0.00    -0.254 NA
ATOM     25  H   UNL     1       0.727  -5.907   0.992  0.00  0.00    +0.140 HD
ATOM     26  H   UNL     1       1.213  -5.081  -0.367  0.00  0.00    +0.140 HD
ENDBRANCH  22  24
ENDBRANCH  10  20
BRANCH  17  27
ATOM     27  O   UNL     1      -3.513   1.441  -5.654  0.00  0.00    -0.391 OA
ATOM     28  H   UNL     1      -3.243   1.955  -6.427  0.00  0.00    +0.210 HD
ENDBRANCH  17  27
TORSDOF 3
