REMARK  Name = ZINC20725628
REMARK  3 active torsions:
REMARK  status: ('A' for Active; 'I' for Inactive)
REMARK    1  A    between atoms: C_4  and  C_7
REMARK    2  A    between atoms: C_13  and  C_16
REMARK    3  A    between atoms: C_21  and  O_22
REMARK                            x       y       z     vdW  Elec       q    Type
REMARK                         _______ _______ _______ _____ _____    ______ ____
ROOT
ATOM      1  C   UNL     1       0.322   3.451   3.257  0.00  0.00    +0.182 A 
ATOM      2  N   UNL     1       1.488   4.022   3.426  0.00  0.00    -0.127 NA
ATOM      3  N   UNL     1       2.249   3.772   2.420  0.00  0.00    -0.120 NA
ATOM      4  C   UNL     1       1.609   3.032   1.562  0.00  0.00    +0.211 A 
ATOM      5  N   UNL     1       0.350   2.781   2.034  0.00  0.00    -0.220 N 
ATOM      6  N   UNL     1      -0.507   2.024   1.303  0.00  0.00    -0.263 N 
ATOM      7  C   UNL     1      -0.018   1.503   0.010  0.00  0.00    +0.186 C 
ATOM      8  S   UNL     1       1.684   2.191  -0.002  0.00  0.00    -0.056 S 
ATOM      9  H   UNL     1      -1.529   1.793   1.638  0.00  0.00    +0.168 HD
ENDROOT
BRANCH   1  13
ATOM     10  C   UNL     1      -2.960   3.611   5.949  0.00  0.00    +0.000 A 
ATOM     11  C   UNL     1      -1.699   3.987   6.377  0.00  0.00    +0.001 A 
ATOM     12  C   UNL     1      -0.629   3.938   5.508  0.00  0.00    +0.011 A 
ATOM     13  C   UNL     1      -0.820   3.507   4.194  0.00  0.00    +0.021 A 
ATOM     14  C   UNL     1      -2.096   3.134   3.767  0.00  0.00    +0.011 A 
ATOM     15  C   UNL     1      -3.156   3.183   4.648  0.00  0.00    +0.001 A 
ENDBRANCH   1  13
BRANCH   7  16
ATOM     16  C   UNL     1       0.002  -0.004   0.002  0.00  0.00    +0.026 A 
ATOM     17  C   UNL     1      -0.804  -0.711   0.873  0.00  0.00    +0.010 A 
ATOM     18  C   UNL     1      -0.786  -2.094   0.866  0.00  0.00    +0.001 A 
ATOM     19  C   UNL     1       0.039  -2.772  -0.013  0.00  0.00    +0.004 A 
ATOM     20  C   UNL     1       0.846  -2.070  -0.886  0.00  0.00    +0.046 A 
ATOM     21  C   UNL     1       0.826  -0.682  -0.884  0.00  0.00    +0.123 A 
BRANCH  21  22
ATOM     22  O   UNL     1       1.616   0.011  -1.746  0.00  0.00    -0.506 OA
ATOM     23  H   UNL     1       2.269  -0.528  -2.448  0.00  0.00    +0.292 HD
ENDBRANCH  21  22
ENDBRANCH   7  16
TORSDOF 3
