REMARK  Name = ZINC13040218
REMARK  7 active torsions:
REMARK  status: ('A' for Active; 'I' for Inactive)
REMARK    1  A    between atoms: C_1  and  C_2
REMARK    2  A    between atoms: C_8  and  N_10
REMARK    3  A    between atoms: C_11  and  C_13
REMARK    4  A    between atoms: C_13  and  N_14
REMARK    5  A    between atoms: N_17  and  S_20
REMARK    6  A    between atoms: S_20  and  C_23
REMARK    7  A    between atoms: C_26  and  C_29
REMARK                            x       y       z     vdW  Elec       q    Type
REMARK                         _______ _______ _______ _____ _____    ______ ____
ROOT
ATOM      1  N   UNL     1       4.723   0.698   3.753  0.00  0.00    -0.291 NA
ATOM      2  C   UNL     1       3.986   1.683   4.556  0.00  0.00    +0.102 C 
ATOM      3  C   UNL     1       4.426   1.576   6.020  0.00  0.00    +0.125 C 
ATOM      4  N   UNL     1       5.891   1.698   6.077  0.00  0.00    -0.174 NA
ATOM      5  C   UNL     1       6.696   0.837   5.197  0.00  0.00    +0.125 C 
ATOM      6  C   UNL     1       6.166   0.973   3.766  0.00  0.00    +0.102 C 
ENDROOT
BRANCH   4   7
ATOM      7  S   UNL     1       6.614   2.775   7.106  0.00  0.00    +0.061 S 
ATOM      8  O   UNL     1       7.894   3.061   6.559  0.00  0.00    -0.153 OA
ATOM      9  O   UNL     1       5.655   3.790   7.371  0.00  0.00    -0.153 OA
BRANCH   7  10
ATOM     10  C   UNL     1       6.893   1.935   8.629  0.00  0.00    +0.105 A 
ATOM     11  C   UNL     1       5.924   1.950   9.614  0.00  0.00    +0.029 A 
ATOM     12  C   UNL     1       6.143   1.291  10.809  0.00  0.00    +0.006 A 
ATOM     13  C   UNL     1       7.331   0.615  11.019  0.00  0.00    -0.044 A 
ATOM     14  C   UNL     1       8.300   0.599  10.033  0.00  0.00    +0.006 A 
ATOM     15  C   UNL     1       8.079   1.255   8.836  0.00  0.00    +0.029 A 
BRANCH  13  16
ATOM     16  C   UNL     1       7.570  -0.103  12.322  0.00  0.00    +0.019 C 
ATOM     17  C   UNL     1       8.806   0.483  13.008  0.00  0.00    +0.008 C 
ATOM     18  C   UNL     1       9.048  -0.246  14.331  0.00  0.00    +0.001 C 
ATOM     19  C   UNL     1       9.273  -1.735  14.059  0.00  0.00    +0.000 C 
ATOM     20  C   UNL     1       8.037  -2.321  13.373  0.00  0.00    +0.001 C 
ATOM     21  C   UNL     1       7.795  -1.591  12.050  0.00  0.00    +0.008 C 
ENDBRANCH  13  16
ENDBRANCH   7  10
ENDBRANCH   4   7
BRANCH   1  22
ATOM     22  C   UNL     1       4.209   0.649   2.377  0.00  0.00    +0.180 C 
BRANCH  22  24
ATOM     23  N   UNL     1       2.116  -0.004   1.231  0.00  0.00    -0.311 N 
ATOM     24  C   UNL     1       2.795   0.128   2.388  0.00  0.00    +0.227 C 
ATOM     25  O   UNL     1       2.268  -0.174   3.438  0.00  0.00    -0.274 OA
ATOM     26  H   UNL     1       2.538   0.237   0.392  0.00  0.00    +0.149 HD
BRANCH  23  33
ATOM     27  C   UNL     1      -0.019   1.526   0.010  0.00  0.00    +0.009 C 
ATOM     28  C   UNL     1       0.002  -0.004   0.002  0.00  0.00    +0.006 C 
ATOM     29  C   UNL     1       0.718  -0.497  -1.257  0.00  0.00    +0.005 C 
ATOM     30  C   UNL     1       0.739  -2.027  -1.265  0.00  0.00    +0.000 C 
ATOM     31  C   UNL     1       1.479  -2.534  -0.026  0.00  0.00    +0.002 C 
ATOM     32  C   UNL     1       0.763  -2.041   1.233  0.00  0.00    +0.022 C 
ATOM     33  C   UNL     1       0.742  -0.511   1.242  0.00  0.00    +0.076 C 
ENDBRANCH  23  33
ENDBRANCH  22  24
ENDBRANCH   1  22
TORSDOF 6
