REMARK  Name = ZINC09598338
REMARK  12 active torsions:
REMARK  status: ('A' for Active; 'I' for Inactive)
REMARK    1  A    between atoms: C_1  and  C_2
REMARK    2  A    between atoms: C_5  and  C_7
REMARK    3  A    between atoms: C_12  and  C_17
REMARK    4  A    between atoms: C_20  and  O_25
REMARK    5  A    between atoms: C_21  and  O_23
REMARK    6  A    between atoms: O_23  and  C_24
REMARK    7  A    between atoms: O_25  and  C_26
REMARK    8  A    between atoms: C_28  and  C_41
REMARK    9  A    between atoms: C_29  and  C_30
REMARK   10  A    between atoms: N_32  and  C_33
REMARK   11  A    between atoms: C_36  and  O_39
REMARK   12  A    between atoms: O_39  and  C_40
REMARK                            x       y       z     vdW  Elec       q    Type
REMARK                         _______ _______ _______ _____ _____    ______ ____
ROOT
ATOM      1  C   UNL     1       1.435   3.917  -0.406  0.00  0.00    +0.126 C 
ATOM      2  C   UNL     1       0.184   4.565  -0.942  0.00  0.00    +0.027 C 
ATOM      3  C   UNL     1      -1.014   3.952  -0.826  0.00  0.00    +0.016 C 
ATOM      4  C   UNL     1      -2.270   4.593  -1.362  0.00  0.00    +0.059 C 
ATOM      5  C   UNL     1      -2.141   6.116  -1.291  0.00  0.00    +0.032 C 
ATOM      6  C   UNL     1      -0.910   6.537  -2.101  0.00  0.00    +0.088 C 
ATOM      7  C   UNL     1       0.298   5.821  -1.562  0.00  0.00    +0.162 C 
ATOM      8  O   UNL     1       1.393   6.338  -1.664  0.00  0.00    -0.292 OA
ATOM      9  N   UNL     1      -1.112   2.728  -0.225  0.00  0.00    -0.321 N 
ATOM     10  C   UNL     1      -0.011   1.929  -0.082  0.00  0.00    +0.014 C 
ATOM     11  C   UNL     1       1.224   2.450  -0.168  0.00  0.00    +0.046 C 
ATOM     12  C   UNL     1      -0.185   0.453   0.167  0.00  0.00    +0.061 C 
ATOM     13  H   UNL     1      -2.085   2.376   0.151  0.00  0.00    +0.152 HD
ENDROOT
BRANCH   1  18
ATOM     14  C   UNL     1       4.043   3.807  -4.723  0.00  0.00    +0.086 C 
ATOM     15  C   UNL     1       3.685   4.052  -3.280  0.00  0.00    +0.102 A 
ATOM     16  C   UNL     1       4.480   4.624  -2.358  0.00  0.00    +0.044 A 
ATOM     17  C   UNL     1       3.748   4.660  -1.149  0.00  0.00    +0.046 A 
ATOM     18  C   UNL     1       2.551   4.099  -1.403  0.00  0.00    +0.117 A 
ATOM     19  O   UNL     1       2.518   3.736  -2.695  0.00  0.00    -0.464 OA
ENDBRANCH   1  18
BRANCH   5  20
ATOM     20  C   UNL     1      -3.374   6.757  -1.874  0.00  0.00    -0.040 A 
ATOM     21  C   UNL     1      -3.721   6.514  -3.189  0.00  0.00    +0.008 A 
ATOM     22  C   UNL     1      -4.852   7.099  -3.729  0.00  0.00    +0.049 A 
ATOM     23  C   UNL     1      -5.639   7.932  -2.950  0.00  0.00    +0.161 A 
ATOM     24  C   UNL     1      -5.290   8.177  -1.626  0.00  0.00    +0.162 A 
ATOM     25  C   UNL     1      -4.159   7.582  -1.090  0.00  0.00    +0.053 A 
BRANCH  24  26
ATOM     26  O   UNL     1      -6.059   8.993  -0.858  0.00  0.00    -0.491 OA
ATOM     27  C   UNL     1      -5.639   9.199   0.493  0.00  0.00    +0.277 C 
ENDBRANCH  24  26
BRANCH  23  28
ATOM     28  O   UNL     1      -6.751   8.509  -3.479  0.00  0.00    -0.491 OA
ATOM     29  C   UNL     1      -7.048   8.213  -4.845  0.00  0.00    +0.277 C 
ENDBRANCH  23  28
ENDBRANCH   5  20
BRANCH  11  30
ATOM     30  C   UNL     1       2.348   1.599  -0.031  0.00  0.00    +0.247 C 
ATOM     31  O   UNL     1       2.980   1.589   1.010  0.00  0.00    -0.270 OA
ATOM     32  N   UNL     1       2.718   0.801  -1.052  0.00  0.00    -0.282 N 
ATOM     33  H   UNL     1       2.068   0.700  -1.933  0.00  0.00    +0.155 HD
BRANCH  32  34
ATOM     34  C   UNL     1       3.929   0.102  -0.990  0.00  0.00    +0.034 A 
ATOM     35  C   UNL     1       4.508  -0.179   0.240  0.00  0.00    +0.027 A 
ATOM     36  C   UNL     1       5.700  -0.874   0.300  0.00  0.00    +0.047 A 
ATOM     37  C   UNL     1       6.325  -1.281  -0.869  0.00  0.00    +0.120 A 
ATOM     38  C   UNL     1       5.751  -0.996  -2.099  0.00  0.00    +0.047 A 
ATOM     39  C   UNL     1       4.556  -0.306  -2.160  0.00  0.00    +0.027 A 
BRANCH  37  40
ATOM     40  O   UNL     1       7.501  -1.960  -0.809  0.00  0.00    -0.495 OA
ATOM     41  C   UNL     1       8.035  -2.220   0.491  0.00  0.00    +0.277 C 
ENDBRANCH  37  40
ENDBRANCH  32  34
ENDBRANCH  11  30
TORSDOF 7
