REMARK  Name = ZINC40979357
REMARK  12 active torsions:
REMARK  status: ('A' for Active; 'I' for Inactive)
REMARK    1  A    between atoms: C_1  and  C_2
REMARK    2  A    between atoms: C_2  and  C_3
REMARK    3  A    between atoms: C_3  and  C_4
REMARK    4  A    between atoms: C_4  and  O_5
REMARK    5  A    between atoms: O_5  and  C_6
REMARK    6  A    between atoms: C_6  and  C_8
REMARK    7  A    between atoms: C_9  and  C_34
REMARK    8  A    between atoms: C_16  and  C_18
REMARK    9  A    between atoms: C_23  and  O_24
REMARK   10  A    between atoms: O_24  and  C_25
REMARK   11  A    between atoms: C_25  and  C_26
REMARK   12  A    between atoms: C_31  and  C_32
REMARK                            x       y       z     vdW  Elec       q    Type
REMARK                         _______ _______ _______ _____ _____    ______ ____
ROOT
ATOM      1  C   UNL     1       1.985  -4.382  -3.849  0.00  0.00    +0.082 C 
ATOM      2  C   UNL     1       2.334  -5.677  -3.825  0.00  0.00    +0.020 C 
ATOM      3  N   UNL     1       3.146  -6.235  -4.781  0.00  0.00    -0.287 N 
ATOM      4  C   UNL     1       3.813  -5.369  -5.637  0.00  0.00    +0.218 A 
ATOM      5  N   UNL     1       4.790  -5.596  -6.471  0.00  0.00    -0.201 NA
ATOM      6  C   UNL     1       5.125  -4.458  -7.088  0.00  0.00    +0.247 A 
ATOM      7  N   UNL     1       4.359  -3.490  -6.652  0.00  0.00    -0.156 NA
ATOM      8  N   UNL     1       3.496  -4.052  -5.712  0.00  0.00    -0.221 N 
ATOM      9  C   UNL     1       2.430  -3.431  -4.928  0.00  0.00    +0.182 C 
ATOM     10  C   UNL     1       1.819  -6.549  -2.708  0.00  0.00    +0.061 C 
ATOM     11  H   UNL     1       3.249  -7.196  -4.856  0.00  0.00    +0.155 HD
ENDROOT
BRANCH   9  12
ATOM     12  C   UNL     1       1.264  -3.107  -5.825  0.00  0.00    +0.024 A 
ATOM     13  C   UNL     1       0.617  -4.118  -6.511  0.00  0.00    +0.025 A 
ATOM     14  C   UNL     1      -0.454  -3.821  -7.334  0.00  0.00    +0.018 A 
ATOM     15  C   UNL     1      -0.880  -2.512  -7.473  0.00  0.00    +0.019 A 
ATOM     16  C   UNL     1      -0.237  -1.499  -6.790  0.00  0.00    +0.047 A 
ATOM     17  C   UNL     1       0.834  -1.795  -5.959  0.00  0.00    +0.127 A 
ATOM     18 BR   UNL     1      -1.336  -5.206  -8.272  0.00  0.00    -0.050 Br
BRANCH  17  19
ATOM     19  O   UNL     1       1.466  -0.800  -5.281  0.00  0.00    -0.487 OA
BRANCH  19  20
ATOM     20  C   UNL     1       0.970   0.527  -5.467  0.00  0.00    +0.264 C 
BRANCH  20  21
ATOM     21  C   UNL     1       1.787   1.489  -4.643  0.00  0.00    -0.007 A 
ATOM     22  C   UNL     1       2.836   1.021  -3.874  0.00  0.00    +0.007 A 
ATOM     23  C   UNL     1       3.586   1.903  -3.118  0.00  0.00    +0.000 A 
ATOM     24  C   UNL     1       3.287   3.253  -3.133  0.00  0.00    +0.000 A 
ATOM     25  C   UNL     1       2.239   3.720  -3.903  0.00  0.00    +0.004 A 
ATOM     26  C   UNL     1       1.492   2.839  -4.662  0.00  0.00    -0.044 A 
ATOM     27  C   UNL     1       0.352   3.349  -5.505  0.00  0.00    +0.044 C 
ENDBRANCH  20  21
ENDBRANCH  19  20
ENDBRANCH  17  19
ENDBRANCH   9  12
BRANCH   1  28
ATOM     28  C   UNL     1       1.156  -3.888  -2.817  0.00  0.00    +0.339 C 
ATOM     29  O   UNL     1       1.626  -3.184  -1.943  0.00  0.00    -0.245 OA
BRANCH  28  30
ATOM     30  O   UNL     1      -0.158  -4.198  -2.801  0.00  0.00    -0.461 OA
BRANCH  30  31
ATOM     31  C   UNL     1      -0.936  -3.665  -1.728  0.00  0.00    +0.232 C 
BRANCH  31  32
ATOM     32  C   UNL     1      -2.390  -4.120  -1.877  0.00  0.00    +0.041 C 
BRANCH  32  34
ATOM     33  C   UNL     1      -4.676  -4.005  -0.878  0.00  0.00    +0.004 C 
ATOM     34  C   UNL     1      -3.224  -3.549  -0.729  0.00  0.00    -0.000 C 
ENDBRANCH  32  34
ENDBRANCH  31  32
ENDBRANCH  30  31
ENDBRANCH  28  30
ENDBRANCH   1  28
TORSDOF 9
