REMARK  Name = ZINC40115371
REMARK  4 active torsions:
REMARK  status: ('A' for Active; 'I' for Inactive)
REMARK    1  A    between atoms: C_1  and  C_2
REMARK    2  A    between atoms: C_10  and  C_11
REMARK    3  A    between atoms: N_13  and  C_14
REMARK    4  A    between atoms: C_19  and  N_20
REMARK                            x       y       z     vdW  Elec       q    Type
REMARK                         _______ _______ _______ _____ _____    ______ ____
ROOT
ATOM      1  C   UNL     1       0.031  -0.384   2.483  0.00  0.00    +0.284 C 
ATOM      2  O   UNL     1       0.003   0.804   2.745  0.00  0.00    -0.266 OA
ATOM      3  N   UNL     1       0.057  -1.292   3.478  0.00  0.00    -0.277 N 
ATOM      4  H   UNL     1      -0.002  -2.239   3.273  0.00  0.00    +0.155 HD
ENDROOT
BRANCH   1  14
ATOM      5  C   UNL     1      -0.026   1.501   0.010  0.00  0.00    +0.048 C 
ATOM      6  C   UNL     1       0.011  -0.006   0.002  0.00  0.00    +0.008 A 
ATOM      7  C   UNL     1       0.035  -0.878  -1.171  0.00  0.00    +0.024 A 
ATOM      8  C   UNL     1       0.032  -0.655  -2.551  0.00  0.00    +0.013 A 
ATOM      9  C   UNL     1       0.059  -1.718  -3.408  0.00  0.00    +0.016 A 
ATOM     10  C   UNL     1       0.090  -3.017  -2.918  0.00  0.00    +0.021 A 
ATOM     11  C   UNL     1       0.094  -3.258  -1.560  0.00  0.00    +0.062 A 
ATOM     12  C   UNL     1       0.066  -2.192  -0.669  0.00  0.00    +0.137 A 
ATOM     13  O   UNL     1       0.062  -2.115   0.676  0.00  0.00    -0.450 OA
ATOM     14  C   UNL     1       0.036  -0.828   1.083  0.00  0.00    +0.194 A 
ATOM     15 BR   UNL     1       0.128  -4.472  -4.126  0.00  0.00    -0.050 Br
ENDBRANCH   1  14
BRANCH   3  16
ATOM     16  C   UNL     1       0.170  -0.871   4.807  0.00  0.00    +0.064 A 
ATOM     17  C   UNL     1       0.763   0.350   5.102  0.00  0.00    +0.025 A 
ATOM     18  C   UNL     1       0.872   0.763   6.415  0.00  0.00    +0.002 A 
ATOM     19  C   UNL     1       0.393  -0.037   7.436  0.00  0.00    +0.002 A 
ATOM     20  C   UNL     1      -0.199  -1.253   7.146  0.00  0.00    +0.034 A 
ATOM     21  C   UNL     1      -0.317  -1.670   5.834  0.00  0.00    +0.147 A 
BRANCH  21  22
ATOM     22  N   UNL     1      -0.955  -2.968   5.524  0.00  0.00    +0.058 N 
ATOM     23  O   UNL     1      -1.458  -3.622   6.408  0.00  0.00    -0.126 OA
ATOM     24  O   UNL     1      -0.975  -3.376   4.385  0.00  0.00    -0.126 OA
ENDBRANCH  21  22
ENDBRANCH   3  16
TORSDOF 3
