REMARK  Name = ZINC22407302
REMARK  3 active torsions:
REMARK  status: ('A' for Active; 'I' for Inactive)
REMARK    1  A    between atoms: C_10  and  C_12
REMARK    2  A    between atoms: C_18  and  C_20
REMARK    3  A    between atoms: C_25  and  C_28
REMARK                            x       y       z     vdW  Elec       q    Type
REMARK                         _______ _______ _______ _____ _____    ______ ____
ROOT
ATOM      1  C   UNL     1       5.128   1.112  -0.090  0.00  0.00    +0.087 C 
ATOM      2  C   UNL     1       4.448   1.699  -1.329  0.00  0.00    +0.013 C 
ATOM      3  C   UNL     1       4.840   0.882  -2.561  0.00  0.00    +0.001 C 
ATOM      4  C   UNL     1       6.358   0.928  -2.743  0.00  0.00    +0.001 C 
ATOM      5  C   UNL     1       7.038   0.341  -1.504  0.00  0.00    +0.013 C 
ATOM      6  C   UNL     1       6.646   1.158  -0.272  0.00  0.00    +0.087 C 
ENDROOT
BRANCH   1  16
ATOM      7  C   UNL     1       1.421  -4.231   0.826  0.00  0.00    +0.000 A 
ATOM      8  C   UNL     1       2.758  -4.280   0.476  0.00  0.00    +0.002 A 
ATOM      9  C   UNL     1       3.479  -3.115   0.324  0.00  0.00    +0.024 A 
ATOM     10  C   UNL     1       2.865  -1.876   0.520  0.00  0.00    +0.039 A 
ATOM     11  C   UNL     1       1.525  -1.837   0.870  0.00  0.00    -0.024 A 
ATOM     12  C   UNL     1       0.806  -3.008   1.022  0.00  0.00    +0.005 A 
ATOM     13  C   UNL     1       1.108  -0.392   1.021  0.00  0.00    +0.056 C 
ATOM     14  C   UNL     1       2.382   0.412   0.714  0.00  0.00    +0.118 C 
ATOM     15  N   UNL     1       3.408  -0.592   0.418  0.00  0.00    -0.271 N 
ATOM     16  C   UNL     1       4.687  -0.317   0.094  0.00  0.00    +0.224 C 
ATOM     17  O   UNL     1       5.484  -1.221  -0.048  0.00  0.00    -0.275 OA
ENDBRANCH   1  16
BRANCH   6  18
ATOM     18  C   UNL     1       7.316   0.580   0.948  0.00  0.00    +0.219 C 
ATOM     19  O   UNL     1       7.732  -0.559   0.929  0.00  0.00    -0.275 OA
ATOM     20  N   UNL     1       7.452   1.328   2.061  0.00  0.00    -0.301 N 
ATOM     21  C   UNL     1       7.055   2.743   2.065  0.00  0.00    +0.108 C 
ATOM     22  C   UNL     1       8.237   3.585   2.555  0.00  0.00    +0.032 C 
ATOM     23  C   UNL     1       8.704   3.059   3.915  0.00  0.00    +0.078 C 
ATOM     24  C   UNL     1       9.171   1.609   3.770  0.00  0.00    +0.032 C 
ATOM     25  C   UNL     1       7.995   0.743   3.295  0.00  0.00    +0.108 C 
BRANCH  23  26
ATOM     26  C   UNL     1       9.845   3.907   4.416  0.00  0.00    +0.214 C 
ATOM     27  O   UNL     1      10.245   4.839   3.752  0.00  0.00    -0.276 OA
ATOM     28  N   UNL     1      10.420   3.629   5.603  0.00  0.00    -0.329 N 
ATOM     29  H   UNL     1      10.100   2.883   6.134  0.00  0.00    +0.145 HD
ATOM     30  H   UNL     1      11.154   4.174   5.926  0.00  0.00    +0.145 HD
ENDBRANCH  23  26
ENDBRANCH   6  18
TORSDOF 3
