REMARK  Name = ZINC63328738
REMARK  9 active torsions:
REMARK  status: ('A' for Active; 'I' for Inactive)
REMARK    1  A    between atoms: C_1  and  O_2
REMARK    2  A    between atoms: O_2  and  C_3
REMARK    3  A    between atoms: C_9  and  C_12
REMARK    4  A    between atoms: C_12  and  C_13
REMARK    5  A    between atoms: C_13  and  N_14
REMARK    6  A    between atoms: C_15  and  C_31
REMARK    7  A    between atoms: C_25  and  C_26
REMARK    8  A    between atoms: C_36  and  O_37
REMARK    9  A    between atoms: O_37  and  C_38
REMARK                            x       y       z     vdW  Elec       q    Type
REMARK                         _______ _______ _______ _____ _____    ______ ____
ROOT
ATOM      1  N   UNL     1      -0.752  -6.781  -1.509  0.00  0.00    -0.292 N 
ATOM      2  C   UNL     1      -0.422  -8.168  -1.850  0.00  0.00    +0.121 C 
ATOM      3  C   UNL     1      -1.394  -9.047  -1.040  0.00  0.00    +0.098 C 
ATOM      4  C   UNL     1      -1.800  -8.100   0.128  0.00  0.00    +0.186 C 
ATOM      5  C   UNL     1      -1.496  -6.714  -0.394  0.00  0.00    +0.239 C 
ATOM      6  O   UNL     1      -1.873  -5.683   0.122  0.00  0.00    -0.273 OA
ATOM      7  N   UNL     1      -3.267  -8.283   0.162  0.00  0.00    -0.256 N 
ATOM      8  N   UNL     1      -3.666  -8.754  -1.093  0.00  0.00    -0.187 NA
ATOM      9  C   UNL     1      -2.680  -9.239  -1.809  0.00  0.00    +0.108 C 
ATOM     10  H   UNL     1      -3.848  -8.107   0.918  0.00  0.00    +0.169 HD
ENDROOT
BRANCH   2  11
ATOM     11  C   UNL     1       1.002  -8.474  -1.461  0.00  0.00    +0.015 A 
ATOM     12  C   UNL     1       1.622  -7.735  -0.472  0.00  0.00    +0.009 A 
ATOM     13  C   UNL     1       2.929  -8.014  -0.116  0.00  0.00    +0.001 A 
ATOM     14  C   UNL     1       3.617  -9.033  -0.748  0.00  0.00    +0.004 A 
ATOM     15  C   UNL     1       3.001  -9.775  -1.737  0.00  0.00    +0.046 A 
ATOM     16  C   UNL     1       1.688  -9.500  -2.093  0.00  0.00    +0.125 A 
BRANCH  16  17
ATOM     17  O   UNL     1       1.078 -10.232  -3.062  0.00  0.00    -0.495 OA
ATOM     18  C   UNL     1       1.846 -11.274  -3.668  0.00  0.00    +0.277 C 
ENDBRANCH  16  17
ENDBRANCH   2  11
BRANCH   9  19
ATOM     19  C   UNL     1      -2.793  -9.858  -3.134  0.00  0.00    +0.151 A 
ATOM     20  C   UNL     1      -3.946 -10.033  -3.842  0.00  0.00    +0.051 A 
ATOM     21  C   UNL     1      -3.588 -10.661  -5.050  0.00  0.00    +0.042 A 
ATOM     22  C   UNL     1      -2.252 -10.838  -5.024  0.00  0.00    +0.196 A 
ATOM     23  O   UNL     1      -1.774 -10.347  -3.868  0.00  0.00    -0.462 OA
ENDBRANCH   9  19
BRANCH   1  24
ATOM     24  C   UNL     1      -0.319  -5.616  -2.284  0.00  0.00    +0.113 C 
BRANCH  24  25
ATOM     25  C   UNL     1       1.031  -5.126  -1.758  0.00  0.00    +0.052 C 
BRANCH  25  32
ATOM     26  C   UNL     1       0.606  -0.607  -1.056  0.00  0.00    +0.121 A 
ATOM     27  C   UNL     1       1.172   0.195  -2.062  0.00  0.00    +0.047 A 
ATOM     28  C   UNL     1       1.790  -0.325  -3.144  0.00  0.00    +0.029 A 
ATOM     29  C   UNL     1       1.886  -1.780  -3.299  0.00  0.00    +0.043 A 
ATOM     30  N   UNL     1       2.419  -2.528  -4.232  0.00  0.00    -0.380 N 
ATOM     31  C   UNL     1       2.222  -3.937  -3.871  0.00  0.00    +0.144 C 
ATOM     32  C   UNL     1       1.476  -3.927  -2.555  0.00  0.00    -0.040 C 
ATOM     33  C   UNL     1       1.290  -2.626  -2.239  0.00  0.00    +0.002 A 
ATOM     34  C   UNL     1       0.646  -1.960  -1.102  0.00  0.00    +0.055 A 
ATOM     35  H   UNL     1       2.869  -2.205  -5.029  0.00  0.00    +0.160 HD
BRANCH  26  37
ATOM     36  C   UNL     1      -0.017   1.425   0.010  0.00  0.00    +0.277 C 
ATOM     37  O   UNL     1       0.002  -0.004   0.002  0.00  0.00    -0.495 OA
ENDBRANCH  26  37
ENDBRANCH  25  32
ENDBRANCH  24  25
ENDBRANCH   1  24
TORSDOF 7
