REMARK  Name = ZINC38740220
REMARK  6 active torsions:
REMARK  status: ('A' for Active; 'I' for Inactive)
REMARK    1  A    between atoms: C_1  and  C_2
REMARK    2  A    between atoms: C_9  and  C_10
REMARK    3  A    between atoms: C_9  and  C_11
REMARK    4  A    between atoms: C_13  and  N_15
REMARK    5  A    between atoms: C_16  and  C_18
REMARK    6  A    between atoms: C_24  and  C_26
REMARK                            x       y       z     vdW  Elec       q    Type
REMARK                         _______ _______ _______ _____ _____    ______ ____
ROOT
ATOM      1  C   UNL     1      -0.902  -0.565   4.286  0.00  0.00    +0.087 C 
ATOM      2  C   UNL     1      -1.577  -1.927   4.111  0.00  0.00    +0.013 C 
ATOM      3  C   UNL     1      -2.623  -2.122   5.211  0.00  0.00    +0.001 C 
ATOM      4  C   UNL     1      -1.941  -2.062   6.579  0.00  0.00    +0.001 C 
ATOM      5  C   UNL     1      -1.266  -0.700   6.754  0.00  0.00    +0.013 C 
ATOM      6  C   UNL     1      -0.221  -0.505   5.654  0.00  0.00    +0.087 C 
ENDROOT
BRANCH   6   7
ATOM      7  C   UNL     1       0.816  -1.595   5.747  0.00  0.00    +0.219 C 
ATOM      8  O   UNL     1       0.717  -2.587   5.056  0.00  0.00    -0.275 OA
ATOM      9  N   UNL     1       1.853  -1.468   6.598  0.00  0.00    -0.298 N 
ATOM     10  C   UNL     1       1.922  -0.332   7.529  0.00  0.00    +0.126 C 
ATOM     11  C   UNL     1       2.069  -0.875   8.955  0.00  0.00    +0.125 C 
ATOM     12  N   UNL     1       3.150  -1.870   8.970  0.00  0.00    -0.314 N 
ATOM     13  C   UNL     1       3.081  -3.006   8.040  0.00  0.00    +0.125 C 
ATOM     14  C   UNL     1       2.932  -2.466   6.617  0.00  0.00    +0.126 C 
ATOM     15  C   UNL     1       4.220  -1.739   9.848  0.00  0.00    +0.099 A 
ATOM     16  C   UNL     1       4.331  -0.596  10.634  0.00  0.00    +0.042 A 
ATOM     17  C   UNL     1       5.401  -0.479  11.503  0.00  0.00    +0.005 A 
ATOM     18  C   UNL     1       6.327  -1.512  11.558  0.00  0.00    +0.018 A 
ATOM     19  C   UNL     1       6.154  -2.618  10.750  0.00  0.00    +0.084 A 
ATOM     20  N   UNL     1       5.121  -2.706   9.934  0.00  0.00    -0.350 N 
ATOM     21  H   UNL     1       5.022  -3.495   9.379  0.00  0.00    +0.166 HD
ENDBRANCH   6   7
BRANCH   1  23
ATOM     22  N   UNL     1      -0.245  -0.387   1.908  0.00  0.00    -0.312 N 
ATOM     23  C   UNL     1       0.128  -0.372   3.203  0.00  0.00    +0.217 C 
ATOM     24  O   UNL     1       1.292  -0.204   3.496  0.00  0.00    -0.275 OA
ATOM     25  H   UNL     1      -1.177  -0.522   1.673  0.00  0.00    +0.149 HD
BRANCH  22  35
ATOM     26  C   UNL     1       0.090   1.884  -0.387  0.00  0.00    +0.009 C 
ATOM     27  C   UNL     1       0.073   0.353  -0.394  0.00  0.00    +0.010 C 
ATOM     28  C   UNL     1       0.681  -0.191  -1.686  0.00  0.00    -0.000 C 
ATOM     29  C   UNL     1       0.481  -1.726  -1.739  0.00  0.00    +0.008 C 
ATOM     30  C   UNL     1       1.766  -1.766  -0.885  0.00  0.00    -0.003 C 
ATOM     31  C   UNL     1       2.179  -0.497  -1.644  0.00  0.00    -0.029 C 
ATOM     32  C   UNL     1       3.066   0.471  -0.868  0.00  0.00    +0.011 C 
ATOM     33  C   UNL     1       2.777  -0.795  -3.034  0.00  0.00    +0.011 C 
ATOM     34  C   UNL     1       1.461  -1.530   0.593  0.00  0.00    +0.026 C 
ATOM     35  C   UNL     1       0.764  -0.199   0.847  0.00  0.00    +0.076 C 
ENDBRANCH  22  35
ENDBRANCH   1  23
TORSDOF 3
