REMARK  Name = ZINC31164078
REMARK  17 active torsions:
REMARK  status: ('A' for Active; 'I' for Inactive)
REMARK    1  A    between atoms: C_1  and  C_2
REMARK    2  A    between atoms: C_2  and  C_3
REMARK    3  A    between atoms: C_2  and  C_4
REMARK    4  A    between atoms: C_8  and  C_42
REMARK    5  A    between atoms: C_10  and  C_12
REMARK    6  A    between atoms: C_13  and  C_14
REMARK    7  A    between atoms: C_13  and  C_16
REMARK    8  A    between atoms: C_14  and  O_15
REMARK    9  A    between atoms: C_16  and  O_18
REMARK   10  A    between atoms: O_18  and  C_19
REMARK   11  A    between atoms: C_19  and  C_20
REMARK   12  A    between atoms: C_20  and  O_41
REMARK   13  A    between atoms: C_23  and  C_38
REMARK   14  A    between atoms: C_33  and  C_35
REMARK   15  A    between atoms: C_38  and  C_39
REMARK   16  A    between atoms: C_38  and  C_40
REMARK   17  A    between atoms: C_42  and  O_43
REMARK                            x       y       z     vdW  Elec       q    Type
REMARK                         _______ _______ _______ _____ _____    ______ ____
ROOT
ATOM      1  C   UNL     1      -4.180  -1.868   3.571  0.00  0.00    +0.268 C 
ENDROOT
BRANCH   1   2
ATOM      2  C   UNL     1      -2.945  -1.241   2.921  0.00  0.00    +0.113 C 
ATOM      3  C   UNL     1      -1.739  -2.158   3.130  0.00  0.00    +0.039 C 
ATOM      4  C   UNL     1      -0.504  -1.528   2.482  0.00  0.00    +0.007 C 
ATOM      5  C   UNL     1      -0.751  -1.360   0.981  0.00  0.00    -0.001 C 
ATOM      6  C   UNL     1      -1.966  -0.461   0.759  0.00  0.00    +0.032 C 
ATOM      7  C   UNL     1      -3.197  -1.058   1.421  0.00  0.00    +0.140 C 
ATOM      8  C   UNL     1      -4.392  -0.197   1.208  0.00  0.00    +0.314 C 
ATOM      9  O   UNL     1      -5.263  -0.608   0.477  0.00  0.00    -0.250 OA
ATOM     10  O   UNL     1      -4.561   0.993   1.769  0.00  0.00    -0.459 OA
ATOM     11  C   UNL     1      -3.897   2.142   1.206  0.00  0.00    +0.274 C 
ATOM     12  C   UNL     1      -2.411   1.971   1.295  0.00  0.00    +0.074 C 
ATOM     13  C   UNL     1      -1.681   0.939   1.131  0.00  0.00    -0.008 C 
BRANCH  12  14
ATOM     14  C   UNL     1      -1.672   3.199   1.618  0.00  0.00    +0.386 C 
ATOM     15  O   UNL     1      -0.461   3.172   1.715  0.00  0.00    -0.241 OA
ATOM     16  O   UNL     1      -2.337   4.356   1.808  0.00  0.00    -0.241 OA
ENDBRANCH  12  14
BRANCH   5  17
ATOM     17  C   UNL     1      -1.009  -2.731   0.351  0.00  0.00    -0.013 C 
ATOM     18  C   UNL     1      -1.254  -2.565  -1.150  0.00  0.00    +0.007 C 
ATOM     19  C   UNL     1       0.207  -3.632   0.574  0.00  0.00    +0.007 C 
ENDBRANCH   5  17
BRANCH   2  20
ATOM     20  O   UNL     1      -2.686   0.030   3.519  0.00  0.00    -0.384 OA
ATOM     21  H   UNL     1      -1.832   0.634   3.179  0.00  0.00    +0.210 HD
ENDBRANCH   2  20
ENDBRANCH   1   2
BRANCH   1  22
ATOM     22  O   UNL     1      -3.942  -2.042   4.993  0.00  0.00    -0.458 OA
BRANCH  22  23
ATOM     23  C   UNL     1      -4.939  -2.587   5.718  0.00  0.00    +0.337 C 
ATOM     24  O   UNL     1      -5.979  -2.907   5.177  0.00  0.00    -0.245 OA
BRANCH  23  26
ATOM     25  C   UNL     1      -5.754  -3.331   7.879  0.00  0.00    -0.006 C 
ATOM     26  C   UNL     1      -4.769  -2.793   7.163  0.00  0.00    +0.058 C 
BRANCH  25  32
ATOM     27  C   UNL     1      -5.939  -5.140   9.563  0.00  0.00    +0.003 C 
ATOM     28  C   UNL     1      -7.468  -5.231   9.477  0.00  0.00    +0.009 C 
ATOM     29  C   UNL     1      -8.065  -4.474  10.665  0.00  0.00    +0.033 C 
ATOM     30  C   UNL     1      -7.444  -3.112  10.774  0.00  0.00    -0.048 C 
ATOM     31  C   UNL     1      -6.338  -2.770  10.196  0.00  0.00    -0.018 C 
ATOM     32  C   UNL     1      -5.527  -3.685   9.326  0.00  0.00    +0.038 C 
BRANCH  27  34
ATOM     33  C   UNL     1      -3.786  -5.914   8.559  0.00  0.00    +0.007 C 
ATOM     34  C   UNL     1      -5.310  -6.034   8.492  0.00  0.00    -0.013 C 
ATOM     35  C   UNL     1      -5.718  -7.487   8.737  0.00  0.00    +0.007 C 
ENDBRANCH  27  34
BRANCH  30  36
ATOM     36  C   UNL     1      -8.153  -2.077  11.611  0.00  0.00    +0.186 C 
BRANCH  36  37
ATOM     37  O   UNL     1      -7.410  -0.857  11.590  0.00  0.00    -0.391 OA
ATOM     38  H   UNL     1      -7.774   0.018  12.147  0.00  0.00    +0.210 HD
ENDBRANCH  36  37
ENDBRANCH  30  36
ENDBRANCH  25  32
BRANCH  26  39
ATOM     39  C   UNL     1      -3.480  -2.396   7.834  0.00  0.00    +0.198 C 
BRANCH  39  40
ATOM     40  O   UNL     1      -3.184  -1.032   7.529  0.00  0.00    -0.390 OA
ATOM     41  H   UNL     1      -2.275  -0.562   7.933  0.00  0.00    +0.210 HD
ENDBRANCH  39  40
ENDBRANCH  26  39
ENDBRANCH  23  26
ENDBRANCH  22  23
ENDBRANCH   1  22
TORSDOF 13
