REMARK  Name = ZINC01641824
REMARK  8 active torsions:
REMARK  status: ('A' for Active; 'I' for Inactive)
REMARK    1  A    between atoms: C_2  and  C_3
REMARK    2  A    between atoms: C_3  and  N_4
REMARK    3  A    between atoms: N_6  and  C_29
REMARK    4  A    between atoms: C_14  and  C_15
REMARK    5  A    between atoms: C_14  and  N_69
REMARK    6  A    between atoms: C_15  and  C_16
REMARK    7  A    between atoms: C_16  and  C_17
REMARK    8  A    between atoms: C_17  and  C_22
REMARK                            x       y       z     vdW  Elec       q    Type
REMARK                         _______ _______ _______ _____ _____    ______ ____
ROOT
ATOM      1  N   UNL     1       0.464  -0.242  -0.172  0.00  0.00    -0.280 N 
ATOM      2  C   UNL     1       1.875  -0.564  -0.424  0.00  0.00    +0.217 C 
ATOM      3  N   UNL     1       2.652   0.620   0.010  0.00  0.00    -0.300 N 
ATOM      4  C   UNL     1       1.687   1.729  -0.145  0.00  0.00    +0.109 C 
ATOM      5  C   UNL     1       0.326   1.092  -0.015  0.00  0.00    +0.241 C 
ATOM      6  O   UNL     1      -0.716   1.678   0.190  0.00  0.00    -0.273 OA
ATOM      7  C   UNL     1       1.898   2.766   0.955  0.00  0.00    +0.017 C 
ATOM      8  C   UNL     1       0.920   3.926   0.751  0.00  0.00    -0.076 C 
ATOM      9  C   UNL     1       0.869   3.547  -1.643  0.00  0.00    -0.076 C 
ATOM     10  C   UNL     1       1.845   2.374  -1.519  0.00  0.00    +0.017 C 
ATOM     11  N   UNL     1       1.163   4.529  -0.577  0.00  0.00    +0.380 N 
ATOM     12  H   UNL     1       2.150   4.805  -0.641  0.00  0.00    -0.082 HD
ENDROOT
BRANCH   3  13
ATOM     13  C   UNL     1       3.770   0.812  -0.806  0.00  0.00    +0.032 A 
ATOM     14  C   UNL     1       4.108  -0.142  -1.758  0.00  0.00    +0.023 A 
ATOM     15  C   UNL     1       5.211   0.053  -2.566  0.00  0.00    +0.002 A 
ATOM     16  C   UNL     1       5.983   1.191  -2.423  0.00  0.00    +0.000 A 
ATOM     17  C   UNL     1       5.652   2.140  -1.473  0.00  0.00    +0.002 A 
ATOM     18  C   UNL     1       4.548   1.954  -0.665  0.00  0.00    +0.023 A 
ENDBRANCH   3  13
BRANCH   1  19
ATOM     19  C   UNL     1      -0.626  -1.218  -0.102  0.00  0.00    +0.136 C 
BRANCH  19  21
ATOM     20  C   UNL     1      -1.292  -2.612  -1.993  0.00  0.00    +0.005 C 
ATOM     21  C   UNL     1      -1.216  -1.411  -1.475  0.00  0.00    -0.016 C 
ENDBRANCH  19  21
ENDBRANCH   1  19
BRANCH  11  22
ATOM     22  C   UNL     1       0.318   5.728  -0.749  0.00  0.00    -0.079 C 
BRANCH  22  23
ATOM     23  C   UNL     1       0.794   6.809   0.224  0.00  0.00    -0.013 C 
BRANCH  23  24
ATOM     24  C   UNL     1      -0.056   8.069   0.043  0.00  0.00    +0.068 C 
BRANCH  24  25
ATOM     25  C   UNL     1       0.485   9.183   0.940  0.00  0.00    +0.197 C 
ATOM     26  O   UNL     1       0.416   8.773   2.312  0.00  0.00    -0.342 OA
ATOM     27  C   UNL     1      -0.444   9.707   2.996  0.00  0.00    +0.191 C 
ATOM     28  C   UNL     1      -1.279  10.321   1.845  0.00  0.00    +0.191 C 
ATOM     29  O   UNL     1      -0.310  10.369   0.770  0.00  0.00    -0.342 OA
BRANCH  25  30
ATOM     30  C   UNL     1       1.917   9.477   0.574  0.00  0.00    +0.011 A 
ATOM     31  C   UNL     1       2.944   8.798   1.202  0.00  0.00    +0.011 A 
ATOM     32  C   UNL     1       4.258   9.063   0.863  0.00  0.00    +0.039 A 
ATOM     33  C   UNL     1       4.545  10.017  -0.098  0.00  0.00    +0.123 A 
ATOM     34  C   UNL     1       3.515  10.701  -0.723  0.00  0.00    +0.039 A 
ATOM     35  C   UNL     1       2.203  10.430  -0.387  0.00  0.00    +0.011 A 
ATOM     36  F   UNL     1       5.829  10.281  -0.426  0.00  0.00    -0.205 F 
ENDBRANCH  25  30
ENDBRANCH  24  25
ENDBRANCH  23  24
ENDBRANCH  22  23
ENDBRANCH  11  22
TORSDOF 8
