REMARK  Name = ZINC39638928
REMARK  10 active torsions:
REMARK  status: ('A' for Active; 'I' for Inactive)
REMARK    1  A    between atoms: C_1  and  C_2
REMARK    2  A    between atoms: C_2  and  C_3
REMARK    3  A    between atoms: C_3  and  C_4
REMARK    4  A    between atoms: C_4  and  C_5
REMARK    5  A    between atoms: C_5  and  C_6
REMARK    6  A    between atoms: C_6  and  C_7
REMARK    7  A    between atoms: C_11  and  C_20
REMARK    8  A    between atoms: N_22  and  C_23
REMARK    9  A    between atoms: C_23  and  C_24
REMARK   10  A    between atoms: C_24  and  C_25
REMARK                            x       y       z     vdW  Elec       q    Type
REMARK                         _______ _______ _______ _____ _____    ______ ____
ROOT
ATOM      1  C   UNL     1       2.136  -4.573  -3.462  0.00  0.00    +0.216 C 
ATOM      2  O   UNL     1       2.575  -3.703  -4.184  0.00  0.00    -0.276 OA
ATOM      3  N   UNL     1       2.292  -5.869  -3.797  0.00  0.00    -0.300 N 
ATOM      4  C   UNL     1       1.825  -7.062  -3.053  0.00  0.00    +0.121 C 
ATOM      5  C   UNL     1       1.337  -8.038  -4.147  0.00  0.00    +0.100 C 
ATOM      6  C   UNL     1       2.094  -7.615  -5.416  0.00  0.00    -0.004 C 
ATOM      7  C   UNL     1       2.966  -6.423  -4.995  0.00  0.00    +0.115 C 
ATOM      8  C   UNL     1       1.111  -7.184  -6.500  0.00  0.00    -0.010 C 
ATOM      9  C   UNL     1       1.885  -6.823  -7.771  0.00  0.00    -0.082 C 
ATOM     10  N   UNL     1       2.661  -7.985  -8.220  0.00  0.00    +0.379 N 
ATOM     11  C   UNL     1       3.668  -8.335  -7.211  0.00  0.00    -0.082 C 
ATOM     12  C   UNL     1       2.969  -8.760  -5.917  0.00  0.00    -0.010 C 
ATOM     13  H   UNL     1       2.041  -8.768  -8.361  0.00  0.00    -0.086 HD
ATOM     14  H   UNL     1       3.122  -7.763  -9.090  0.00  0.00    -0.086 HD
ENDROOT
BRANCH   5  15
ATOM     15  C   UNL     1      -0.150  -7.899  -4.349  0.00  0.00    +0.218 C 
ATOM     16  O   UNL     1      -0.691  -6.830  -4.155  0.00  0.00    -0.275 OA
ATOM     17  N   UNL     1      -0.879  -8.961  -4.746  0.00  0.00    -0.315 N 
ATOM     18  H   UNL     1      -0.446  -9.815  -4.901  0.00  0.00    +0.149 HD
BRANCH  17  19
ATOM     19  C   UNL     1      -2.324  -8.825  -4.943  0.00  0.00    +0.109 C 
BRANCH  19  20
ATOM     20  C   UNL     1      -2.906 -10.168  -5.389  0.00  0.00    +0.056 C 
BRANCH  20  21
ATOM     21  C   UNL     1      -4.393 -10.028  -5.592  0.00  0.00    -0.011 A 
ATOM     22  C   UNL     1      -5.264 -10.359  -4.571  0.00  0.00    +0.006 A 
ATOM     23  C   UNL     1      -6.628 -10.231  -4.756  0.00  0.00    +0.000 A 
ATOM     24  C   UNL     1      -7.122  -9.772  -5.963  0.00  0.00    +0.003 A 
ATOM     25  C   UNL     1      -6.254  -9.441  -6.985  0.00  0.00    +0.038 A 
ATOM     26  C   UNL     1      -4.887  -9.563  -6.799  0.00  0.00    +0.127 A 
ATOM     27  F   UNL     1      -4.037  -9.235  -7.796  0.00  0.00    -0.205 F 
ENDBRANCH  20  21
ENDBRANCH  19  20
ENDBRANCH  17  19
ENDBRANCH   5  15
BRANCH   1  28
ATOM     28  C   UNL     1       1.415  -4.205  -2.191  0.00  0.00    +0.096 C 
BRANCH  28  29
ATOM     29  C   UNL     1       1.375  -2.682  -2.050  0.00  0.00    +0.009 C 
BRANCH  29  30
ATOM     30  C   UNL     1       0.644  -2.308  -0.759  0.00  0.00    +0.000 C 
BRANCH  30  31
ATOM     31  C   UNL     1       0.604  -0.785  -0.619  0.00  0.00    -0.000 C 
BRANCH  31  33
ATOM     32  C   UNL     1      -0.167   1.112   0.813  0.00  0.00    +0.004 C 
ATOM     33  C   UNL     1      -0.127  -0.411   0.672  0.00  0.00    -0.003 C 
ENDBRANCH  31  33
ENDBRANCH  30  31
ENDBRANCH  29  30
ENDBRANCH  28  29
ENDBRANCH   1  28
TORSDOF 9
