REMARK  Name = ZINC08798953
REMARK  13 active torsions:
REMARK  status: ('A' for Active; 'I' for Inactive)
REMARK    1  A    between atoms: C_1  and  C_2
REMARK    2  A    between atoms: C_2  and  C_3
REMARK    3  A    between atoms: C_6  and  O_29
REMARK    4  A    between atoms: C_7  and  S_9
REMARK    5  A    between atoms: S_9  and  N_12
REMARK    6  A    between atoms: N_12  and  C_13
REMARK    7  A    between atoms: C_13  and  C_14
REMARK    8  A    between atoms: C_14  and  C_16
REMARK    9  A    between atoms: C_14  and  N_63
REMARK   10  A    between atoms: N_25  and  C_26
REMARK   11  A    between atoms: C_27  and  N_63
REMARK   12  A    between atoms: C_28  and  N_63
REMARK   13  A    between atoms: O_29  and  C_30
REMARK                            x       y       z     vdW  Elec       q    Type
REMARK                         _______ _______ _______ _____ _____    ______ ____
ROOT
ATOM      1  C   UNL     1      -1.768   0.252   7.507  0.00  0.00    +0.095 C 
ENDROOT
BRANCH   1   2
ATOM      2  N   UNL     1      -1.213  -0.869   6.744  0.00  0.00    -0.191 NA
ATOM      3  H   UNL     1      -0.996  -1.701   7.193  0.00  0.00    +0.148 HD
BRANCH   2   4
ATOM      4  S   UNL     1      -0.955  -0.715   5.115  0.00  0.00    +0.062 S 
ATOM      5  O   UNL     1      -2.152  -0.184   4.564  0.00  0.00    -0.153 OA
ATOM      6  O   UNL     1      -0.394  -1.944   4.675  0.00  0.00    -0.153 OA
BRANCH   4  11
ATOM      7  C   UNL     1       2.490   1.133   4.190  0.00  0.00    -0.046 A 
ATOM      8  C   UNL     1       2.246   2.442   4.562  0.00  0.00    +0.007 A 
ATOM      9  C   UNL     1       1.020   2.792   5.094  0.00  0.00    +0.048 A 
ATOM     10  C   UNL     1       0.039   1.827   5.267  0.00  0.00    +0.146 A 
ATOM     11  C   UNL     1       0.289   0.513   4.899  0.00  0.00    +0.147 A 
ATOM     12  C   UNL     1       1.514   0.169   4.361  0.00  0.00    +0.036 A 
BRANCH   7  14
ATOM     13  C   UNL     1       3.775   0.902   2.081  0.00  0.00    +0.009 C 
ATOM     14  C   UNL     1       3.826   0.755   3.603  0.00  0.00    +0.032 C 
ENDBRANCH   7  14
BRANCH  10  15
ATOM     15  O   UNL     1      -1.166   2.168   5.795  0.00  0.00    -0.493 OA
ATOM     16  C   UNL     1      -1.353   3.539   6.152  0.00  0.00    +0.277 C 
ENDBRANCH  10  15
ENDBRANCH   4  11
ENDBRANCH   2   4
ENDBRANCH   1   2
BRANCH   1  17
ATOM     17  C   UNL     1      -2.327  -0.263   8.835  0.00  0.00    -0.023 C 
BRANCH  17  18
ATOM     18  C   UNL     1      -2.819   0.901   9.657  0.00  0.00    -0.059 A 
ATOM     19  C   UNL     1      -4.167   1.209   9.685  0.00  0.00    +0.004 A 
ATOM     20  C   UNL     1      -4.615   2.271  10.440  0.00  0.00    +0.023 A 
ATOM     21  C   UNL     1      -3.714   3.049  11.170  0.00  0.00    +0.033 A 
ATOM     22  C   UNL     1      -2.366   2.738  11.137  0.00  0.00    -0.026 A 
ATOM     23  C   UNL     1      -1.924   1.665  10.379  0.00  0.00    +0.007 A 
ATOM     24  C   UNL     1      -1.344   3.531  11.910  0.00  0.00    +0.038 C 
ATOM     25  C   UNL     1      -1.953   4.863  12.354  0.00  0.00    +0.024 C 
ATOM     26  C   UNL     1      -3.330   4.572  12.965  0.00  0.00    +0.105 C 
ATOM     27  N   UNL     1      -4.228   4.119  11.901  0.00  0.00    -0.333 N 
ATOM     28  C   UNL     1      -5.559   3.800  12.436  0.00  0.00    +0.129 C 
ENDBRANCH  17  18
BRANCH  17  31
ATOM     29  C   UNL     1      -4.208  -0.760   7.393  0.00  0.00    -0.096 C 
ATOM     30  C   UNL     1      -2.960  -2.563   8.422  0.00  0.00    -0.096 C 
ATOM     31  N   UNL     1      -3.459  -1.182   8.596  0.00  0.00    +0.381 N 
ATOM     32  H   UNL     1      -4.088  -1.155   9.407  0.00  0.00    -0.082 HD
ENDBRANCH  17  31
ENDBRANCH   1  17
TORSDOF 8
