REMARK  Name = ZINC25588513
REMARK  11 active torsions:
REMARK  status: ('A' for Active; 'I' for Inactive)
REMARK    1  A    between atoms: C_1  and  C_2
REMARK    2  A    between atoms: C_3  and  C_8
REMARK    3  A    between atoms: C_5  and  C_7
REMARK    4  A    between atoms: C_11  and  S_13
REMARK    5  A    between atoms: S_13  and  C_14
REMARK    6  A    between atoms: C_14  and  C_15
REMARK    7  A    between atoms: C_16  and  C_32
REMARK    8  A    between atoms: C_17  and  C_26
REMARK    9  A    between atoms: N_22  and  C_23
REMARK   10  A    between atoms: C_32  and  O_34
REMARK   11  A    between atoms: O_34  and  C_35
REMARK                            x       y       z     vdW  Elec       q    Type
REMARK                         _______ _______ _______ _____ _____    ______ ____
ROOT
ATOM      1  C   UNL     1       1.030   3.507  -0.250  0.00  0.00    +0.038 C 
ATOM      2  C   UNL     1      -0.199   3.996   0.026  0.00  0.00    +0.079 C 
ATOM      3  C   UNL     1      -1.306   3.001   0.308  0.00  0.00    +0.144 C 
ATOM      4  N   UNL     1      -0.951   1.573   0.253  0.00  0.00    -0.288 N 
ATOM      5  C   UNL     1       0.324   1.240  -0.032  0.00  0.00    +0.307 C 
ATOM      6  O   UNL     1       0.628   0.064  -0.075  0.00  0.00    -0.252 OA
ATOM      7  N   UNL     1       1.264   2.162  -0.274  0.00  0.00    -0.255 N 
ATOM      8  H   UNL     1      -1.718   0.808   0.442  0.00  0.00    +0.151 HD
ENDROOT
BRANCH   3   9
ATOM      9  C   UNL     1      -2.410   3.240  -0.690  0.00  0.00    -0.023 A 
ATOM     10  C   UNL     1      -2.301   2.739  -1.974  0.00  0.00    +0.006 A 
ATOM     11  C   UNL     1      -3.316   2.954  -2.888  0.00  0.00    +0.000 A 
ATOM     12  C   UNL     1      -4.435   3.678  -2.521  0.00  0.00    +0.000 A 
ATOM     13  C   UNL     1      -4.542   4.183  -1.239  0.00  0.00    +0.000 A 
ATOM     14  C   UNL     1      -3.529   3.964  -0.323  0.00  0.00    +0.006 A 
ENDBRANCH   3   9
BRANCH   7  15
ATOM     15  C   UNL     1       2.621   1.702  -0.580  0.00  0.00    +0.083 C 
ATOM     16  C   UNL     1       3.171   0.531   0.237  0.00  0.00    +0.025 C 
ATOM     17  C   UNL     1       3.704   1.946   0.473  0.00  0.00    +0.025 C 
ENDBRANCH   7  15
BRANCH   2  18
ATOM     18  C   UNL     1      -0.443   5.389   0.050  0.00  0.00    +0.339 C 
ATOM     19  O   UNL     1      -0.421   5.992   1.107  0.00  0.00    -0.245 OA
BRANCH  18  20
ATOM     20  O   UNL     1      -0.700   6.049  -1.099  0.00  0.00    -0.465 OA
ATOM     21  C   UNL     1      -0.937   7.455  -1.000  0.00  0.00    +0.280 C 
ENDBRANCH  18  20
ENDBRANCH   2  18
BRANCH   1  22
ATOM     22  C   UNL     1       2.160   4.461  -0.537  0.00  0.00    +0.130 C 
BRANCH  22  23
ATOM     23  S   UNL     1       3.199   4.626   0.936  0.00  0.00    -0.060 S 
BRANCH  23  27
ATOM     24  C   UNL     1       6.105   7.086   0.186  0.00  0.00    +0.258 A 
ATOM     25  N   UNL     1       5.457   7.075  -0.956  0.00  0.00    -0.106 NA
ATOM     26  N   UNL     1       4.444   6.288  -0.866  0.00  0.00    -0.101 NA
ATOM     27  C   UNL     1       4.403   5.764   0.336  0.00  0.00    +0.278 A 
ATOM     28  O   UNL     1       5.446   6.260   1.030  0.00  0.00    -0.410 OA
BRANCH  24  31
ATOM     29  C   UNL     1       7.622   8.991  -1.725  0.00  0.00    +0.067 C 
ATOM     30  C   UNL     1       8.038   8.717  -0.303  0.00  0.00    +0.058 A 
ATOM     31  C   UNL     1       7.319   7.858   0.493  0.00  0.00    +0.098 A 
ATOM     32  S   UNL     1       8.264   7.947   2.007  0.00  0.00    -0.067 S 
ATOM     33  C   UNL     1       9.475   9.061   1.451  0.00  0.00    +0.076 A 
ATOM     34  N   UNL     1       9.100   9.291   0.213  0.00  0.00    -0.249 NA
ATOM     35  C   UNL     1      10.654   9.626   2.201  0.00  0.00    +0.073 C 
ENDBRANCH  24  31
ENDBRANCH  23  27
ENDBRANCH  22  23
ENDBRANCH   1  22
TORSDOF 8
