REMARK  Name = ZINC63362341
REMARK  7 active torsions:
REMARK  status: ('A' for Active; 'I' for Inactive)
REMARK    1  A    between atoms: C_1  and  C_2
REMARK    2  A    between atoms: C_8  and  O_13
REMARK    3  A    between atoms: O_13  and  C_14
REMARK    4  A    between atoms: N_20  and  C_23
REMARK    5  A    between atoms: C_26  and  C_29
REMARK    6  A    between atoms: N_31  and  C_32
REMARK    7  A    between atoms: C_32  and  C_33
REMARK                            x       y       z     vdW  Elec       q    Type
REMARK                         _______ _______ _______ _____ _____    ______ ____
ROOT
ATOM      1  C   UNL     1      -0.027   1.514  -0.022  0.00  0.00    +0.044 C 
ATOM      2  C   UNL     1       0.005  -0.015  -0.005  0.00  0.00    +0.137 C 
ATOM      3  C   UNL     1       0.738  -0.570  -1.226  0.00  0.00    +0.139 C 
ATOM      4  C   UNL     1       1.860  -1.461  -0.714  0.00  0.00    -0.034 C 
ATOM      5  C   UNL     1       1.673  -2.654  -1.274  0.00  0.00    +0.003 A 
ATOM      6  C   UNL     1       2.454  -3.898  -1.212  0.00  0.00    +0.055 A 
ATOM      7  C   UNL     1       1.965  -4.960  -1.909  0.00  0.00    +0.121 A 
ATOM      8  C   UNL     1       0.782  -4.926  -2.662  0.00  0.00    +0.047 A 
ATOM      9  C   UNL     1      -0.012  -3.832  -2.790  0.00  0.00    +0.029 A 
ATOM     10  C   UNL     1       0.417  -2.617  -2.084  0.00  0.00    +0.043 A 
ATOM     11  N   UNL     1      -0.131  -1.422  -2.041  0.00  0.00    -0.375 N 
ATOM     12  C   UNL     1       2.892  -1.012   0.291  0.00  0.00    +0.052 C 
ATOM     13  C   UNL     1       2.123  -0.401   1.480  0.00  0.00    +0.115 C 
ATOM     14  N   UNL     1       0.690  -0.528   1.200  0.00  0.00    -0.268 N 
ATOM     15  C   UNL     1      -0.245  -1.137   1.943  0.00  0.00    +0.316 C 
ATOM     16  O   UNL     1      -0.045  -1.573   3.060  0.00  0.00    -0.252 OA
ATOM     17  N   UNL     1      -1.425  -1.211   1.312  0.00  0.00    -0.192 N 
ATOM     18  C   UNL     1      -1.387  -0.596   0.112  0.00  0.00    +0.253 C 
ATOM     19  O   UNL     1      -2.282  -0.523  -0.702  0.00  0.00    -0.272 OA
ATOM     20  H   UNL     1      -0.960  -1.149  -2.464  0.00  0.00    +0.160 HD
ENDROOT
BRANCH  17  21
ATOM     21  C   UNL     1      -2.556  -1.846   1.834  0.00  0.00    +0.045 A 
ATOM     22  C   UNL     1      -3.770  -1.764   1.160  0.00  0.00    +0.025 A 
ATOM     23  C   UNL     1      -4.886  -2.388   1.671  0.00  0.00    +0.015 A 
ATOM     24  C   UNL     1      -4.798  -3.105   2.867  0.00  0.00    +0.037 A 
ATOM     25  C   UNL     1      -3.576  -3.185   3.541  0.00  0.00    +0.015 A 
ATOM     26  C   UNL     1      -2.463  -2.563   3.022  0.00  0.00    +0.025 A 
BRANCH  24  27
ATOM     27  C   UNL     1      -5.992  -3.775   3.418  0.00  0.00    +0.244 C 
ATOM     28  O   UNL     1      -7.054  -3.704   2.831  0.00  0.00    -0.270 OA
ATOM     29  N   UNL     1      -5.905  -4.466   4.572  0.00  0.00    -0.307 N 
ATOM     30  H   UNL     1      -5.058  -4.522   5.041  0.00  0.00    +0.149 HD
BRANCH  29  31
ATOM     31  C   UNL     1      -7.090  -5.131   5.119  0.00  0.00    +0.147 C 
BRANCH  31  32
ATOM     32  C   UNL     1      -6.727  -5.827   6.405  0.00  0.00    +0.007 A 
ATOM     33  C   UNL     1      -6.767  -5.352   7.674  0.00  0.00    +0.013 A 
ATOM     34  C   UNL     1      -6.384  -6.180   8.712  0.00  0.00    +0.008 A 
ATOM     35  C   UNL     1      -5.979  -7.443   8.431  0.00  0.00    +0.045 A 
ATOM     36  S   UNL     1      -6.140  -7.495   6.654  0.00  0.00    -0.100 S 
ENDBRANCH  31  32
ENDBRANCH  29  31
ENDBRANCH  24  27
ENDBRANCH  17  21
BRANCH   7  37
ATOM     37  O   UNL     1       2.665  -6.125  -1.872  0.00  0.00    -0.495 OA
ATOM     38  C   UNL     1       2.131  -7.226  -2.611  0.00  0.00    +0.277 C 
ENDBRANCH   7  37
TORSDOF 5
