REMARK  Name = ZINC41023412
REMARK  9 active torsions:
REMARK  status: ('A' for Active; 'I' for Inactive)
REMARK    1  A    between atoms: C_1  and  C_2
REMARK    2  A    between atoms: C_2  and  S_3
REMARK    3  A    between atoms: S_3  and  C_4
REMARK    4  A    between atoms: C_9  and  C_26
REMARK    5  A    between atoms: C_11  and  C_15
REMARK    6  A    between atoms: C_12  and  C_14
REMARK    7  A    between atoms: N_17  and  C_18
REMARK    8  A    between atoms: C_22  and  C_25
REMARK    9  A    between atoms: C_23  and  C_24
REMARK                            x       y       z     vdW  Elec       q    Type
REMARK                         _______ _______ _______ _____ _____    ______ ____
ROOT
ATOM      1  C   UNL     1      -1.457  -2.394   0.235  0.00  0.00    +0.210 A 
ATOM      2  N   UNL     1      -0.298  -3.065   0.169  0.00  0.00    -0.187 NA
ATOM      3  C   UNL     1      -0.539  -4.347   0.120  0.00  0.00    +0.220 A 
ATOM      4  N   UNL     1      -1.882  -4.525   0.150  0.00  0.00    -0.217 N 
ATOM      5  N   UNL     1      -2.452  -3.255   0.232  0.00  0.00    -0.141 NA
ATOM      6  C   UNL     1      -2.525  -5.836   0.101  0.00  0.00    +0.213 C 
ATOM      7  C   UNL     1      -1.492  -6.909   0.316  0.00  0.00    +0.063 C 
ATOM      8  C   UNL     1      -0.172  -6.673   0.279  0.00  0.00    +0.018 C 
ATOM      9  N   UNL     1       0.341  -5.419   0.051  0.00  0.00    -0.287 N 
ATOM     10  C   UNL     1       0.780  -7.821   0.494  0.00  0.00    +0.061 C 
ATOM     11  H   UNL     1       1.280  -5.288  -0.150  0.00  0.00    +0.155 HD
ENDROOT
BRANCH   6  12
ATOM     12  C   UNL     1      -3.176  -6.026  -1.244  0.00  0.00    +0.136 A 
ATOM     13  C   UNL     1      -4.487  -6.236  -1.461  0.00  0.00    +0.048 A 
ATOM     14  C   UNL     1      -4.657  -6.359  -2.860  0.00  0.00    +0.057 A 
ATOM     15  C   UNL     1      -3.438  -6.217  -3.414  0.00  0.00    +0.170 A 
ATOM     16  O   UNL     1      -2.546  -6.010  -2.431  0.00  0.00    -0.451 OA
ATOM     17 BR   UNL     1      -3.049  -6.289  -5.263  0.00  0.00    -0.008 Br
ENDBRANCH   6  12
BRANCH   7  18
ATOM     18  C   UNL     1      -1.933  -8.229   0.568  0.00  0.00    +0.248 C 
ATOM     19  O   UNL     1      -2.306  -8.543   1.684  0.00  0.00    -0.270 OA
ATOM     20  N   UNL     1      -1.941  -9.139  -0.426  0.00  0.00    -0.281 N 
ATOM     21  H   UNL     1      -1.585  -8.908  -1.298  0.00  0.00    +0.155 HD
BRANCH  20  22
ATOM     22  C   UNL     1      -2.464 -10.416  -0.201  0.00  0.00    +0.037 A 
ATOM     23  C   UNL     1      -2.312 -11.022   1.040  0.00  0.00    +0.023 A 
ATOM     24  C   UNL     1      -2.830 -12.283   1.259  0.00  0.00    +0.002 A 
ATOM     25  C   UNL     1      -3.498 -12.944   0.245  0.00  0.00    +0.004 A 
ATOM     26  C   UNL     1      -3.651 -12.344  -0.992  0.00  0.00    -0.046 A 
ATOM     27  C   UNL     1      -3.141 -11.080  -1.216  0.00  0.00    -0.026 A 
ATOM     28  C   UNL     1      -3.313 -10.425  -2.562  0.00  0.00    +0.046 C 
ATOM     29  C   UNL     1      -4.380 -13.068  -2.094  0.00  0.00    +0.044 C 
ENDBRANCH  20  22
ENDBRANCH   7  18
BRANCH   1  30
ATOM     30  S   UNL     1      -1.622  -0.642   0.320  0.00  0.00    -0.085 S 
BRANCH  30  32
ATOM     31  C   UNL     1       0.091   1.490   0.354  0.00  0.00    +0.016 C 
ATOM     32  C   UNL     1       0.088  -0.038   0.285  0.00  0.00    +0.074 C 
ENDBRANCH  30  32
ENDBRANCH   1  30
TORSDOF 5
