REMARK  Name = ZINC19095717
REMARK  7 active torsions:
REMARK  status: ('A' for Active; 'I' for Inactive)
REMARK    1  A    between atoms: N_9  and  C_10
REMARK    2  A    between atoms: C_10  and  C_11
REMARK    3  A    between atoms: C_14  and  C_17
REMARK    4  A    between atoms: C_17  and  O_19
REMARK    5  A    between atoms: O_19  and  C_20
REMARK    6  A    between atoms: C_20  and  C_21
REMARK    7  A    between atoms: N_23  and  C_24
REMARK                            x       y       z     vdW  Elec       q    Type
REMARK                         _______ _______ _______ _____ _____    ______ ____
ROOT
ATOM      1  C   UNL     1       3.696  -1.665  -5.474  0.00  0.00    +0.340 C 
ATOM      2  O   UNL     1       4.740  -1.456  -6.058  0.00  0.00    -0.245 OA
ENDROOT
BRANCH   1   6
ATOM      3  C   UNL     1       3.210  -0.368  -1.460  0.00  0.00    -0.026 A 
ATOM      4  C   UNL     1       2.179  -1.034  -2.098  0.00  0.00    +0.006 A 
ATOM      5  C   UNL     1       2.328  -1.453  -3.403  0.00  0.00    +0.015 A 
ATOM      6  C   UNL     1       3.527  -1.214  -4.077  0.00  0.00    +0.059 A 
ATOM      7  C   UNL     1       4.566  -0.547  -3.425  0.00  0.00    +0.015 A 
ATOM      8  C   UNL     1       4.401  -0.128  -2.122  0.00  0.00    +0.006 A 
BRANCH   3   9
ATOM      9  C   UNL     1       3.038   0.092  -0.035  0.00  0.00    +0.181 C 
BRANCH   9  18
ATOM     10  C   UNL     1      -1.266   3.127   0.025  0.00  0.00    +0.002 A 
ATOM     11  C   UNL     1      -1.226   1.739   0.014  0.00  0.00    +0.002 A 
ATOM     12  C   UNL     1      -0.030   1.078   0.004  0.00  0.00    +0.029 A 
ATOM     13  C   UNL     1       1.159   1.800  -0.007  0.00  0.00    +0.089 A 
ATOM     14  C   UNL     1       1.126   3.205  -0.001  0.00  0.00    +0.113 A 
ATOM     15  C   UNL     1      -0.114   3.858   0.015  0.00  0.00    +0.032 A 
ATOM     16  N   UNL     1       2.400   3.644  -0.014  0.00  0.00    -0.129 NA
ATOM     17  N   UNL     1       3.215   2.650  -0.027  0.00  0.00    -0.064 NA
ATOM     18  N   UNL     1       2.488   1.450  -0.023  0.00  0.00    -0.240 N 
ENDBRANCH   9  18
ENDBRANCH   3   9
ENDBRANCH   1   6
BRANCH   1  19
ATOM     19  O   UNL     1       2.692  -2.309  -6.100  0.00  0.00    -0.452 OA
BRANCH  19  20
ATOM     20  C   UNL     1       2.928  -2.723  -7.471  0.00  0.00    +0.328 C 
BRANCH  20  21
ATOM     21  C   UNL     1       1.703  -3.422  -8.003  0.00  0.00    +0.255 C 
ATOM     22  O   UNL     1       0.727  -3.558  -7.296  0.00  0.00    -0.272 OA
ATOM     23  N   UNL     1       1.692  -3.896  -9.265  0.00  0.00    -0.281 N 
ATOM     24  H   UNL     1       2.446  -3.730  -9.852  0.00  0.00    +0.155 HD
BRANCH  23  25
ATOM     25  C   UNL     1       0.595  -4.626  -9.727  0.00  0.00    +0.062 A 
ATOM     26  C   UNL     1      -0.660  -4.312  -9.304  0.00  0.00    +0.025 A 
ATOM     27  C   UNL     1      -1.775  -5.021  -9.746  0.00  0.00    +0.004 A 
ATOM     28  C   UNL     1      -1.661  -6.054 -10.616  0.00  0.00    +0.031 A 
ATOM     29  C   UNL     1      -0.384  -6.440 -11.101  0.00  0.00    +0.102 A 
ATOM     30  C   UNL     1       0.787  -5.698 -10.646  0.00  0.00    +0.121 A 
ATOM     31  N   UNL     1       1.913  -6.162 -11.182  0.00  0.00    -0.189 NA
ATOM     32  S   UNL     1       1.496  -7.349 -12.116  0.00  0.00    +0.117 S 
ATOM     33  N   UNL     1      -0.060  -7.414 -11.949  0.00  0.00    -0.191 NA
ENDBRANCH  23  25
ENDBRANCH  20  21
ENDBRANCH  19  20
ENDBRANCH   1  19
TORSDOF 7
