REMARK  Name = ZINC20467640
REMARK  5 active torsions:
REMARK  status: ('A' for Active; 'I' for Inactive)
REMARK    1  A    between atoms: C_1  and  C_2
REMARK    2  A    between atoms: C_5  and  C_21
REMARK    3  A    between atoms: N_8  and  S_10
REMARK    4  A    between atoms: S_10  and  C_13
REMARK    5  A    between atoms: C_18  and  N_19
REMARK                            x       y       z     vdW  Elec       q    Type
REMARK                         _______ _______ _______ _____ _____    ______ ____
ROOT
ATOM      1  S   UNL     1       2.863   1.349   0.182  0.00  0.00    +0.064 S 
ATOM      2  O   UNL     1       2.877   0.413  -0.887  0.00  0.00    -0.153 OA
ATOM      3  O   UNL     1       3.864   2.345   0.336  0.00  0.00    -0.153 OA
ENDROOT
BRANCH   1   9
ATOM      4  C   UNL     1       0.788   1.528   3.390  0.00  0.00    +0.009 C 
ATOM      5  C   UNL     1       2.062   0.826   3.863  0.00  0.00    +0.002 C 
ATOM      6  C   UNL     1       1.813  -0.681   3.949  0.00  0.00    +0.009 C 
ATOM      7  C   UNL     1       1.385  -1.209   2.578  0.00  0.00    +0.002 C 
ATOM      8  C   UNL     1       2.510  -0.962   1.567  0.00  0.00    +0.112 C 
ATOM      9  N   UNL     1       2.855   0.466   1.583  0.00  0.00    -0.176 NA
ATOM     10  C   UNL     1       3.200   1.095   2.866  0.00  0.00    +0.112 C 
ATOM     11  C   UNL     1       1.104  -2.710   2.672  0.00  0.00    +0.009 C 
ENDBRANCH   1   9
BRANCH   1  12
ATOM     12  C   UNL     1       1.320   2.195   0.091  0.00  0.00    +0.146 A 
ATOM     13  C   UNL     1       1.269   3.573   0.194  0.00  0.00    +0.048 A 
ATOM     14  C   UNL     1       0.032   4.199   0.116  0.00  0.00    +0.038 A 
ATOM     15  C   UNL     1      -1.104   3.431  -0.061  0.00  0.00    +0.128 A 
ATOM     16  N   UNL     1      -1.024   2.118  -0.161  0.00  0.00    -0.238 NA
ATOM     17  C   UNL     1       0.137   1.485  -0.086  0.00  0.00    +0.143 A 
ATOM     18 BR   UNL     1      -0.099   6.080   0.251  0.00  0.00    -0.049 Br
BRANCH  17  19
ATOM     19  N   UNL     1       0.174   0.099  -0.192  0.00  0.00    -0.342 N 
ATOM     20  H   UNL     1      -0.759  -0.467  -0.332  0.00  0.00    +0.144 HD
ATOM     21  H   UNL     1       1.136  -0.431  -0.135  0.00  0.00    +0.144 HD
ENDBRANCH  17  19
ENDBRANCH   1  12
TORSDOF 3
