REMARK  Name = ZINC35642460
REMARK  17 active torsions:
REMARK  status: ('A' for Active; 'I' for Inactive)
REMARK    1  A    between atoms: C_1  and  C_2
REMARK    2  A    between atoms: C_2  and  N_3
REMARK    3  A    between atoms: C_4  and  C_26
REMARK    4  A    between atoms: C_5  and  C_21
REMARK    5  A    between atoms: C_6  and  C_11
REMARK    6  A    between atoms: C_14  and  C_17
REMARK    7  A    between atoms: C_17  and  C_18
REMARK    8  A    between atoms: C_17  and  C_19
REMARK    9  A    between atoms: C_17  and  C_20
REMARK   10  A    between atoms: C_21  and  O_23
REMARK   11  A    between atoms: O_23  and  C_24
REMARK   12  A    between atoms: C_24  and  C_25
REMARK   13  A    between atoms: C_26  and  N_27
REMARK   14  A    between atoms: C_31  and  C_34
REMARK   15  A    between atoms: C_35  and  C_37
REMARK   16  A    between atoms: C_37  and  O_38
REMARK   17  A    between atoms: O_38  and  C_39
REMARK                            x       y       z     vdW  Elec       q    Type
REMARK                         _______ _______ _______ _____ _____    ______ ____
ROOT
ATOM      1  N   UNL     1      -1.205  -0.378  -0.170  0.00  0.00    -0.258 N 
ATOM      2  C   UNL     1      -2.115  -0.373   0.848  0.00  0.00    +0.041 C 
ATOM      3  C   UNL     1      -3.404  -0.715   0.632  0.00  0.00    +0.080 C 
ATOM      4  C   UNL     1      -3.804  -1.103  -0.777  0.00  0.00    +0.144 C 
ATOM      5  N   UNL     1      -2.747  -1.075  -1.802  0.00  0.00    -0.288 N 
ATOM      6  C   UNL     1      -1.505  -0.707  -1.433  0.00  0.00    +0.307 C 
ATOM      7  O   UNL     1      -0.626  -0.677  -2.272  0.00  0.00    -0.252 OA
ATOM      8  H   UNL     1      -2.942  -1.312  -2.722  0.00  0.00    +0.151 HD
ENDROOT
BRANCH   4   9
ATOM      9  C   UNL     1      -4.904  -0.173  -1.219  0.00  0.00    -0.022 A 
ATOM     10  C   UNL     1      -4.596   1.094  -1.677  0.00  0.00    +0.006 A 
ATOM     11  C   UNL     1      -5.606   1.947  -2.083  0.00  0.00    +0.004 A 
ATOM     12  C   UNL     1      -6.923   1.532  -2.031  0.00  0.00    -0.042 A 
ATOM     13  C   UNL     1      -7.232   0.265  -1.574  0.00  0.00    +0.004 A 
ATOM     14  C   UNL     1      -6.222  -0.590  -1.172  0.00  0.00    +0.006 A 
BRANCH  12  15
ATOM     15  C   UNL     1      -8.024   2.462  -2.473  0.00  0.00    -0.013 C 
ATOM     16  C   UNL     1      -7.813   2.841  -3.940  0.00  0.00    +0.015 C 
ATOM     17  C   UNL     1      -9.376   1.763  -2.316  0.00  0.00    +0.015 C 
ATOM     18  C   UNL     1      -8.000   3.726  -1.611  0.00  0.00    +0.015 C 
ENDBRANCH  12  15
ENDBRANCH   4   9
BRANCH   1  20
ATOM     19  C   UNL     1       0.339   1.515  -0.041  0.00  0.00    +0.025 C 
ATOM     20  C   UNL     1       0.176   0.004   0.136  0.00  0.00    +0.111 C 
ENDBRANCH   1  20
BRANCH   3  21
ATOM     21  C   UNL     1      -4.347  -0.712   1.686  0.00  0.00    +0.339 C 
ATOM     22  O   UNL     1      -4.632  -1.751   2.251  0.00  0.00    -0.245 OA
BRANCH  21  23
ATOM     23  O   UNL     1      -4.932   0.444   2.065  0.00  0.00    -0.462 OA
BRANCH  23  24
ATOM     24  C   UNL     1      -5.875   0.374   3.136  0.00  0.00    +0.229 C 
ATOM     25  C   UNL     1      -6.428   1.772   3.421  0.00  0.00    +0.048 C 
ENDBRANCH  23  24
ENDBRANCH  21  23
ENDBRANCH   3  21
BRANCH   2  26
ATOM     26  C   UNL     1      -1.674   0.019   2.235  0.00  0.00    +0.136 C 
BRANCH  26  27
ATOM     27  N   UNL     1      -0.747  -0.993   2.759  0.00  0.00    -0.294 NA
ATOM     28  C   UNL     1      -1.427  -2.281   2.951  0.00  0.00    +0.104 C 
ATOM     29  C   UNL     1      -0.394  -3.350   3.323  0.00  0.00    +0.123 C 
ATOM     30  N   UNL     1       0.375  -2.873   4.482  0.00  0.00    -0.294 N 
ATOM     31  C   UNL     1       0.973  -1.531   4.416  0.00  0.00    +0.087 C 
ATOM     32  C   UNL     1      -0.114  -0.534   4.002  0.00  0.00    +0.107 C 
ATOM     33  C   UNL     1       1.531  -1.149   5.789  0.00  0.00    +0.029 C 
ATOM     34  C   UNL     1       0.529  -3.646   5.576  0.00  0.00    +0.242 C 
ATOM     35  O   UNL     1       1.094  -3.207   6.554  0.00  0.00    -0.273 OA
BRANCH  34  36
ATOM     36  C   UNL     1      -0.003  -5.056   5.582  0.00  0.00    +0.255 C 
BRANCH  36  37
ATOM     37  O   UNL     1       0.281  -5.666   6.843  0.00  0.00    -0.374 OA
ATOM     38  C   UNL     1      -0.184  -7.013   6.955  0.00  0.00    +0.194 C 
ENDBRANCH  36  37
ENDBRANCH  34  36
ENDBRANCH  26  27
ENDBRANCH   2  26
TORSDOF 10
