REMARK  Name = ZINC24719511
REMARK  8 active torsions:
REMARK  status: ('A' for Active; 'I' for Inactive)
REMARK    1  A    between atoms: C_1  and  C_2
REMARK    2  A    between atoms: C_3  and  C_28
REMARK    3  A    between atoms: N_9  and  C_12
REMARK    4  A    between atoms: C_12  and  C_13
REMARK    5  A    between atoms: C_13  and  C_15
REMARK    6  A    between atoms: C_13  and  O_27
REMARK    7  A    between atoms: C_15  and  O_16
REMARK    8  A    between atoms: O_16  and  C_17
REMARK                            x       y       z     vdW  Elec       q    Type
REMARK                         _______ _______ _______ _____ _____    ______ ____
ROOT
ATOM      1  C   UNL     1      -1.956   5.228   8.486  0.00  0.00    +0.052 C 
ATOM      2  C   UNL     1      -1.923   4.128   7.457  0.00  0.00    -0.003 A 
ATOM      3  C   UNL     1      -1.091   3.997   6.395  0.00  0.00    +0.007 A 
ATOM      4  C   UNL     1      -1.245   2.838   5.524  0.00  0.00    +0.080 A 
ATOM      5  C   UNL     1      -2.271   1.951   5.888  0.00  0.00    +0.116 A 
ATOM      6  S   UNL     1      -2.968   2.688   7.343  0.00  0.00    -0.073 S 
ATOM      7  N   UNL     1      -2.530   0.849   5.188  0.00  0.00    -0.230 NA
ATOM      8  C   UNL     1      -1.833   0.548   4.125  0.00  0.00    +0.203 A 
ATOM      9  N   UNL     1      -0.821   1.347   3.700  0.00  0.00    -0.296 N 
ATOM     10  C   UNL     1      -0.497   2.475   4.358  0.00  0.00    +0.263 A 
ATOM     11  O   UNL     1       0.418   3.180   3.966  0.00  0.00    -0.267 OA
ENDROOT
BRANCH   3  12
ATOM     12  C   UNL     1      -0.046   5.012   6.124  0.00  0.00    -0.016 A 
ATOM     13  C   UNL     1       1.303   4.669   6.213  0.00  0.00    +0.008 A 
ATOM     14  C   UNL     1       2.271   5.617   5.955  0.00  0.00    +0.001 A 
ATOM     15  C   UNL     1       1.907   6.908   5.619  0.00  0.00    +0.000 A 
ATOM     16  C   UNL     1       0.571   7.256   5.534  0.00  0.00    +0.001 A 
ATOM     17  C   UNL     1      -0.407   6.315   5.785  0.00  0.00    +0.008 A 
ENDBRANCH   3  12
BRANCH   9  18
ATOM     18  C   UNL     1      -0.064   0.971   2.503  0.00  0.00    +0.161 C 
BRANCH  18  19
ATOM     19  C   UNL     1      -0.729   1.579   1.267  0.00  0.00    +0.172 C 
BRANCH  19  20
ATOM     20  O   UNL     1      -0.647   3.004   1.334  0.00  0.00    -0.387 OA
ATOM     21  H   UNL     1      -1.074   3.618   0.527  0.00  0.00    +0.210 HD
ENDBRANCH  19  20
BRANCH  19  22
ATOM     22  C   UNL     1      -0.013   1.086   0.008  0.00  0.00    +0.262 C 
BRANCH  22  23
ATOM     23  O   UNL     1      -0.704   1.559  -1.150  0.00  0.00    -0.489 OA
BRANCH  23  24
ATOM     24  C   UNL     1      -0.194   1.208  -2.359  0.00  0.00    +0.121 A 
ATOM     25  C   UNL     1       0.961   0.421  -2.419  0.00  0.00    +0.046 A 
ATOM     26  C   UNL     1       1.491   0.048  -3.615  0.00  0.00    +0.012 A 
ATOM     27  C   UNL     1       0.880   0.467  -4.809  0.00  0.00    -0.018 A 
ATOM     28  C   UNL     1       1.405   0.105  -6.062  0.00  0.00    +0.008 A 
ATOM     29  C   UNL     1       0.788   0.528  -7.199  0.00  0.00    +0.001 A 
ATOM     30  C   UNL     1      -0.359   1.317  -7.142  0.00  0.00    +0.001 A 
ATOM     31  C   UNL     1      -0.897   1.687  -5.947  0.00  0.00    +0.008 A 
ATOM     32  C   UNL     1      -0.287   1.269  -4.751  0.00  0.00    -0.014 A 
ATOM     33  C   UNL     1      -0.813   1.631  -3.500  0.00  0.00    +0.054 A 
ENDBRANCH  23  24
ENDBRANCH  22  23
ENDBRANCH  19  22
ENDBRANCH  18  19
ENDBRANCH   9  18
TORSDOF 7
