REMARK  Name = ZINC64653777
REMARK  10 active torsions:
REMARK  status: ('A' for Active; 'I' for Inactive)
REMARK    1  A    between atoms: C_1  and  C_2
REMARK    2  A    between atoms: C_2  and  C_3
REMARK    3  A    between atoms: C_3  and  N_4
REMARK    4  A    between atoms: C_9  and  C_19
REMARK    5  A    between atoms: C_19  and  C_20
REMARK    6  A    between atoms: C_20  and  C_21
REMARK    7  A    between atoms: C_21  and  C_22
REMARK    8  A    between atoms: N_24  and  C_25
REMARK    9  A    between atoms: C_25  and  C_26
REMARK   10  A    between atoms: C_26  and  C_27
REMARK                            x       y       z     vdW  Elec       q    Type
REMARK                         _______ _______ _______ _____ _____    ______ ____
ROOT
ATOM      1  C   UNL     1       1.576  -4.418   3.662  0.00  0.00    +0.013 C 
ENDROOT
BRANCH   1   2
ATOM      2  C   UNL     1       0.928  -4.402   2.276  0.00  0.00    +0.049 C 
BRANCH   2   7
ATOM      3  N   UNL     1       0.738  -1.962  -1.265  0.00  0.00    -0.258 N 
ATOM      4  C   UNL     1       1.849  -2.671  -0.640  0.00  0.00    +0.310 C 
ATOM      5  N   UNL     1       2.429  -1.963   0.495  0.00  0.00    -0.147 NA
ATOM      6  N   UNL     1       2.517  -2.693   1.489  0.00  0.00    -0.166 NA
ATOM      7  C   UNL     1       1.979  -4.037   1.226  0.00  0.00    +0.217 C 
ATOM      8  N   UNL     1       1.367  -3.951  -0.076  0.00  0.00    -0.267 N 
ATOM      9  C   UNL     1       0.448  -4.742  -0.755  0.00  0.00    +0.054 A 
ATOM     10  C   UNL     1       0.190  -6.091  -0.716  0.00  0.00    +0.031 A 
ATOM     11  C   UNL     1      -0.789  -6.607  -1.502  0.00  0.00    +0.048 A 
ATOM     12  S   UNL     1      -1.406  -5.280  -2.334  0.00  0.00    -0.090 S 
ATOM     13  C   UNL     1      -0.376  -4.024  -1.654  0.00  0.00    +0.095 A 
ATOM     14  C   UNL     1      -0.283  -2.645  -1.851  0.00  0.00    +0.258 C 
ATOM     15  O   UNL     1      -1.102  -2.063  -2.539  0.00  0.00    -0.269 OA
BRANCH   3  16
ATOM     16  C   UNL     1       0.718  -0.497  -1.257  0.00  0.00    +0.111 C 
BRANCH  16  18
ATOM     17  C   UNL     1      -0.019   1.526   0.010  0.00  0.00    +0.005 C 
ATOM     18  C   UNL     1       0.002  -0.004   0.002  0.00  0.00    +0.016 C 
ENDBRANCH  16  18
ENDBRANCH   3  16
ENDBRANCH   2   7
ENDBRANCH   1   2
BRANCH   1  19
ATOM     19  C   UNL     1       0.525  -4.782   4.713  0.00  0.00    +0.096 C 
BRANCH  19  20
ATOM     20  C   UNL     1       1.164  -4.798   6.078  0.00  0.00    +0.213 C 
ATOM     21  O   UNL     1       2.344  -4.543   6.198  0.00  0.00    -0.276 OA
ATOM     22  N   UNL     1       0.424  -5.096   7.164  0.00  0.00    -0.315 N 
ATOM     23  H   UNL     1      -0.519  -5.300   7.068  0.00  0.00    +0.149 HD
BRANCH  22  24
ATOM     24  C   UNL     1       1.045  -5.111   8.491  0.00  0.00    +0.108 C 
BRANCH  24  25
ATOM     25  C   UNL     1      -0.006  -5.476   9.542  0.00  0.00    +0.052 C 
BRANCH  25  26
ATOM     26  C   UNL     1       0.633  -5.491  10.907  0.00  0.00    -0.040 C 
ATOM     27  C   UNL     1       0.652  -4.482  11.807  0.00  0.00    -0.001 A 
ATOM     28  C   UNL     1       0.105  -3.120  11.786  0.00  0.00    +0.010 A 
ATOM     29  C   UNL     1       0.290  -2.323  12.863  0.00  0.00    +0.001 A 
ATOM     30  C   UNL     1       0.988  -2.763  13.995  0.00  0.00    +0.002 A 
ATOM     31  C   UNL     1       1.519  -4.001  14.089  0.00  0.00    +0.026 A 
ATOM     32  C   UNL     1       1.385  -4.923  13.015  0.00  0.00    +0.043 A 
ATOM     33  N   UNL     1       1.803  -6.157  12.867  0.00  0.00    -0.380 N 
ATOM     34  C   UNL     1       1.377  -6.641  11.549  0.00  0.00    +0.144 C 
ATOM     35  H   UNL     1       2.307  -6.666  13.521  0.00  0.00    +0.160 HD
ENDBRANCH  25  26
ENDBRANCH  24  25
ENDBRANCH  22  24
ENDBRANCH  19  20
ENDBRANCH   1  19
TORSDOF 9
