REMARK  Name = ZINC08812519
REMARK  16 active torsions:
REMARK  status: ('A' for Active; 'I' for Inactive)
REMARK    1  A    between atoms: C_1  and  C_2
REMARK    2  A    between atoms: C_2  and  N_3
REMARK    3  A    between atoms: N_3  and  C_4
REMARK    4  A    between atoms: N_3  and  S_6
REMARK    5  A    between atoms: C_4  and  C_5
REMARK    6  A    between atoms: S_6  and  C_9
REMARK    7  A    between atoms: N_15  and  C_20
REMARK    8  A    between atoms: C_20  and  C_21
REMARK    9  A    between atoms: N_23  and  C_24
REMARK   10  A    between atoms: C_24  and  C_25
REMARK   11  A    between atoms: C_25  and  C_26
REMARK   12  A    between atoms: C_26  and  N_27
REMARK   13  A    between atoms: N_27  and  C_28
REMARK   14  A    between atoms: N_27  and  C_30
REMARK   15  A    between atoms: C_28  and  C_29
REMARK   16  A    between atoms: C_34  and  C_36
REMARK                            x       y       z     vdW  Elec       q    Type
REMARK                         _______ _______ _______ _____ _____    ______ ____
ROOT
ATOM      1  C   UNL     1       4.769  12.358  -4.031  0.00  0.00    +0.107 A 
ATOM      2  C   UNL     1       5.814  13.151  -4.470  0.00  0.00    +0.030 A 
ATOM      3  C   UNL     1       6.982  12.566  -4.923  0.00  0.00    +0.018 A 
ATOM      4  C   UNL     1       7.101  11.186  -4.935  0.00  0.00    +0.030 A 
ATOM      5  C   UNL     1       6.051  10.379  -4.500  0.00  0.00    +0.052 A 
ATOM      6  C   UNL     1       4.883  10.982  -4.042  0.00  0.00    +0.053 A 
ATOM      7  N   UNL     1       6.147   8.990  -4.502  0.00  0.00    -0.261 N 
ATOM      8  C   UNL     1       7.270   8.278  -4.517  0.00  0.00    +0.230 C 
ATOM      9  O   UNL     1       7.181   7.068  -4.515  0.00  0.00    -0.274 OA
ATOM     10  C   UNL     1       8.644   8.889  -4.535  0.00  0.00    +0.170 C 
ATOM     11  S   UNL     1       8.588  10.426  -5.506  0.00  0.00    -0.114 S 
ENDROOT
BRANCH   1  12
ATOM     12  S   UNL     1       3.284  13.109  -3.453  0.00  0.00    +0.061 S 
ATOM     13  O   UNL     1       2.664  12.168  -2.586  0.00  0.00    -0.153 OA
ATOM     14  O   UNL     1       3.629  14.421  -3.030  0.00  0.00    -0.153 OA
BRANCH  12  15
ATOM     15  N   UNL     1       2.281  13.281  -4.760  0.00  0.00    -0.177 NA
BRANCH  15  17
ATOM     16  C   UNL     1      -0.020  12.499  -4.487  0.00  0.00    +0.022 C 
ATOM     17  C   UNL     1       1.346  12.210  -5.111  0.00  0.00    +0.106 C 
ENDBRANCH  15  17
BRANCH  15  18
ATOM     18  C   UNL     1       2.330  14.505  -5.564  0.00  0.00    +0.106 C 
ATOM     19  C   UNL     1       3.255  14.290  -6.763  0.00  0.00    +0.022 C 
ENDBRANCH  15  18
ENDBRANCH  12  15
ENDBRANCH   1  12
BRANCH   7  20
ATOM     20  C   UNL     1       4.888   8.240  -4.494  0.00  0.00    +0.209 C 
BRANCH  20  21
ATOM     21  C   UNL     1       4.470   7.976  -3.070  0.00  0.00    +0.231 C 
ATOM     22  O   UNL     1       5.156   8.375  -2.153  0.00  0.00    -0.274 OA
ATOM     23  N   UNL     1       3.334   7.297  -2.816  0.00  0.00    -0.314 N 
ATOM     24  H   UNL     1       2.785   6.978  -3.550  0.00  0.00    +0.149 HD
BRANCH  23  25
ATOM     25  C   UNL     1       2.928   7.040  -1.432  0.00  0.00    +0.106 C 
BRANCH  25  26
ATOM     26  C   UNL     1       1.614   6.257  -1.423  0.00  0.00    +0.037 C 
BRANCH  26  27
ATOM     27  C   UNL     1       1.190   5.989   0.022  0.00  0.00    +0.106 C 
BRANCH  27  28
ATOM     28  N   UNL     1      -0.069   5.239   0.030  0.00  0.00    -0.330 N 
BRANCH  28  29
ATOM     29  C   UNL     1      -0.050   3.842   0.023  0.00  0.00    +0.030 A 
ATOM     30  C   UNL     1       1.161   3.163   0.008  0.00  0.00    +0.023 A 
ATOM     31  C   UNL     1       1.177   1.782   0.000  0.00  0.00    +0.002 A 
ATOM     32  C   UNL     1      -0.013   1.076   0.008  0.00  0.00    +0.003 A 
ATOM     33  C   UNL     1      -1.220   1.749   0.017  0.00  0.00    -0.049 A 
ATOM     34  C   UNL     1      -1.242   3.130   0.031  0.00  0.00    +0.026 A 
ATOM     35  C   UNL     1      -2.513   0.976   0.019  0.00  0.00    +0.044 C 
ENDBRANCH  28  29
BRANCH  28  36
ATOM     36  C   UNL     1      -1.347   5.954   0.046  0.00  0.00    +0.102 C 
ATOM     37  C   UNL     1      -1.778   6.196   1.494  0.00  0.00    +0.024 C 
ENDBRANCH  28  36
ENDBRANCH  27  28
ENDBRANCH  26  27
ENDBRANCH  25  26
ENDBRANCH  23  25
ENDBRANCH  20  21
ENDBRANCH   7  20
TORSDOF 12
