REMARK  Name = ZINC12735578
REMARK  5 active torsions:
REMARK  status: ('A' for Active; 'I' for Inactive)
REMARK    1  A    between atoms: C_1  and  C_2
REMARK    2  A    between atoms: C_12  and  C_14
REMARK    3  A    between atoms: C_17  and  S_20
REMARK    4  A    between atoms: S_20  and  N_23
REMARK    5  A    between atoms: N_23  and  C_24
REMARK                            x       y       z     vdW  Elec       q    Type
REMARK                         _______ _______ _______ _____ _____    ______ ____
ROOT
ATOM      1  C   UNL     1      -1.199   3.606   0.139  0.00  0.00    +0.037 A 
ATOM      2  C   UNL     1       0.002   4.317   0.143  0.00  0.00    +0.015 A 
ATOM      3  C   UNL     1      -0.014   5.692   0.251  0.00  0.00    +0.029 A 
ATOM      4  C   UNL     1      -1.217   6.366   0.364  0.00  0.00    +0.105 A 
ATOM      5  C   UNL     1      -2.411   5.667   0.365  0.00  0.00    +0.029 A 
ATOM      6  C   UNL     1      -2.409   4.292   0.254  0.00  0.00    +0.015 A 
ENDROOT
BRANCH   1  17
ATOM      7  C   UNL     1       1.872   2.287  -1.444  0.00  0.00    +0.033 C 
ATOM      8  C   UNL     1       0.394   2.342  -1.834  0.00  0.00    +0.104 C 
ATOM      9  C   UNL     1       0.205   1.752  -3.230  0.00  0.00    -0.017 A 
ATOM     10  C   UNL     1       0.597   2.409  -4.396  0.00  0.00    +0.013 A 
ATOM     11  C   UNL     1       0.402   1.824  -5.600  0.00  0.00    +0.046 A 
ATOM     12  S   UNL     1      -0.365   0.279  -5.139  0.00  0.00    -0.101 S 
ATOM     13  C   UNL     1      -0.369   0.528  -3.383  0.00  0.00    -0.004 A 
ATOM     14  C   UNL     1      -0.883  -0.384  -2.317  0.00  0.00    +0.062 C 
ATOM     15  C   UNL     1      -0.313   0.069  -0.964  0.00  0.00    +0.114 C 
ATOM     16  N   UNL     1      -0.399   1.536  -0.895  0.00  0.00    -0.290 N 
ATOM     17  C   UNL     1      -1.189   2.132   0.019  0.00  0.00    +0.247 C 
ATOM     18  O   UNL     1      -1.893   1.459   0.746  0.00  0.00    -0.270 OA
ENDBRANCH   1  17
BRANCH   4  19
ATOM     19  S   UNL     1      -1.229   8.122   0.509  0.00  0.00    +0.059 S 
ATOM     20  O   UNL     1      -0.015   8.585  -0.066  0.00  0.00    -0.153 OA
ATOM     21  O   UNL     1      -2.502   8.558   0.053  0.00  0.00    -0.153 OA
BRANCH  19  22
ATOM     22  N   UNL     1      -1.155   8.481   2.124  0.00  0.00    -0.187 NA
ATOM     23  H   UNL     1      -1.902   8.925   2.557  0.00  0.00    +0.148 HD
BRANCH  22  24
ATOM     24  C   UNL     1       0.037   8.129   2.899  0.00  0.00    +0.077 C 
ATOM     25  C   UNL     1      -0.165   7.728   4.362  0.00  0.00    +0.022 C 
ATOM     26  C   UNL     1       0.459   9.082   4.018  0.00  0.00    +0.022 C 
ENDBRANCH  22  24
ENDBRANCH  19  22
ENDBRANCH   4  19
TORSDOF 4
