REMARK  Name = ZINC21080105
REMARK  8 active torsions:
REMARK  status: ('A' for Active; 'I' for Inactive)
REMARK    1  A    between atoms: C_10  and  N_11
REMARK    2  A    between atoms: C_12  and  C_14
REMARK    3  A    between atoms: C_14  and  C_15
REMARK    4  A    between atoms: C_15  and  S_16
REMARK    5  A    between atoms: S_16  and  C_17
REMARK    6  A    between atoms: N_22  and  N_23
REMARK    7  A    between atoms: C_24  and  C_25
REMARK    8  A    between atoms: C_30  and  O_31
REMARK                            x       y       z     vdW  Elec       q    Type
REMARK                         _______ _______ _______ _____ _____    ______ ____
ROOT
ATOM      1  C   UNL     1       1.308  -0.407   0.022  0.00  0.00    +0.210 A 
ATOM      2  N   UNL     1       0.004  -0.002   0.046  0.00  0.00    -0.186 NA
ATOM      3  C   UNL     1      -0.014   1.365   0.052  0.00  0.00    +0.232 A 
ATOM      4  N   UNL     1       1.227   1.786   0.034  0.00  0.00    -0.245 N 
ATOM      5  N   UNL     1       2.065   0.664   0.014  0.00  0.00    -0.144 NA
ATOM      6  N   UNL     1      -1.147   2.165   0.070  0.00  0.00    -0.205 N 
ATOM      7  H   UNL     1      -2.146   1.704   0.080  0.00  0.00    +0.177 HD
ATOM      8  H   UNL     1       1.441   2.865   0.035  0.00  0.00    +0.192 HD
ENDROOT
BRANCH   6   9
ATOM      9  N   UNL     1      -1.019   3.560   0.075  0.00  0.00    -0.187 NA
ATOM     10  C   UNL     1      -2.080   4.310   0.091  0.00  0.00    +0.142 C 
BRANCH  10  11
ATOM     11  C   UNL     1      -1.946   5.777   0.096  0.00  0.00    +0.037 A 
ATOM     12  C   UNL     1      -3.084   6.587   0.114  0.00  0.00    +0.028 A 
ATOM     13  C   UNL     1      -2.950   7.960   0.119  0.00  0.00    +0.019 A 
ATOM     14  C   UNL     1      -1.692   8.539   0.106  0.00  0.00    +0.019 A 
ATOM     15  C   UNL     1      -0.559   7.748   0.089  0.00  0.00    +0.047 A 
ATOM     16  C   UNL     1      -0.675   6.368   0.089  0.00  0.00    +0.126 A 
ATOM     17 BR   UNL     1      -4.492   9.056   0.143  0.00  0.00    -0.050 Br
BRANCH  16  18
ATOM     18  O   UNL     1       0.439   5.590   0.078  0.00  0.00    -0.506 OA
ATOM     19  H   UNL     1       1.435   6.056   0.073  0.00  0.00    +0.292 HD
ENDBRANCH  16  18
ENDBRANCH  10  11
ENDBRANCH   6   9
BRANCH   1  20
ATOM     20  S   UNL     1       1.875  -2.076   0.004  0.00  0.00    -0.084 S 
BRANCH  20  21
ATOM     21  C   UNL     1       3.682  -1.925  -0.025  0.00  0.00    +0.086 C 
BRANCH  21  22
ATOM     22  C   UNL     1       4.310  -3.320  -0.042  0.00  0.00    +0.107 C 
BRANCH  22  24
ATOM     23  N   UNL     1       6.580  -4.303  -0.085  0.00  0.00    -0.285 N 
ATOM     24  C   UNL     1       5.812  -3.195  -0.066  0.00  0.00    +0.218 C 
ATOM     25  O   UNL     1       6.329  -2.098  -0.070  0.00  0.00    -0.275 OA
ATOM     26  H   UNL     1       6.114  -5.296  -0.007  0.00  0.00    +0.155 HD
BRANCH  23  36
ATOM     27  C   UNL     1      10.191  -7.029  -2.322  0.00  0.00    +0.001 A 
ATOM     28  C   UNL     1       8.808  -7.162  -2.216  0.00  0.00    +0.001 A 
ATOM     29  C   UNL     1       8.066  -6.248  -1.531  0.00  0.00    +0.010 A 
ATOM     30  C   UNL     1       8.702  -5.158  -0.916  0.00  0.00    +0.003 A 
ATOM     31  C   UNL     1      10.108  -5.019  -1.027  0.00  0.00    -0.016 A 
ATOM     32  C   UNL     1      10.840  -5.982  -1.743  0.00  0.00    +0.008 A 
ATOM     33  C   UNL     1      10.745  -3.926  -0.416  0.00  0.00    +0.008 A 
ATOM     34  C   UNL     1      10.011  -3.008   0.271  0.00  0.00    +0.002 A 
ATOM     35  C   UNL     1       8.629  -3.131   0.382  0.00  0.00    +0.024 A 
ATOM     36  C   UNL     1       7.966  -4.188  -0.203  0.00  0.00    +0.041 A 
ENDBRANCH  23  36
ENDBRANCH  22  24
ENDBRANCH  21  22
ENDBRANCH  20  21
ENDBRANCH   1  20
TORSDOF 8
