REMARK  Name = ZINC34829524
REMARK  18 active torsions:
REMARK  status: ('A' for Active; 'I' for Inactive)
REMARK    1  A    between atoms: C_1  and  C_2
REMARK    2  A    between atoms: C_2  and  C_3
REMARK    3  A    between atoms: C_3  and  C_4
REMARK    4  A    between atoms: C_4  and  C_5
REMARK    5  A    between atoms: C_5  and  C_7
REMARK    6  A    between atoms: C_5  and  C_9
REMARK    7  A    between atoms: C_7  and  C_8
REMARK    8  A    between atoms: N_11  and  C_12
REMARK    9  A    between atoms: N_11  and  C_33
REMARK   10  A    between atoms: C_12  and  C_13
REMARK   11  A    between atoms: C_14  and  C_32
REMARK   12  A    between atoms: N_16  and  C_26
REMARK   13  A    between atoms: C_17  and  N_18
REMARK   14  A    between atoms: N_21  and  C_24
REMARK   15  A    between atoms: C_24  and  C_25
REMARK   16  A    between atoms: C_33  and  C_34
REMARK   17  A    between atoms: C_34  and  C_35
REMARK   18  A    between atoms: C_34  and  C_36
REMARK                            x       y       z     vdW  Elec       q    Type
REMARK                         _______ _______ _______ _____ _____    ______ ____
ROOT
ATOM      1  C   UNL     1       3.741  -5.888   0.909  0.00  0.00    +0.032 A 
ATOM      2  C   UNL     1       3.354  -4.995  -0.094  0.00  0.00    +0.067 A 
ATOM      3  N   UNL     1       4.424  -4.607  -0.740  0.00  0.00    -0.170 NA
ATOM      4  N   UNL     1       5.538  -5.240  -0.172  0.00  0.00    -0.218 N 
ATOM      5  C   UNL     1       5.095  -6.022   0.849  0.00  0.00    +0.130 A 
ATOM      6  C   UNL     1       1.943  -4.553  -0.383  0.00  0.00    +0.068 C 
ENDROOT
BRANCH   5   7
ATOM      7  N   UNL     1       5.881  -6.817   1.678  0.00  0.00    -0.318 N 
ATOM      8  C   UNL     1       6.190  -8.210   1.320  0.00  0.00    +0.088 C 
ATOM      9  C   UNL     1       7.703  -8.418   1.437  0.00  0.00    -0.060 C 
ATOM     10  N   UNL     1       8.148  -8.025   2.780  0.00  0.00    +0.382 N 
ATOM     11  C   UNL     1       7.930  -6.587   2.978  0.00  0.00    -0.060 C 
ATOM     12  C   UNL     1       6.432  -6.286   2.935  0.00  0.00    +0.088 C 
ATOM     13  H   UNL     1       7.624  -8.542   3.471  0.00  0.00    -0.082 HD
BRANCH  10  14
ATOM     14  C   UNL     1       9.578  -8.327   2.929  0.00  0.00    -0.082 C 
ATOM     15  C   UNL     1      10.014  -8.035   4.366  0.00  0.00    -0.017 C 
ENDBRANCH  10  14
ENDBRANCH   5   7
BRANCH   4  16
ATOM     16  C   UNL     1       6.870  -5.089  -0.580  0.00  0.00    +0.067 A 
ATOM     17  C   UNL     1       7.850  -4.770   0.350  0.00  0.00    +0.028 A 
ATOM     18  C   UNL     1       9.163  -4.623  -0.054  0.00  0.00    +0.002 A 
ATOM     19  C   UNL     1       9.501  -4.792  -1.384  0.00  0.00    +0.000 A 
ATOM     20  C   UNL     1       8.527  -5.109  -2.313  0.00  0.00    +0.002 A 
ATOM     21  C   UNL     1       7.214  -5.264  -1.914  0.00  0.00    +0.028 A 
ENDBRANCH   4  16
BRANCH   1  22
ATOM     22  C   UNL     1       2.824  -6.574   1.888  0.00  0.00    +0.148 C 
BRANCH  22  25
ATOM     23  C   UNL     1       1.459  -4.859   2.950  0.00  0.00    +0.219 C 
ATOM     24  O   UNL     1       0.711  -4.904   1.997  0.00  0.00    -0.275 OA
ATOM     25  N   UNL     1       2.534  -5.670   3.003  0.00  0.00    -0.297 N 
BRANCH  23  26
ATOM     26  C   UNL     1       1.186  -3.895   4.077  0.00  0.00    +0.075 C 
BRANCH  26  27
ATOM     27  C   UNL     1       2.020  -2.628   3.877  0.00  0.00    +0.009 C 
ATOM     28  C   UNL     1       1.557  -1.908   2.609  0.00  0.00    +0.004 C 
ENDBRANCH  26  27
BRANCH  26  29
ATOM     29  C   UNL     1      -0.300  -3.531   4.088  0.00  0.00    +0.013 C 
BRANCH  29  30
ATOM     30  C   UNL     1      -0.597  -2.633   5.291  0.00  0.00    +0.000 C 
BRANCH  30  32
ATOM     31  C   UNL     1      -2.358  -1.296   6.454  0.00  0.00    +0.004 C 
ATOM     32  C   UNL     1      -2.062  -2.194   5.251  0.00  0.00    -0.003 C 
ENDBRANCH  30  32
ENDBRANCH  29  30
ENDBRANCH  26  29
ENDBRANCH  23  26
BRANCH  25  33
ATOM     33  C   UNL     1       3.412  -5.646   4.175  0.00  0.00    +0.111 C 
BRANCH  33  34
ATOM     34  C   UNL     1       3.026  -6.782   5.125  0.00  0.00    +0.000 C 
ATOM     35  C   UNL     1       3.985  -6.800   6.316  0.00  0.00    +0.009 C 
ATOM     36  C   UNL     1       1.596  -6.565   5.625  0.00  0.00    +0.009 C 
ENDBRANCH  33  34
ENDBRANCH  25  33
ENDBRANCH  22  25
ENDBRANCH   1  22
TORSDOF 12
