REMARK  Name = ZINC13576442
REMARK  4 active torsions:
REMARK  status: ('A' for Active; 'I' for Inactive)
REMARK    1  A    between atoms: C_1  and  C_2
REMARK    2  A    between atoms: C_2  and  N_3
REMARK    3  A    between atoms: C_16  and  C_18
REMARK    4  A    between atoms: N_24  and  C_27
REMARK                            x       y       z     vdW  Elec       q    Type
REMARK                         _______ _______ _______ _____ _____    ______ ____
ROOT
ATOM      1  N   UNL     1      -1.376  -0.512   0.012  0.00  0.00    +0.388 N 
ATOM      2  C   UNL     1      -2.029  -0.123   1.269  0.00  0.00    -0.073 C 
ATOM      3  C   UNL     1      -3.541  -0.366   1.158  0.00  0.00    +0.019 C 
ATOM      4  C   UNL     1      -3.746  -1.768   0.641  0.00  0.00    -0.022 A 
ATOM      5  C   UNL     1      -4.939  -2.583   0.641  0.00  0.00    +0.003 A 
ATOM      6  C   UNL     1      -6.243  -2.361   1.096  0.00  0.00    +0.010 A 
ATOM      7  C   UNL     1      -7.142  -3.385   0.929  0.00  0.00    +0.001 A 
ATOM      8  C   UNL     1      -6.787  -4.588   0.339  0.00  0.00    +0.002 A 
ATOM      9  C   UNL     1      -5.505  -4.834  -0.120  0.00  0.00    +0.026 A 
ATOM     10  C   UNL     1      -4.570  -3.813   0.036  0.00  0.00    +0.047 A 
ATOM     11  N   UNL     1      -3.248  -3.724  -0.296  0.00  0.00    -0.359 N 
ATOM     12  H   UNL     1      -2.732  -4.424  -0.725  0.00  0.00    +0.166 HD
ATOM     13  C   UNL     1      -2.762  -2.498   0.068  0.00  0.00    +0.011 A 
ATOM     14  C   UNL     1      -1.356  -1.978  -0.117  0.00  0.00    +0.021 C 
ATOM     15  H   UNL     1      -1.885  -0.116  -0.763  0.00  0.00    -0.080 HD
ENDROOT
BRANCH  14  16
ATOM     16  C   UNL     1      -0.852  -2.358  -1.485  0.00  0.00    +0.074 A 
ATOM     17  C   UNL     1      -1.467  -1.843  -2.640  0.00  0.00    +0.260 A 
ATOM     18  N   UNL     1      -1.001  -2.195  -3.855  0.00  0.00    -0.274 N 
ATOM     19  H   UNL     1      -1.423  -1.841  -4.653  0.00  0.00    +0.173 HD
ATOM     20  C   UNL     1       0.045  -3.034  -3.968  0.00  0.00    +0.337 A 
ATOM     21  O   UNL     1       0.451  -3.339  -5.073  0.00  0.00    -0.246 OA
ATOM     22  N   UNL     1       0.650  -3.538  -2.877  0.00  0.00    -0.227 N 
ATOM     23  C   UNL     1       0.210  -3.202  -1.620  0.00  0.00    +0.267 A 
ATOM     24  O   UNL     1       0.822  -3.706  -0.527  0.00  0.00    -0.267 OA
ATOM     25  O   UNL     1      -2.415  -1.083  -2.543  0.00  0.00    -0.267 OA
BRANCH  22  26
ATOM     26  C   UNL     1       1.738  -4.409  -3.024  0.00  0.00    +0.073 A 
ATOM     27  C   UNL     1       3.031  -3.905  -3.074  0.00  0.00    +0.028 A 
ATOM     28  C   UNL     1       4.101  -4.766  -3.219  0.00  0.00    +0.002 A 
ATOM     29  C   UNL     1       3.888  -6.129  -3.314  0.00  0.00    +0.002 A 
ATOM     30  C   UNL     1       2.602  -6.635  -3.264  0.00  0.00    +0.022 A 
ATOM     31  C   UNL     1       1.526  -5.779  -3.114  0.00  0.00    +0.065 A 
ATOM     32 CL   UNL     1      -0.087  -6.416  -3.046  0.00  0.00    -0.081 Cl
ENDBRANCH  22  26
ENDBRANCH  14  16
BRANCH   1  34
ATOM     33  C   UNL     1      -0.019   1.526   0.010  0.00  0.00    -0.017 C 
ATOM     34  C   UNL     1       0.002  -0.004   0.002  0.00  0.00    -0.081 C 
ENDBRANCH   1  34
TORSDOF 3
