REMARK  Name = ZINC09430229
REMARK  11 active torsions:
REMARK  status: ('A' for Active; 'I' for Inactive)
REMARK    1  A    between atoms: C_1  and  C_2
REMARK    2  A    between atoms: C_2  and  C_3
REMARK    3  A    between atoms: C_2  and  C_4
REMARK    4  A    between atoms: C_4  and  C_5
REMARK    5  A    between atoms: N_13  and  C_16
REMARK    6  A    between atoms: C_16  and  C_17
REMARK    7  A    between atoms: C_17  and  C_18
REMARK    8  A    between atoms: C_21  and  O_26
REMARK    9  A    between atoms: C_22  and  O_24
REMARK   10  A    between atoms: O_24  and  C_25
REMARK   11  A    between atoms: O_26  and  C_27
REMARK                            x       y       z     vdW  Elec       q    Type
REMARK                         _______ _______ _______ _____ _____    ______ ____
ROOT
ATOM      1  C   UNL     1      -2.135  -0.131  -1.286  0.00  0.00    -0.057 C 
ATOM      2  C   UNL     1      -3.612  -0.580  -1.260  0.00  0.00    +0.073 C 
ATOM      3  C   UNL     1      -3.918  -1.024  -2.717  0.00  0.00    +0.088 C 
ATOM      4  C   UNL     1      -4.931  -0.004  -3.187  0.00  0.00    +0.225 C 
ATOM      5  O   UNL     1      -5.438   0.023  -4.287  0.00  0.00    -0.275 OA
ATOM      6  N   UNL     1      -5.179   0.863  -2.199  0.00  0.00    -0.241 N 
ATOM      7  C   UNL     1      -4.495   0.630  -1.055  0.00  0.00    +0.224 C 
ATOM      8  O   UNL     1      -4.567   1.279  -0.034  0.00  0.00    -0.275 OA
ATOM      9  C   UNL     1      -2.592  -0.842  -3.465  0.00  0.00    +0.050 C 
ATOM     10  N   UNL     1      -1.536  -0.850  -2.442  0.00  0.00    +0.394 N 
ATOM     11  C   UNL     1      -2.389  -1.917  -4.495  0.00  0.00    -0.028 A 
ATOM     12  C   UNL     1      -2.314  -3.291  -4.429  0.00  0.00    +0.004 A 
ATOM     13  C   UNL     1      -2.114  -4.029  -5.582  0.00  0.00    +0.000 A 
ATOM     14  C   UNL     1      -1.989  -3.385  -6.799  0.00  0.00    +0.002 A 
ATOM     15  C   UNL     1      -2.062  -2.009  -6.869  0.00  0.00    +0.023 A 
ATOM     16  C   UNL     1      -2.264  -1.258  -5.714  0.00  0.00    +0.036 A 
ATOM     17  N   UNL     1      -2.373   0.122  -5.529  0.00  0.00    -0.286 N 
ATOM     18  C   UNL     1      -2.567   0.448  -4.237  0.00  0.00    +0.211 C 
ATOM     19  O   UNL     1      -2.697   1.566  -3.784  0.00  0.00    -0.277 OA
ATOM     20  H   UNL     1      -0.714  -0.366  -2.770  0.00  0.00    -0.083 HD
ATOM     21  H   UNL     1      -2.315   0.771  -6.248  0.00  0.00    +0.155 HD
ATOM     22  H   UNL     1      -1.311  -1.800  -2.188  0.00  0.00    -0.083 HD
ENDROOT
BRANCH   1  23
ATOM     23  C   UNL     1      -1.433  -0.534   0.013  0.00  0.00    -0.012 C 
BRANCH  23  25
ATOM     24  C   UNL     1      -0.019   1.526   0.010  0.00  0.00    +0.007 C 
ATOM     25  C   UNL     1       0.002  -0.004   0.002  0.00  0.00    -0.019 C 
ATOM     26  C   UNL     1       0.742  -0.511   1.242  0.00  0.00    +0.007 C 
ENDBRANCH  23  25
ENDBRANCH   1  23
BRANCH   6  27
ATOM     27  C   UNL     1      -6.124   1.974  -2.339  0.00  0.00    +0.121 C 
BRANCH  27  28
ATOM     28  C   UNL     1      -7.520   1.514  -1.913  0.00  0.00    +0.054 C 
BRANCH  28  29
ATOM     29  C   UNL     1      -8.491   2.656  -2.057  0.00  0.00    -0.042 A 
ATOM     30  C   UNL     1      -8.700   3.522  -0.999  0.00  0.00    +0.007 A 
ATOM     31  C   UNL     1      -9.590   4.572  -1.127  0.00  0.00    +0.049 A 
ATOM     32  C   UNL     1     -10.275   4.759  -2.317  0.00  0.00    +0.161 A 
ATOM     33  C   UNL     1     -10.065   3.888  -3.381  0.00  0.00    +0.162 A 
ATOM     34  C   UNL     1      -9.168   2.841  -3.249  0.00  0.00    +0.053 A 
BRANCH  33  35
ATOM     35  O   UNL     1     -10.735   4.067  -4.551  0.00  0.00    -0.491 OA
ATOM     36  C   UNL     1     -10.469   3.135  -5.601  0.00  0.00    +0.277 C 
ENDBRANCH  33  35
BRANCH  32  37
ATOM     37  O   UNL     1     -11.152   5.791  -2.443  0.00  0.00    -0.491 OA
ATOM     38  C   UNL     1     -11.318   6.644  -1.309  0.00  0.00    +0.277 C 
ENDBRANCH  32  37
ENDBRANCH  28  29
ENDBRANCH  27  28
ENDBRANCH   6  27
TORSDOF 7
