REMARK  Name = ZINC10214517
REMARK  8 active torsions:
REMARK  status: ('A' for Active; 'I' for Inactive)
REMARK    1  A    between atoms: C_1  and  C_2
REMARK    2  A    between atoms: C_5  and  O_31
REMARK    3  A    between atoms: C_6  and  C_8
REMARK    4  A    between atoms: C_18  and  O_29
REMARK    5  A    between atoms: C_26  and  C_27
REMARK    6  A    between atoms: C_26  and  C_28
REMARK    7  A    between atoms: C_26  and  N_62
REMARK    8  A    between atoms: O_29  and  C_30
REMARK                            x       y       z     vdW  Elec       q    Type
REMARK                         _______ _______ _______ _____ _____    ______ ____
ROOT
ATOM      1  C   UNL     1       3.386   2.626   0.706  0.00  0.00    +0.072 C 
ATOM      2  N   UNL     1       2.109   2.650   0.905  0.00  0.00    -0.184 NA
ATOM      3  N   UNL     1       1.379   1.869  -0.001  0.00  0.00    -0.207 N 
ATOM      4  C   UNL     1       2.309   1.414  -1.060  0.00  0.00    +0.136 C 
ATOM      5  C   UNL     1       3.695   1.753  -0.493  0.00  0.00    +0.086 C 
ATOM      6  C   UNL     1       2.104  -0.072  -1.197  0.00  0.00    +0.020 A 
ATOM      7  C   UNL     1       3.056  -0.827  -1.859  0.00  0.00    +0.009 A 
ATOM      8  C   UNL     1       2.873  -2.184  -2.038  0.00  0.00    +0.004 A 
ATOM      9  C   UNL     1       1.729  -2.792  -1.553  0.00  0.00    +0.049 A 
ATOM     10  C   UNL     1       0.780  -2.045  -0.881  0.00  0.00    +0.162 A 
ATOM     11  C   UNL     1       0.964  -0.671  -0.687  0.00  0.00    +0.170 A 
ATOM     12  O   UNL     1       0.002  -0.004   0.002  0.00  0.00    -0.463 OA
ATOM     13  C   UNL     1      -0.017   1.424   0.010  0.00  0.00    +0.190 C 
ATOM     14  C   UNL     1      -0.717   1.932   1.270  0.00  0.00    +0.052 C 
ATOM     15  C   UNL     1      -0.761   3.462   1.243  0.00  0.00    -0.073 C 
ATOM     16  C   UNL     1      -0.786   3.477  -1.181  0.00  0.00    -0.073 C 
ATOM     17  C   UNL     1      -0.742   1.947  -1.229  0.00  0.00    +0.052 C 
ATOM     18  N   UNL     1      -1.504   3.897   0.041  0.00  0.00    +0.381 N 
ATOM     19  H   UNL     1      -2.434   3.461   0.048  0.00  0.00    -0.081 HD
ENDROOT
BRANCH   1  25
ATOM     20  C   UNL     1       8.142   3.800   1.640  0.00  0.00    +0.044 C 
ATOM     21  C   UNL     1       6.677   3.908   1.976  0.00  0.00    -0.050 A 
ATOM     22  C   UNL     1       6.272   4.679   3.052  0.00  0.00    +0.007 A 
ATOM     23  C   UNL     1       4.930   4.786   3.369  0.00  0.00    +0.046 A 
ATOM     24  C   UNL     1       3.982   4.125   2.608  0.00  0.00    +0.126 A 
ATOM     25  C   UNL     1       4.387   3.338   1.521  0.00  0.00    +0.039 A 
ATOM     26  C   UNL     1       5.745   3.238   1.210  0.00  0.00    +0.016 A 
BRANCH  24  27
ATOM     27  O   UNL     1       2.663   4.234   2.916  0.00  0.00    -0.506 OA
ATOM     28  H   UNL     1       2.347   3.563   3.537  0.00  0.00    +0.292 HD
ENDBRANCH  24  27
ENDBRANCH   1  25
BRANCH  18  29
ATOM     29  C   UNL     1      -1.665   5.366   0.052  0.00  0.00    -0.075 C 
ATOM     30  C   UNL     1      -2.493   5.764   1.275  0.00  0.00    -0.014 C 
ATOM     31  C   UNL     1      -0.300   6.056   0.114  0.00  0.00    -0.014 C 
ENDBRANCH  18  29
BRANCH  10  32
ATOM     32  O   UNL     1      -0.342  -2.650  -0.405  0.00  0.00    -0.491 OA
ATOM     33  C   UNL     1      -0.469  -4.054  -0.636  0.00  0.00    +0.277 C 
ENDBRANCH  10  32
TORSDOF 4
