REMARK  Name = ZINC21456323
REMARK  11 active torsions:
REMARK  status: ('A' for Active; 'I' for Inactive)
REMARK    1  A    between atoms: C_1  and  C_2
REMARK    2  A    between atoms: C_5  and  N_8
REMARK    3  A    between atoms: C_9  and  C_29
REMARK    4  A    between atoms: C_12  and  S_13
REMARK    5  A    between atoms: S_13  and  C_14
REMARK    6  A    between atoms: C_14  and  C_16
REMARK    7  A    between atoms: C_14  and  C_17
REMARK    8  A    between atoms: N_19  and  C_20
REMARK    9  A    between atoms: C_26  and  C_28
REMARK   10  A    between atoms: C_34  and  O_35
REMARK   11  A    between atoms: O_35  and  C_36
REMARK                            x       y       z     vdW  Elec       q    Type
REMARK                         _______ _______ _______ _____ _____    ______ ____
ROOT
ATOM      1  N   UNL     1       1.291   3.498  -0.037  0.00  0.00    -0.270 N 
ATOM      2  C   UNL     1       1.537   4.320   1.041  0.00  0.00    +0.173 A 
ATOM      3  N   UNL     1       1.240   5.543   0.667  0.00  0.00    -0.128 NA
ATOM      4  N   UNL     1       0.833   5.544  -0.551  0.00  0.00    -0.122 NA
ATOM      5  C   UNL     1       0.848   4.323  -1.035  0.00  0.00    +0.197 A 
ENDROOT
BRANCH   1  10
ATOM      6  C   UNL     1       1.995  -2.128  -0.294  0.00  0.00    +0.044 C 
ATOM      7  C   UNL     1       1.808  -0.634  -0.226  0.00  0.00    -0.050 A 
ATOM      8  C   UNL     1       0.538  -0.094  -0.298  0.00  0.00    +0.005 A 
ATOM      9  C   UNL     1       0.363   1.275  -0.236  0.00  0.00    +0.026 A 
ATOM     10  C   UNL     1       1.465   2.108  -0.100  0.00  0.00    +0.051 A 
ATOM     11  C   UNL     1       2.740   1.563  -0.028  0.00  0.00    +0.026 A 
ATOM     12  C   UNL     1       2.908   0.193  -0.091  0.00  0.00    +0.005 A 
ENDBRANCH   1  10
BRANCH   2  13
ATOM     13  C   UNL     1       2.038   3.904   2.367  0.00  0.00    +0.061 A 
ATOM     14  C   UNL     1       1.469   2.811   3.021  0.00  0.00    +0.015 A 
ATOM     15  C   UNL     1       1.942   2.427   4.259  0.00  0.00    +0.001 A 
ATOM     16  C   UNL     1       2.980   3.122   4.855  0.00  0.00    +0.004 A 
ATOM     17  C   UNL     1       3.552   4.206   4.217  0.00  0.00    +0.046 A 
ATOM     18  C   UNL     1       3.091   4.601   2.972  0.00  0.00    +0.131 A 
BRANCH  18  19
ATOM     19  O   UNL     1       3.656   5.664   2.342  0.00  0.00    -0.494 OA
ATOM     20  C   UNL     1       4.726   6.327   3.019  0.00  0.00    +0.277 C 
ENDBRANCH  18  19
ENDBRANCH   2  13
BRANCH   5  21
ATOM     21  S   UNL     1       0.382   3.837  -2.663  0.00  0.00    -0.073 S 
BRANCH  21  22
ATOM     22  C   UNL     1      -0.071   5.447  -3.354  0.00  0.00    +0.137 C 
ATOM     23  C   UNL     1       1.169   6.340  -3.422  0.00  0.00    +0.029 C 
BRANCH  22  24
ATOM     24  C   UNL     1      -0.631   5.260  -4.741  0.00  0.00    +0.226 C 
ATOM     25  O   UNL     1      -0.395   4.243  -5.358  0.00  0.00    -0.275 OA
ATOM     26  N   UNL     1      -1.396   6.221  -5.295  0.00  0.00    -0.311 N 
ATOM     27  H   UNL     1      -1.610   7.144  -4.735  0.00  0.00    +0.149 HD
BRANCH  26  28
ATOM     28  C   UNL     1      -1.940   6.039  -6.642  0.00  0.00    +0.076 C 
ATOM     29  C   UNL     1      -0.900   6.475  -7.676  0.00  0.00    +0.022 C 
ATOM     30  C   UNL     1      -0.554   7.949  -7.461  0.00  0.00    +0.002 C 
ATOM     31  C   UNL     1      -1.817   8.798  -7.620  0.00  0.00    +0.000 C 
ATOM     32  C   UNL     1      -2.857   8.362  -6.587  0.00  0.00    +0.005 C 
ATOM     33  C   UNL     1      -3.203   6.888  -6.801  0.00  0.00    +0.006 C 
ATOM     34  C   UNL     1      -4.244   6.452  -5.768  0.00  0.00    +0.009 C 
ENDBRANCH  26  28
ENDBRANCH  22  24
ENDBRANCH  21  22
ENDBRANCH   5  21
TORSDOF 7
