REMARK  Name = ZINC40110007
REMARK  15 active torsions:
REMARK  status: ('A' for Active; 'I' for Inactive)
REMARK    1  A    between atoms: C_1  and  C_2
REMARK    2  A    between atoms: C_2  and  N_3
REMARK    3  A    between atoms: N_3  and  C_4
REMARK    4  A    between atoms: N_3  and  C_6
REMARK    5  A    between atoms: C_4  and  C_5
REMARK    6  A    between atoms: C_9  and  C_12
REMARK    7  A    between atoms: C_14  and  C_23
REMARK    8  A    between atoms: N_18  and  C_19
REMARK    9  A    between atoms: C_19  and  C_20
REMARK   10  A    between atoms: C_20  and  O_21
REMARK   11  A    between atoms: C_23  and  C_25
REMARK   12  A    between atoms: C_28  and  O_31
REMARK   13  A    between atoms: O_31  and  C_32
REMARK   14  A    between atoms: C_32  and  C_33
REMARK   15  A    between atoms: C_36  and  C_39
REMARK                            x       y       z     vdW  Elec       q    Type
REMARK                         _______ _______ _______ _____ _____    ______ ____
ROOT
ATOM      1  C   UNL     1      -3.755  -1.280   4.425  0.00  0.00    +0.145 C 
ATOM      2  C   UNL     1      -4.702  -0.349   5.145  0.00  0.00    +0.076 C 
ATOM      3  C   UNL     1      -5.852  -1.035   5.339  0.00  0.00    +0.249 C 
ATOM      4  C   UNL     1      -5.708  -2.393   4.774  0.00  0.00    +0.288 C 
ATOM      5  O   UNL     1      -6.570  -3.250   4.790  0.00  0.00    -0.266 OA
ATOM      6  N   UNL     1      -4.482  -2.542   4.239  0.00  0.00    -0.281 N 
ATOM      7  O   UNL     1      -6.958  -0.555   5.953  0.00  0.00    -0.282 OA
ENDROOT
BRANCH   1  11
ATOM      8  C   UNL     1      -2.674   0.366   0.632  0.00  0.00    +0.030 A 
ATOM      9  C   UNL     1      -1.762   0.373   1.679  0.00  0.00    +0.023 A 
ATOM     10  C   UNL     1      -2.114  -0.159   2.904  0.00  0.00    +0.007 A 
ATOM     11  C   UNL     1      -3.374  -0.700   3.088  0.00  0.00    -0.022 A 
ATOM     12  C   UNL     1      -4.285  -0.708   2.047  0.00  0.00    +0.007 A 
ATOM     13  C   UNL     1      -3.941  -0.172   0.822  0.00  0.00    +0.023 A 
BRANCH   8  14
ATOM     14  N   UNL     1      -2.321   0.904  -0.608  0.00  0.00    -0.330 N 
BRANCH  14  16
ATOM     15  C   UNL     1      -1.006   2.960  -0.454  0.00  0.00    +0.024 C 
ATOM     16  C   UNL     1      -0.985   1.471  -0.806  0.00  0.00    +0.102 C 
ENDBRANCH  14  16
BRANCH  14  17
ATOM     17  C   UNL     1      -3.287   0.901  -1.710  0.00  0.00    +0.102 C 
ATOM     18  C   UNL     1      -3.137  -0.391  -2.515  0.00  0.00    +0.024 C 
ENDBRANCH  14  17
ENDBRANCH   8  14
ENDBRANCH   1  11
BRANCH   2  19
ATOM     19  C   UNL     1      -4.428   1.032   5.555  0.00  0.00    +0.195 C 
ATOM     20  O   UNL     1      -5.066   1.948   5.070  0.00  0.00    -0.287 OA
BRANCH  19  21
ATOM     21  C   UNL     1      -3.378   1.311   6.554  0.00  0.00    +0.022 A 
ATOM     22  C   UNL     1      -2.721   0.255   7.194  0.00  0.00    +0.015 A 
ATOM     23  C   UNL     1      -1.743   0.519   8.126  0.00  0.00    +0.046 A 
ATOM     24  C   UNL     1      -1.408   1.834   8.431  0.00  0.00    +0.121 A 
ATOM     25  C   UNL     1      -2.059   2.886   7.798  0.00  0.00    +0.046 A 
ATOM     26  C   UNL     1      -3.034   2.631   6.860  0.00  0.00    +0.015 A 
BRANCH  24  27
ATOM     27  O   UNL     1      -0.443   2.090   9.350  0.00  0.00    -0.487 OA
BRANCH  27  28
ATOM     28  C   UNL     1      -0.148   3.463   9.616  0.00  0.00    +0.264 C 
BRANCH  28  29
ATOM     29  C   UNL     1       0.940   3.551  10.655  0.00  0.00    -0.010 A 
ATOM     30  C   UNL     1       0.613   3.596  11.997  0.00  0.00    +0.007 A 
ATOM     31  C   UNL     1       1.611   3.677  12.950  0.00  0.00    +0.004 A 
ATOM     32  C   UNL     1       2.937   3.712  12.560  0.00  0.00    -0.050 A 
ATOM     33  C   UNL     1       3.264   3.667  11.218  0.00  0.00    +0.004 A 
ATOM     34  C   UNL     1       2.266   3.582  10.266  0.00  0.00    +0.007 A 
ATOM     35  C   UNL     1       4.025   3.802  13.599  0.00  0.00    +0.044 C 
ENDBRANCH  28  29
ENDBRANCH  27  28
ENDBRANCH  24  27
ENDBRANCH  19  21
ENDBRANCH   2  19
BRANCH   6  36
ATOM     36  C   UNL     1      -3.964  -3.747   3.586  0.00  0.00    +0.137 C 
BRANCH  36  37
ATOM     37  C   UNL     1      -3.287  -4.640   4.627  0.00  0.00    +0.175 C 
BRANCH  37  38
ATOM     38  O   UNL     1      -4.262  -5.106   5.561  0.00  0.00    -0.393 OA
ATOM     39  H   UNL     1      -3.903  -5.679   6.252  0.00  0.00    +0.209 HD
ENDBRANCH  37  38
ENDBRANCH  36  37
ENDBRANCH   6  36
TORSDOF 12
