REMARK  Name = ZINC02383730
REMARK  8 active torsions:
REMARK  status: ('A' for Active; 'I' for Inactive)
REMARK    1  A    between atoms: C_1  and  C_2
REMARK    2  A    between atoms: C_2  and  C_3
REMARK    3  A    between atoms: C_2  and  C_4
REMARK    4  A    between atoms: C_4  and  C_5
REMARK    5  A    between atoms: C_11  and  N_17
REMARK    6  A    between atoms: C_13  and  S_15
REMARK    7  A    between atoms: S_15  and  C_16
REMARK    8  A    between atoms: N_17  and  N_18
REMARK                            x       y       z     vdW  Elec       q    Type
REMARK                         _______ _______ _______ _____ _____    ______ ____
ROOT
ATOM      1  C   UNL     1       0.002  -0.004   0.002  0.00  0.00    +0.046 A 
ATOM      2  C   UNL     1       1.064  -0.682   0.586  0.00  0.00    -0.022 A 
ATOM      3  C   UNL     1       1.082  -2.058   0.584  0.00  0.00    -0.031 A 
ATOM      4  C   UNL     1       0.021  -2.764  -0.025  0.00  0.00    +0.037 A 
ATOM      5  C   UNL     1      -0.143  -4.225  -0.138  0.00  0.00    +0.094 A 
ATOM      6  C   UNL     1      -1.299  -4.662  -0.794  0.00  0.00    +0.081 A 
ATOM      7  C   UNL     1      -1.560  -6.016  -0.959  0.00  0.00    +0.151 A 
ATOM      8  N   UNL     1      -0.683  -6.895  -0.477  0.00  0.00    -0.205 NA
ATOM      9  C   UNL     1       0.411  -6.468   0.142  0.00  0.00    +0.190 A 
ATOM     10  N   UNL     1       0.687  -5.192   0.315  0.00  0.00    -0.221 NA
ATOM     11  S   UNL     1      -2.145  -3.174  -1.251  0.00  0.00    -0.064 S 
ATOM     12  C   UNL     1      -1.003  -1.984  -0.592  0.00  0.00    +0.111 A 
ATOM     13  N   UNL     1      -0.986  -0.668  -0.565  0.00  0.00    -0.244 NA
ATOM     14  C   UNL     1       2.324  -2.564   1.278  0.00  0.00    +0.036 C 
ATOM     15  C   UNL     1       2.846  -1.360   2.092  0.00  0.00    +0.009 C 
ATOM     16  C   UNL     1       2.295  -0.158   1.296  0.00  0.00    +0.037 C 
ENDROOT
BRANCH   9  17
ATOM     17  S   UNL     1       1.545  -7.665   0.764  0.00  0.00    -0.089 S 
ATOM     18  C   UNL     1       0.699  -9.186   0.269  0.00  0.00    +0.093 C 
ENDBRANCH   9  17
BRANCH   7  19
ATOM     19  N   UNL     1      -2.707  -6.443  -1.610  0.00  0.00    -0.267 N 
ATOM     20  H   UNL     1      -3.339  -5.793  -1.956  0.00  0.00    +0.167 HD
BRANCH  19  21
ATOM     21  N   UNL     1      -2.948  -7.779  -1.763  0.00  0.00    -0.255 NA
ATOM     22  H   UNL     1      -2.946  -8.251  -0.871  0.00  0.00    +0.140 HD
ATOM     23  H   UNL     1      -3.816  -7.936  -2.253  0.00  0.00    +0.140 HD
ENDBRANCH  19  21
ENDBRANCH   7  19
BRANCH   1  24
ATOM     24  C   UNL     1      -0.018   1.503   0.010  0.00  0.00    +0.058 C 
BRANCH  24  26
ATOM     25  C   UNL     1      -0.647   3.522   1.341  0.00  0.00    +0.007 C 
ATOM     26  C   UNL     1      -0.735   1.996   1.269  0.00  0.00    -0.011 C 
ATOM     27  C   UNL     1      -2.204   1.572   1.220  0.00  0.00    +0.007 C 
ENDBRANCH  24  26
ENDBRANCH   1  24
TORSDOF 5
