REMARK  Name = ZINC13674979
REMARK  12 active torsions:
REMARK  status: ('A' for Active; 'I' for Inactive)
REMARK    1  A    between atoms: C_1  and  C_2
REMARK    2  A    between atoms: C_2  and  C_3
REMARK    3  A    between atoms: C_5  and  N_10
REMARK    4  A    between atoms: C_8  and  C_9
REMARK    5  A    between atoms: N_10  and  C_11
REMARK    6  A    between atoms: N_15  and  C_20
REMARK    7  A    between atoms: C_20  and  C_21
REMARK    8  A    between atoms: C_21  and  C_22
REMARK    9  A    between atoms: C_22  and  C_23
REMARK   10  A    between atoms: C_23  and  C_24
REMARK   11  A    between atoms: C_24  and  N_25
REMARK   12  A    between atoms: C_28  and  C_31
REMARK                            x       y       z     vdW  Elec       q    Type
REMARK                         _______ _______ _______ _____ _____    ______ ____
ROOT
ATOM      1  C   UNL     1       0.541  -1.939  -5.807  0.00  0.00    +0.109 A 
ATOM      2  C   UNL     1      -0.167  -2.160  -6.955  0.00  0.00    +0.112 A 
ATOM      3  C   UNL     1       0.524  -2.509  -8.126  0.00  0.00    +0.258 A 
ATOM      4  O   UNL     1      -0.087  -2.711  -9.162  0.00  0.00    -0.267 OA
ATOM      5  N   UNL     1       1.866  -2.620  -8.099  0.00  0.00    -0.261 N 
ATOM      6  C   UNL     1       2.548  -2.399  -6.960  0.00  0.00    +0.331 A 
ATOM      7  O   UNL     1       3.759  -2.505  -6.958  0.00  0.00    -0.246 OA
ATOM      8  N   UNL     1       1.910  -2.058  -5.826  0.00  0.00    -0.296 N 
ATOM      9  H   UNL     1       2.419  -1.899  -5.016  0.00  0.00    +0.172 HD
ENDROOT
BRANCH   1  10
ATOM     10  N   UNL     1      -0.108  -1.596  -4.647  0.00  0.00    -0.301 N 
ATOM     11  H   UNL     1      -1.063  -1.423  -4.659  0.00  0.00    +0.154 HD
BRANCH  10  14
ATOM     12  C   UNL     1       1.041  -0.366  -1.380  0.00  0.00    -0.043 A 
ATOM     13  C   UNL     1       0.334  -0.462  -2.562  0.00  0.00    +0.027 A 
ATOM     14  C   UNL     1       0.606  -1.495  -3.450  0.00  0.00    +0.033 A 
ATOM     15  C   UNL     1       1.588  -2.429  -3.144  0.00  0.00    +0.023 A 
ATOM     16  C   UNL     1       2.291  -2.327  -1.960  0.00  0.00    +0.005 A 
ATOM     17  C   UNL     1       2.022  -1.294  -1.081  0.00  0.00    -0.047 A 
ATOM     18  C   UNL     1       2.795  -1.183   0.208  0.00  0.00    +0.044 C 
BRANCH  12  20
ATOM     19  C   UNL     1       1.716   1.913  -0.671  0.00  0.00    +0.009 C 
ATOM     20  C   UNL     1       0.748   0.755  -0.416  0.00  0.00    +0.032 C 
ENDBRANCH  12  20
ENDBRANCH  10  14
ENDBRANCH   1  10
BRANCH   5  21
ATOM     21  C   UNL     1       2.590  -2.985  -9.319  0.00  0.00    +0.130 C 
BRANCH  21  22
ATOM     22  C   UNL     1       2.964  -1.717 -10.089  0.00  0.00    +0.022 C 
BRANCH  22  23
ATOM     23  C   UNL     1       3.720  -2.098 -11.364  0.00  0.00    -0.000 C 
BRANCH  23  24
ATOM     24  C   UNL     1       4.094  -0.829 -12.133  0.00  0.00    -0.019 C 
BRANCH  24  25
ATOM     25  C   UNL     1       4.849  -1.210 -13.408  0.00  0.00    -0.078 C 
BRANCH  25  26
ATOM     26  N   UNL     1       5.209   0.008 -14.146  0.00  0.00    +0.382 N 
ATOM     27  C   UNL     1       5.839  -0.359 -15.424  0.00  0.00    -0.074 C 
ATOM     28  C   UNL     1       5.968   0.900 -16.285  0.00  0.00    +0.017 C 
ATOM     29  C   UNL     1       6.599   2.000 -15.477  0.00  0.00    -0.048 C 
ATOM     30  C   UNL     1       6.679   1.952 -14.165  0.00  0.00    -0.041 C 
ATOM     31  C   UNL     1       6.158   0.800 -13.356  0.00  0.00    -0.051 C 
ATOM     32  H   UNL     1       4.378   0.553 -14.323  0.00  0.00    -0.081 HD
BRANCH  29  33
ATOM     33  C   UNL     1       7.149   3.177 -16.182  0.00  0.00    -0.022 A 
ATOM     34  C   UNL     1       6.298   4.035 -16.881  0.00  0.00    +0.011 A 
ATOM     35  C   UNL     1       6.816   5.132 -17.537  0.00  0.00    +0.039 A 
ATOM     36  C   UNL     1       8.178   5.383 -17.503  0.00  0.00    +0.123 A 
ATOM     37  C   UNL     1       9.027   4.534 -16.811  0.00  0.00    +0.039 A 
ATOM     38  C   UNL     1       8.519   3.438 -16.147  0.00  0.00    +0.011 A 
ATOM     39  F   UNL     1       8.681   6.459 -18.148  0.00  0.00    -0.205 F 
ENDBRANCH  29  33
ENDBRANCH  25  26
ENDBRANCH  24  25
ENDBRANCH  23  24
ENDBRANCH  22  23
ENDBRANCH  21  22
ENDBRANCH   5  21
TORSDOF 10
