REMARK  Name = ZINC14120517
REMARK  4 active torsions:
REMARK  status: ('A' for Active; 'I' for Inactive)
REMARK    1  A    between atoms: C_6  and  C_7
REMARK    2  A    between atoms: C_7  and  C_8
REMARK    3  A    between atoms: C_19  and  S_21
REMARK    4  A    between atoms: S_21  and  N_24
REMARK                            x       y       z     vdW  Elec       q    Type
REMARK                         _______ _______ _______ _____ _____    ______ ____
ROOT
ATOM      1  C   UNL     1      -0.742   1.585  -1.213  0.00  0.00    +0.225 C 
ATOM      2  O   UNL     1      -1.736   2.268  -1.088  0.00  0.00    -0.275 OA
ATOM      3  N   UNL     1      -0.288   1.272  -2.443  0.00  0.00    -0.261 N 
ATOM      4  C   UNL     1       0.915   0.446  -2.621  0.00  0.00    +0.209 C 
ATOM      5  C   UNL     1       1.750   1.026  -3.734  0.00  0.00    +0.235 C 
ATOM      6  O   UNL     1       2.953   0.876  -3.720  0.00  0.00    -0.274 OA
ATOM      7  N   UNL     1       1.176   1.709  -4.742  0.00  0.00    -0.283 N 
ATOM      8  C   UNL     1      -0.204   1.940  -4.756  0.00  0.00    +0.057 A 
ATOM      9  C   UNL     1      -0.953   1.720  -3.595  0.00  0.00    +0.058 A 
ATOM     10  C   UNL     1      -2.313   1.955  -3.593  0.00  0.00    +0.027 A 
ATOM     11  C   UNL     1      -2.937   2.397  -4.747  0.00  0.00    +0.030 A 
ATOM     12  C   UNL     1      -2.201   2.608  -5.898  0.00  0.00    +0.107 A 
ATOM     13  C   UNL     1      -0.837   2.381  -5.907  0.00  0.00    +0.053 A 
ATOM     14  H   UNL     1       1.726   2.045  -5.467  0.00  0.00    +0.155 HD
ENDROOT
BRANCH  12  15
ATOM     15  S   UNL     1      -3.006   3.168  -7.362  0.00  0.00    +0.061 S 
ATOM     16  O   UNL     1      -4.194   3.828  -6.946  0.00  0.00    -0.153 OA
ATOM     17  O   UNL     1      -2.014   3.811  -8.150  0.00  0.00    -0.153 OA
BRANCH  15  18
ATOM     18  N   UNL     1      -3.482   1.824  -8.204  0.00  0.00    -0.177 NA
ATOM     19  C   UNL     1      -2.593   1.211  -9.200  0.00  0.00    +0.109 C 
ATOM     20  C   UNL     1      -2.434  -0.279  -8.862  0.00  0.00    +0.017 C 
ATOM     21  C   UNL     1      -3.818  -0.927  -8.773  0.00  0.00    +0.003 C 
ATOM     22  C   UNL     1      -4.622  -0.262  -7.653  0.00  0.00    +0.017 C 
ATOM     23  C   UNL     1      -4.803   1.225  -7.973  0.00  0.00    +0.109 C 
ENDBRANCH  15  18
ENDBRANCH  12  15
BRANCH   1  24
ATOM     24  C   UNL     1      -0.013   1.086   0.008  0.00  0.00    +0.131 C 
BRANCH  24  30
ATOM     25  C   UNL     1      -0.360   2.779   1.818  0.00  0.00    +0.005 A 
ATOM     26  C   UNL     1      -1.009   3.228   2.953  0.00  0.00    +0.022 A 
ATOM     27  C   UNL     1      -2.011   2.465   3.524  0.00  0.00    +0.059 A 
ATOM     28  C   UNL     1      -2.367   1.253   2.956  0.00  0.00    +0.060 A 
ATOM     29  C   UNL     1      -1.720   0.808   1.817  0.00  0.00    +0.025 A 
ATOM     30  C   UNL     1      -0.718   1.572   1.248  0.00  0.00    -0.037 A 
ATOM     31 CL   UNL     1      -3.625   0.294   3.671  0.00  0.00    -0.082 Cl
ATOM     32 CL   UNL     1      -2.823   3.026   4.952  0.00  0.00    -0.082 Cl
ENDBRANCH  24  30
ENDBRANCH   1  24
TORSDOF 4
