REMARK  Name = ZINC09490004
REMARK  9 active torsions:
REMARK  status: ('A' for Active; 'I' for Inactive)
REMARK    1  A    between atoms: C_1  and  O_2
REMARK    2  A    between atoms: O_2  and  C_3
REMARK    3  A    between atoms: C_5  and  C_12
REMARK    4  A    between atoms: C_7  and  O_10
REMARK    5  A    between atoms: C_8  and  O_9
REMARK    6  A    between atoms: O_10  and  C_11
REMARK    7  A    between atoms: C_15  and  C_26
REMARK    8  A    between atoms: C_21  and  N_25
REMARK    9  A    between atoms: C_22  and  C_23
REMARK                            x       y       z     vdW  Elec       q    Type
REMARK                         _______ _______ _______ _____ _____    ______ ____
ROOT
ATOM      1  C   UNL     1      -4.942   0.374   0.031  0.00  0.00    +0.102 C 
ATOM      2  C   UNL     1      -5.765  -0.115   1.194  0.00  0.00    +0.054 A 
ATOM      3  C   UNL     1      -5.561   0.074   2.564  0.00  0.00    +0.100 A 
ATOM      4  N   UNL     1      -6.536  -0.537   3.208  0.00  0.00    -0.171 NA
ATOM      5  N   UNL     1      -7.386  -1.132   2.263  0.00  0.00    -0.246 N 
ATOM      6  H   UNL     1      -8.185  -1.647   2.458  0.00  0.00    +0.192 HD
ATOM      7  C   UNL     1      -6.897  -0.861   1.035  0.00  0.00    +0.223 A 
ATOM      8  O   UNL     1      -7.373  -1.218  -0.184  0.00  0.00    -0.423 OA
ATOM      9  C   UNL     1      -6.859  -0.594  -1.263  0.00  0.00    +0.200 C 
ATOM     10  C   UNL     1      -5.738   0.162  -1.233  0.00  0.00    +0.098 C 
ENDROOT
BRANCH   3  11
ATOM     11  C   UNL     1      -4.444   0.830   3.184  0.00  0.00    +0.003 A 
ATOM     12  C   UNL     1      -4.036   2.046   2.640  0.00  0.00    +0.011 A 
ATOM     13  C   UNL     1      -2.997   2.745   3.220  0.00  0.00    +0.016 A 
ATOM     14  C   UNL     1      -2.361   2.240   4.341  0.00  0.00    +0.018 A 
ATOM     15  C   UNL     1      -2.763   1.032   4.886  0.00  0.00    +0.016 A 
ATOM     16  C   UNL     1      -3.804   0.329   4.316  0.00  0.00    +0.011 A 
ATOM     17 BR   UNL     1      -0.938   3.203   5.131  0.00  0.00    -0.050 Br
ENDBRANCH   3  11
BRANCH   1  20
ATOM     18  C   UNL     1      -1.255  -0.447  -0.103  0.00  0.00    +0.165 A 
ATOM     19  C   UNL     1      -2.443   0.265  -0.035  0.00  0.00    +0.054 A 
ATOM     20  C   UNL     1      -3.653  -0.403  -0.043  0.00  0.00    -0.027 A 
ATOM     21  C   UNL     1      -3.684  -1.783  -0.119  0.00  0.00    +0.054 A 
ATOM     22  C   UNL     1      -2.501  -2.503  -0.186  0.00  0.00    +0.165 A 
ATOM     23  C   UNL     1      -1.282  -1.834  -0.184  0.00  0.00    +0.201 A 
BRANCH  18  25
ATOM     24  C   UNL     1      -0.114   1.637  -0.009  0.00  0.00    +0.277 C 
ATOM     25  O   UNL     1      -0.065   0.212  -0.095  0.00  0.00    -0.491 OA
ENDBRANCH  18  25
BRANCH  23  26
ATOM     26  O   UNL     1      -0.118  -2.536  -0.257  0.00  0.00    -0.501 OA
ATOM     27  H   UNL     1       0.241  -2.791   0.604  0.00  0.00    +0.292 HD
ENDBRANCH  23  26
BRANCH  22  28
ATOM     28  O   UNL     1      -2.532  -3.860  -0.260  0.00  0.00    -0.491 OA
ATOM     29  C   UNL     1      -3.820  -4.480  -0.263  0.00  0.00    +0.277 C 
ENDBRANCH  22  28
ENDBRANCH   1  20
BRANCH   9  30
ATOM     30  N   UNL     1      -7.512  -0.733  -2.462  0.00  0.00    -0.328 N 
ATOM     31  H   UNL     1      -8.319  -1.268  -2.516  0.00  0.00    +0.145 HD
ATOM     32  H   UNL     1      -7.167  -0.295  -3.256  0.00  0.00    +0.145 HD
ENDBRANCH   9  30
BRANCH  10  33
ATOM     33  C   UNL     1      -5.289   0.782  -2.443  0.00  0.00    +0.101 C 
ATOM     34  N   UNL     1      -4.934   1.274  -3.403  0.00  0.00    -0.191 NA
ENDBRANCH  10  33
TORSDOF 7
