REMARK  Name = ZINC66827386
REMARK  6 active torsions:
REMARK  status: ('A' for Active; 'I' for Inactive)
REMARK    1  A    between atoms: C_10  and  N_12
REMARK    2  A    between atoms: C_13  and  C_15
REMARK    3  A    between atoms: C_15  and  N_16
REMARK    4  A    between atoms: N_16  and  C_17
REMARK    5  A    between atoms: C_21  and  S_23
REMARK    6  A    between atoms: S_23  and  C_26
REMARK                            x       y       z     vdW  Elec       q    Type
REMARK                         _______ _______ _______ _____ _____    ______ ____
ROOT
ATOM      1  C   UNL     1       6.269   1.814   1.377  0.00  0.00    +0.197 C 
ENDROOT
BRANCH   1   3
ATOM      2  N   UNL     1       4.649   0.018   0.860  0.00  0.00    -0.307 N 
ATOM      3  C   UNL     1       5.330   1.101   0.438  0.00  0.00    +0.231 C 
ATOM      4  O   UNL     1       5.189   1.502  -0.698  0.00  0.00    -0.274 OA
ATOM      5  H   UNL     1       4.762  -0.302   1.769  0.00  0.00    +0.149 HD
BRANCH   2  15
ATOM      6  C   UNL     1      -0.017   1.375   0.010  0.00  0.00    +0.000 A 
ATOM      7  C   UNL     1       1.174   2.078   0.002  0.00  0.00    +0.000 A 
ATOM      8  C   UNL     1       2.372   1.395  -0.016  0.00  0.00    +0.006 A 
ATOM      9  C   UNL     1       2.393   0.006  -0.025  0.00  0.00    -0.024 A 
ATOM     10  C   UNL     1       1.208  -0.694  -0.013  0.00  0.00    -0.042 A 
ATOM     11  C   UNL     1       0.002  -0.004   0.002  0.00  0.00    +0.004 A 
ATOM     12  C   UNL     1       1.155  -2.199  -0.005  0.00  0.00    +0.035 C 
ATOM     13  C   UNL     1       2.493  -2.786  -0.452  0.00  0.00    +0.007 C 
ATOM     14  C   UNL     1       3.607  -2.135   0.376  0.00  0.00    +0.027 C 
ATOM     15  C   UNL     1       3.736  -0.675  -0.053  0.00  0.00    +0.103 C 
ENDBRANCH   2  15
ENDBRANCH   1   3
BRANCH   1  16
ATOM     16  N   UNL     1       6.883   2.950   0.685  0.00  0.00    -0.335 N 
ATOM     17  H   UNL     1       6.657   3.134  -0.240  0.00  0.00    +0.147 HD
BRANCH  16  18
ATOM     18  C   UNL     1       7.795   3.767   1.357  0.00  0.00    +0.029 A 
ATOM     19  C   UNL     1       8.126   3.500   2.680  0.00  0.00    +0.023 A 
ATOM     20  C   UNL     1       9.028   4.310   3.341  0.00  0.00    +0.004 A 
ATOM     21  C   UNL     1       9.603   5.385   2.688  0.00  0.00    +0.027 A 
ATOM     22  C   UNL     1       9.277   5.653   1.372  0.00  0.00    +0.096 A 
ATOM     23  C   UNL     1       8.379   4.844   0.702  0.00  0.00    +0.050 A 
BRANCH  22  24
ATOM     24  S   UNL     1      10.011   7.024   0.544  0.00  0.00    +0.058 S 
ATOM     25  O   UNL     1       9.077   7.382  -0.464  0.00  0.00    -0.164 OA
ATOM     26  O   UNL     1      10.343   7.938   1.581  0.00  0.00    -0.164 OA
BRANCH  24  27
ATOM     27  C   UNL     1      11.521   6.360  -0.210  0.00  0.00    +0.485 C 
ATOM     28  F   UNL     1      12.357   5.850   0.790  0.00  0.00    -0.183 F 
ATOM     29  F   UNL     1      11.184   5.336  -1.103  0.00  0.00    -0.183 F 
ENDBRANCH  24  27
ENDBRANCH  22  24
ENDBRANCH  16  18
ENDBRANCH   1  16
TORSDOF 6
