REMARK  Name = ZINC38784710
REMARK  5 active torsions:
REMARK  status: ('A' for Active; 'I' for Inactive)
REMARK    1  A    between atoms: C_4  and  C_7
REMARK    2  A    between atoms: C_11  and  S_15
REMARK    3  A    between atoms: S_15  and  C_16
REMARK    4  A    between atoms: C_16  and  C_17
REMARK    5  A    between atoms: N_19  and  C_20
REMARK                            x       y       z     vdW  Elec       q    Type
REMARK                         _______ _______ _______ _____ _____    ______ ____
ROOT
ATOM      1  C   UNL     1       3.720  -0.622  -0.009  0.00  0.00    -0.015 C 
ATOM      2  C   UNL     1       4.108  -1.418   1.036  0.00  0.00    +0.075 C 
ATOM      3  C   UNL     1       5.411  -2.095   0.924  0.00  0.00    +0.112 C 
ATOM      4  N   UNL     1       5.845  -2.872   1.887  0.00  0.00    -0.217 NA
ATOM      5  C   UNL     1       5.127  -3.072   2.991  0.00  0.00    +0.182 C 
ATOM      6  N   UNL     1       3.946  -2.514   3.194  0.00  0.00    -0.151 NA
ATOM      7  C   UNL     1       3.374  -1.701   2.306  0.00  0.00    +0.272 C 
ATOM      8  O   UNL     1       2.282  -1.202   2.524  0.00  0.00    -0.268 OA
ATOM      9  S   UNL     1       6.055  -1.593  -0.651  0.00  0.00    -0.100 S 
ATOM     10  C   UNL     1       4.665  -0.516  -1.185  0.00  0.00    +0.112 C 
ENDROOT
BRANCH   1  14
ATOM     11  C   UNL     1       0.023   1.445   0.043  0.00  0.00    +0.000 A 
ATOM     12  C   UNL     1       1.210   2.158   0.043  0.00  0.00    +0.001 A 
ATOM     13  C   UNL     1       2.418   1.495   0.026  0.00  0.00    +0.008 A 
ATOM     14  C   UNL     1       2.442   0.093   0.009  0.00  0.00    -0.020 A 
ATOM     15  C   UNL     1       1.235  -0.621   0.009  0.00  0.00    +0.008 A 
ATOM     16  C   UNL     1       0.037   0.060   0.026  0.00  0.00    +0.001 A 
ENDBRANCH   1  14
BRANCH   5  17
ATOM     17  S   UNL     1       5.782  -4.131   4.238  0.00  0.00    -0.079 S 
BRANCH  17  18
ATOM     18  C   UNL     1       4.510  -4.122   5.532  0.00  0.00    +0.173 C 
BRANCH  18  19
ATOM     19  C   UNL     1       4.950  -5.001   6.675  0.00  0.00    +0.228 C 
ATOM     20  O   UNL     1       6.017  -5.577   6.621  0.00  0.00    -0.275 OA
ATOM     21  N   UNL     1       4.159  -5.148   7.756  0.00  0.00    -0.284 N 
ATOM     22  H   UNL     1       3.338  -4.637   7.828  0.00  0.00    +0.155 HD
BRANCH  21  23
ATOM     23  C   UNL     1       4.523  -6.036   8.774  0.00  0.00    +0.047 A 
ATOM     24  C   UNL     1       5.862  -6.214   9.097  0.00  0.00    +0.024 A 
ATOM     25  C   UNL     1       6.218  -7.091  10.102  0.00  0.00    +0.002 A 
ATOM     26  C   UNL     1       5.243  -7.793  10.788  0.00  0.00    +0.001 A 
ATOM     27  C   UNL     1       3.909  -7.619  10.469  0.00  0.00    +0.017 A 
ATOM     28  C   UNL     1       3.545  -6.738   9.468  0.00  0.00    +0.039 A 
ATOM     29 BR   UNL     1       1.720  -6.495   9.037  0.00  0.00    -0.048 Br
ENDBRANCH  21  23
ENDBRANCH  18  19
ENDBRANCH  17  18
ENDBRANCH   5  17
TORSDOF 5
