REMARK  Name = ZINC03018567
REMARK  15 active torsions:
REMARK  status: ('A' for Active; 'I' for Inactive)
REMARK    1  A    between atoms: C_1  and  C_2
REMARK    2  A    between atoms: C_2  and  C_3
REMARK    3  A    between atoms: C_3  and  C_5
REMARK    4  A    between atoms: C_3  and  S_12
REMARK    5  A    between atoms: N_7  and  C_8
REMARK    6  A    between atoms: N_7  and  C_10
REMARK    7  A    between atoms: C_8  and  C_9
REMARK    8  A    between atoms: C_10  and  C_11
REMARK    9  A    between atoms: S_12  and  C_13
REMARK   10  A    between atoms: C_17  and  C_31
REMARK   11  A    between atoms: C_18  and  C_20
REMARK   12  A    between atoms: N_22  and  C_23
REMARK   13  A    between atoms: C_26  and  C_30
REMARK   14  A    between atoms: C_28  and  C_29
REMARK   15  A    between atoms: N_34  and  N_35
REMARK                            x       y       z     vdW  Elec       q    Type
REMARK                         _______ _______ _______ _____ _____    ______ ____
ROOT
ATOM      1  C   UNL     1       7.633  -3.275   0.160  0.00  0.00    +0.190 A 
ATOM      2  N   UNL     1       7.277  -2.027   0.385  0.00  0.00    -0.215 NA
ATOM      3  C   UNL     1       6.005  -1.668   0.429  0.00  0.00    +0.117 A 
ATOM      4  C   UNL     1       4.956  -2.600   0.237  0.00  0.00    +0.077 A 
ATOM      5  C   UNL     1       3.661  -2.081   0.316  0.00  0.00    -0.017 A 
ATOM      6  C   UNL     1       3.476  -0.751   0.554  0.00  0.00    +0.080 A 
ATOM      7  S   UNL     1       5.146  -0.138   0.697  0.00  0.00    -0.064 S 
ATOM      8  C   UNL     1       2.472  -2.989   0.135  0.00  0.00    +0.046 C 
ATOM      9  C   UNL     1       5.389  -3.992  -0.013  0.00  0.00    +0.280 A 
ATOM     10  O   UNL     1       4.571  -4.877  -0.190  0.00  0.00    -0.265 OA
ATOM     11  N   UNL     1       6.709  -4.258  -0.038  0.00  0.00    -0.209 N 
ENDROOT
BRANCH   6  12
ATOM     12  C   UNL     1       2.218  -0.010   0.669  0.00  0.00    +0.255 C 
ATOM     13  O   UNL     1       1.156  -0.591   0.543  0.00  0.00    -0.269 OA
ATOM     14  N   UNL     1       2.236   1.315   0.915  0.00  0.00    -0.281 N 
ATOM     15  H   UNL     1       3.194   1.853   0.958  0.00  0.00    +0.155 HD
BRANCH  14  16
ATOM     16  C   UNL     1       1.037   2.005   1.115  0.00  0.00    +0.037 A 
ATOM     17  C   UNL     1      -0.119   1.596   0.463  0.00  0.00    +0.024 A 
ATOM     18  C   UNL     1      -1.301   2.283   0.659  0.00  0.00    +0.005 A 
ATOM     19  C   UNL     1      -1.337   3.371   1.513  0.00  0.00    -0.050 A 
ATOM     20  C   UNL     1      -0.188   3.780   2.164  0.00  0.00    +0.008 A 
ATOM     21  C   UNL     1       0.999   3.101   1.968  0.00  0.00    -0.029 A 
ATOM     22  C   UNL     1       2.250   3.548   2.679  0.00  0.00    +0.045 C 
ATOM     23  C   UNL     1      -2.630   4.114   1.730  0.00  0.00    +0.044 C 
ENDBRANCH  14  16
ENDBRANCH   6  12
BRANCH  11  24
ATOM     24  N   UNL     1       7.130  -5.537  -0.267  0.00  0.00    -0.293 N 
ATOM     25  H   UNL     1       6.394  -6.338  -0.428  0.00  0.00    +0.163 HD
ATOM     26  H   UNL     1       8.206  -5.767  -0.290  0.00  0.00    +0.163 HD
ENDBRANCH  11  24
BRANCH   1  27
ATOM     27  S   UNL     1       9.347  -3.685   0.114  0.00  0.00    -0.073 S 
BRANCH  27  28
ATOM     28  C   UNL     1      10.064  -2.087   0.572  0.00  0.00    +0.140 C 
BRANCH  28  29
ATOM     29  C   UNL     1      11.563  -2.152   0.434  0.00  0.00    +0.229 C 
ATOM     30  O   UNL     1      12.136  -3.216   0.536  0.00  0.00    -0.274 OA
ATOM     31  N   UNL     1      12.267  -1.027   0.198  0.00  0.00    -0.301 N 
BRANCH  31  32
ATOM     32  C   UNL     1      11.591   0.272   0.191  0.00  0.00    +0.104 C 
ATOM     33  C   UNL     1      11.738   0.931   1.564  0.00  0.00    +0.024 C 
ENDBRANCH  31  32
BRANCH  31  34
ATOM     34  C   UNL     1      13.709  -1.105  -0.052  0.00  0.00    +0.104 C 
ATOM     35  C   UNL     1      13.958  -1.270  -1.553  0.00  0.00    +0.024 C 
ENDBRANCH  31  34
ENDBRANCH  28  29
BRANCH  28  37
ATOM     36  C   UNL     1      10.382  -2.760   2.957  0.00  0.00    +0.005 C 
ATOM     37  C   UNL     1       9.699  -1.761   2.021  0.00  0.00    +0.020 C 
ENDBRANCH  28  37
ENDBRANCH  27  28
ENDBRANCH   1  27
TORSDOF 9
