REMARK  Name = ZINC09973429
REMARK  15 active torsions:
REMARK  status: ('A' for Active; 'I' for Inactive)
REMARK    1  A    between atoms: C_1  and  C_2
REMARK    2  A    between atoms: C_5  and  O_35
REMARK    3  A    between atoms: C_6  and  N_8
REMARK    4  A    between atoms: N_8  and  S_9
REMARK    5  A    between atoms: S_9  and  C_12
REMARK    6  A    between atoms: C_15  and  N_18
REMARK    7  A    between atoms: C_19  and  C_21
REMARK    8  A    between atoms: C_22  and  C_23
REMARK    9  A    between atoms: C_26  and  O_33
REMARK   10  A    between atoms: C_27  and  O_31
REMARK   11  A    between atoms: C_28  and  O_29
REMARK   12  A    between atoms: O_29  and  C_30
REMARK   13  A    between atoms: O_31  and  C_32
REMARK   14  A    between atoms: O_33  and  C_34
REMARK   15  A    between atoms: O_35  and  C_36
REMARK                            x       y       z     vdW  Elec       q    Type
REMARK                         _______ _______ _______ _____ _____    ______ ____
ROOT
ATOM      1  C   UNL     1      -1.957  -7.594   8.277  0.00  0.00    +0.109 A 
ATOM      2  C   UNL     1      -1.035  -6.690   8.770  0.00  0.00    +0.030 A 
ATOM      3  C   UNL     1      -0.637  -5.616   7.998  0.00  0.00    +0.025 A 
ATOM      4  C   UNL     1      -1.165  -5.445   6.725  0.00  0.00    +0.034 A 
ATOM      5  C   UNL     1      -2.095  -6.352   6.234  0.00  0.00    +0.025 A 
ATOM      6  C   UNL     1      -2.484  -7.427   7.010  0.00  0.00    +0.030 A 
ENDROOT
BRANCH   4   7
ATOM      7  N   UNL     1      -0.765  -4.359   5.941  0.00  0.00    -0.282 N 
ATOM      8  C   UNL     1       0.494  -3.887   6.035  0.00  0.00    +0.241 C 
ATOM      9  O   UNL     1       1.311  -4.465   6.729  0.00  0.00    -0.270 OA
ATOM     10  H   UNL     1      -1.393  -3.945   5.328  0.00  0.00    +0.155 HD
BRANCH   8  11
ATOM     11  C   UNL     1       0.868  -2.717   5.327  0.00  0.00    +0.068 C 
ATOM     12  C   UNL     1       2.131  -2.244   5.421  0.00  0.00    +0.017 C 
BRANCH  12  13
ATOM     13  C   UNL     1       2.518  -1.034   4.688  0.00  0.00    +0.021 A 
ATOM     14  C   UNL     1       1.581  -0.366   3.889  0.00  0.00    +0.015 A 
ATOM     15  C   UNL     1       1.947   0.769   3.202  0.00  0.00    +0.050 A 
ATOM     16  C   UNL     1       3.245   1.259   3.297  0.00  0.00    +0.165 A 
ATOM     17  C   UNL     1       4.185   0.606   4.088  0.00  0.00    +0.204 A 
ATOM     18  C   UNL     1       3.830  -0.542   4.781  0.00  0.00    +0.172 A 
BRANCH  18  19
ATOM     19  O   UNL     1       4.747  -1.185   5.549  0.00  0.00    -0.491 OA
ATOM     20  C   UNL     1       4.907  -0.724   6.892  0.00  0.00    +0.277 C 
ENDBRANCH  18  19
BRANCH  17  21
ATOM     21  O   UNL     1       5.454   1.090   4.176  0.00  0.00    -0.488 OA
ATOM     22  C   UNL     1       6.393   0.631   3.202  0.00  0.00    +0.277 C 
ENDBRANCH  17  21
BRANCH  16  23
ATOM     23  O   UNL     1       3.596   2.380   2.616  0.00  0.00    -0.491 OA
ATOM     24  C   UNL     1       2.583   3.002   1.823  0.00  0.00    +0.277 C 
ENDBRANCH  16  23
ENDBRANCH  12  13
ENDBRANCH   8  11
ENDBRANCH   4   7
BRANCH   1  25
ATOM     25  S   UNL     1      -2.461  -8.963   9.265  0.00  0.00    +0.072 S 
ATOM     26  O   UNL     1      -2.921  -9.964   8.368  0.00  0.00    -0.150 OA
ATOM     27  O   UNL     1      -1.415  -9.198  10.197  0.00  0.00    -0.150 OA
BRANCH  25  28
ATOM     28  N   UNL     1      -3.777  -8.475  10.144  0.00  0.00    -0.213 N 
ATOM     29  H   UNL     1      -3.743  -8.483  11.113  0.00  0.00    +0.174 HD
BRANCH  28  35
ATOM     30  C   UNL     1      -6.898  -8.893   6.368  0.00  0.00    +0.044 C 
ATOM     31  C   UNL     1      -6.475  -8.234   7.656  0.00  0.00    -0.048 A 
ATOM     32  C   UNL     1      -7.236  -7.210   8.189  0.00  0.00    +0.007 A 
ATOM     33  C   UNL     1      -6.854  -6.602   9.371  0.00  0.00    +0.048 A 
ATOM     34  C   UNL     1      -5.709  -7.022  10.027  0.00  0.00    +0.142 A 
ATOM     35  C   UNL     1      -4.938  -8.050   9.488  0.00  0.00    +0.090 A 
ATOM     36  C   UNL     1      -5.328  -8.655   8.302  0.00  0.00    +0.031 A 
BRANCH  34  37
ATOM     37  O   UNL     1      -5.335  -6.429  11.192  0.00  0.00    -0.493 OA
ATOM     38  C   UNL     1      -6.173  -5.382  11.686  0.00  0.00    +0.277 C 
ENDBRANCH  34  37
ENDBRANCH  28  35
ENDBRANCH  25  28
ENDBRANCH   1  25
TORSDOF 10
