REMARK  Name = ZINC36647993
REMARK  9 active torsions:
REMARK  status: ('A' for Active; 'I' for Inactive)
REMARK    1  A    between atoms: C_1  and  C_2
REMARK    2  A    between atoms: N_11  and  C_12
REMARK    3  A    between atoms: C_12  and  C_13
REMARK    4  A    between atoms: C_13  and  N_14
REMARK    5  A    between atoms: N_14  and  C_15
REMARK    6  A    between atoms: N_14  and  C_16
REMARK    7  A    between atoms: C_17  and  C_19
REMARK    8  A    between atoms: N_24  and  S_26
REMARK    9  A    between atoms: S_26  and  C_29
REMARK                            x       y       z     vdW  Elec       q    Type
REMARK                         _______ _______ _______ _____ _____    ______ ____
ROOT
ATOM      1  C   UNL     1      -0.720   1.512   0.115  0.00  0.00    +0.046 C 
ATOM      2  C   UNL     1      -0.448   0.031   0.060  0.00  0.00    -0.024 A 
ATOM      3  C   UNL     1      -0.473  -0.619  -1.146  0.00  0.00    +0.007 A 
ATOM      4  C   UNL     1      -0.228  -1.981  -1.242  0.00  0.00    +0.021 A 
ATOM      5  C   UNL     1       0.048  -2.702  -0.093  0.00  0.00    +0.057 A 
ATOM      6  C   UNL     1       0.075  -2.059   1.120  0.00  0.00    +0.059 A 
ATOM      7  C   UNL     1      -0.164  -0.672   1.254  0.00  0.00    +0.085 A 
ATOM      8  N   UNL     1      -0.097  -0.186   2.512  0.00  0.00    -0.224 NA
ATOM      9  C   UNL     1       0.177  -0.944   3.548  0.00  0.00    +0.168 A 
ATOM     10  S   UNL     1       0.374  -2.555   2.800  0.00  0.00    -0.050 S 
ATOM     11  N   UNL     1       0.279  -0.588   4.883  0.00  0.00    -0.252 N 
ATOM     12  C   UNL     1       0.183   0.707   5.245  0.00  0.00    +0.226 C 
ATOM     13  O   UNL     1       0.191   1.011   6.418  0.00  0.00    -0.275 OA
ATOM     14 CL   UNL     1       0.357  -4.407  -0.185  0.00  0.00    -0.082 Cl
ENDROOT
BRANCH  12  15
ATOM     15  C   UNL     1       0.067   1.776   4.190  0.00  0.00    +0.091 C 
ATOM     16  C   UNL     1       1.353   1.819   3.361  0.00  0.00    +0.015 C 
ATOM     17  C   UNL     1       1.223   2.883   2.268  0.00  0.00    +0.018 C 
ATOM     18  C   UNL     1       1.021   4.255   2.919  0.00  0.00    +0.109 C 
ATOM     19  N   UNL     1      -0.129   4.182   3.830  0.00  0.00    -0.175 NA
ATOM     20  C   UNL     1      -0.149   3.136   4.862  0.00  0.00    +0.122 C 
BRANCH  19  21
ATOM     21  S   UNL     1      -1.381   5.258   3.697  0.00  0.00    +0.067 S 
ATOM     22  O   UNL     1      -2.008   5.311   4.971  0.00  0.00    -0.152 OA
ATOM     23  O   UNL     1      -0.856   6.414   3.057  0.00  0.00    -0.152 OA
BRANCH  21  24
ATOM     24  C   UNL     1      -2.555   4.557   2.586  0.00  0.00    +0.143 A 
ATOM     25  C   UNL     1      -3.614   3.756   2.857  0.00  0.00    +0.036 A 
ATOM     26  C   UNL     1      -4.410   3.321   1.815  0.00  0.00    +0.010 A 
ATOM     27  C   UNL     1      -4.107   3.708   0.551  0.00  0.00    +0.047 A 
ATOM     28  S   UNL     1      -2.663   4.724   0.812  0.00  0.00    -0.077 S 
ENDBRANCH  21  24
ENDBRANCH  19  21
ENDBRANCH  12  15
BRANCH  11  29
ATOM     29  C   UNL     1       0.489  -1.619   5.902  0.00  0.00    +0.097 C 
BRANCH  29  30
ATOM     30  C   UNL     1       1.984  -1.929   6.013  0.00  0.00    -0.060 C 
BRANCH  30  31
ATOM     31  N   UNL     1       2.195  -2.963   7.035  0.00  0.00    +0.377 N 
ATOM     32  C   UNL     1       1.569  -4.219   6.598  0.00  0.00    -0.097 C 
ATOM     33  C   UNL     1       3.636  -3.176   7.226  0.00  0.00    -0.097 C 
ATOM     34  H   UNL     1       1.780  -2.666   7.905  0.00  0.00    -0.083 HD
ENDBRANCH  30  31
ENDBRANCH  29  30
ENDBRANCH  11  29
TORSDOF 6
