REMARK  Name = ZINC41424187
REMARK  5 active torsions:
REMARK  status: ('A' for Active; 'I' for Inactive)
REMARK    1  A    between atoms: C_1  and  C_2
REMARK    2  A    between atoms: C_5  and  S_8
REMARK    3  A    between atoms: S_8  and  N_11
REMARK    4  A    between atoms: C_16  and  C_23
REMARK    5  A    between atoms: C_20  and  C_22
REMARK                            x       y       z     vdW  Elec       q    Type
REMARK                         _______ _______ _______ _____ _____    ______ ____
ROOT
ATOM      1  N   UNL     1       1.065  -7.162  -0.482  0.00  0.00    -0.072 NA
ATOM      2  C   UNL     1       2.029  -6.290  -0.540  0.00  0.00    +0.354 C 
ATOM      3  O   UNL     1       1.753  -4.995  -0.807  0.00  0.00    -0.246 OA
ATOM      4  N   UNL     1       3.327  -6.687  -0.330  0.00  0.00    -0.273 N 
ATOM      5  C   UNL     1       4.441  -5.737  -0.469  0.00  0.00    +0.146 C 
ATOM      6  C   UNL     1       5.501  -6.364  -1.383  0.00  0.00    +0.166 C 
ATOM      7  O   UNL     1       5.833  -7.665  -0.893  0.00  0.00    -0.369 OA
ATOM      8  C   UNL     1       4.742  -8.588  -0.896  0.00  0.00    +0.183 C 
ATOM      9  C   UNL     1       3.644  -8.074   0.048  0.00  0.00    +0.100 C 
ATOM     10  C   UNL     1       2.393  -8.944  -0.091  0.00  0.00    +0.030 C 
ENDROOT
BRANCH   6  11
ATOM     11  C   UNL     1       6.734  -5.498  -1.392  0.00  0.00    -0.017 A 
ATOM     12  C   UNL     1       7.693  -5.650  -0.408  0.00  0.00    +0.006 A 
ATOM     13  C   UNL     1       8.824  -4.855  -0.417  0.00  0.00    +0.000 A 
ATOM     14  C   UNL     1       8.997  -3.909  -1.410  0.00  0.00    +0.000 A 
ATOM     15  C   UNL     1       8.038  -3.758  -2.394  0.00  0.00    +0.000 A 
ATOM     16  C   UNL     1       6.909  -4.555  -2.388  0.00  0.00    +0.006 A 
ENDBRANCH   6  11
BRANCH   1  17
ATOM     17  S   UNL     1      -0.500  -6.684  -0.736  0.00  0.00    +0.103 S 
ATOM     18  O   UNL     1      -0.584  -6.272  -2.093  0.00  0.00    -0.146 OA
ATOM     19  O   UNL     1      -0.842  -5.825   0.343  0.00  0.00    -0.146 OA
BRANCH  17  24
ATOM     20  C   UNL     1      -3.976 -11.587  -0.204  0.00  0.00    +0.044 C 
ATOM     21  C   UNL     1      -3.107 -10.363  -0.337  0.00  0.00    -0.050 A 
ATOM     22  C   UNL     1      -2.833  -9.587   0.774  0.00  0.00    +0.005 A 
ATOM     23  C   UNL     1      -2.036  -8.463   0.652  0.00  0.00    +0.029 A 
ATOM     24  C   UNL     1      -1.514  -8.116  -0.580  0.00  0.00    +0.113 A 
ATOM     25  C   UNL     1      -1.788  -8.893  -1.691  0.00  0.00    +0.029 A 
ATOM     26  C   UNL     1      -2.581 -10.019  -1.568  0.00  0.00    +0.005 A 
ENDBRANCH  17  24
ENDBRANCH   1  17
TORSDOF 3
