REMARK  Name = ZINC15957669
REMARK  8 active torsions:
REMARK  status: ('A' for Active; 'I' for Inactive)
REMARK    1  A    between atoms: C_1  and  C_2
REMARK    2  A    between atoms: C_2  and  C_3
REMARK    3  A    between atoms: C_3  and  C_4
REMARK    4  A    between atoms: C_4  and  C_5
REMARK    5  A    between atoms: C_8  and  N_11
REMARK    6  A    between atoms: C_16  and  C_35
REMARK    7  A    between atoms: C_28  and  C_33
REMARK    8  A    between atoms: C_35  and  C_36
REMARK                            x       y       z     vdW  Elec       q    Type
REMARK                         _______ _______ _______ _____ _____    ______ ____
ROOT
ATOM      1  N   UNL     1       3.396  -3.858  -5.935  0.00  0.00    -0.210 N 
ATOM      2  C   UNL     1       2.744  -4.184  -7.057  0.00  0.00    +0.232 C 
ATOM      3  O   UNL     1       1.542  -4.135  -7.208  0.00  0.00    -0.274 OA
ATOM      4  C   UNL     1       3.739  -4.624  -8.106  0.00  0.00    +0.108 C 
ATOM      5  C   UNL     1       3.551  -6.129  -8.389  0.00  0.00    +0.076 C 
ATOM      6  N   UNL     1       4.390  -6.817  -7.373  0.00  0.00    -0.295 NA
ATOM      7  C   UNL     1       5.595  -5.974  -7.268  0.00  0.00    +0.136 C 
ATOM      8  C   UNL     1       5.106  -4.508  -7.375  0.00  0.00    +0.123 C 
ATOM      9  C   UNL     1       4.725  -3.993  -6.005  0.00  0.00    +0.233 C 
ATOM     10  O   UNL     1       5.502  -3.744  -5.109  0.00  0.00    -0.274 OA
ATOM     11  C   UNL     1       6.591  -6.297  -8.345  0.00  0.00    +0.004 A 
ATOM     12  C   UNL     1       6.539  -6.277  -9.722  0.00  0.00    +0.009 A 
ATOM     13  C   UNL     1       7.650  -6.639 -10.462  0.00  0.00    +0.021 A 
ATOM     14  C   UNL     1       8.813  -7.021  -9.816  0.00  0.00    +0.046 A 
ATOM     15  C   UNL     1       8.870  -7.042  -8.437  0.00  0.00    -0.011 A 
ATOM     16  C   UNL     1       7.755  -6.679  -7.685  0.00  0.00    +0.043 A 
ATOM     17  N   UNL     1       7.567  -6.621  -6.302  0.00  0.00    -0.283 N 
ATOM     18  C   UNL     1       6.324  -6.217  -5.975  0.00  0.00    +0.243 C 
ATOM     19  O   UNL     1       5.880  -6.075  -4.855  0.00  0.00    -0.273 OA
ATOM     20  C   UNL     1      10.141  -7.458  -7.743  0.00  0.00    +0.047 C 
ATOM     21 CL   UNL     1      10.208  -7.476 -10.745  0.00  0.00    -0.083 Cl
ATOM     22  H   UNL     1       3.911  -6.875  -6.487  0.00  0.00    +0.124 HD
ATOM     23  H   UNL     1       8.251  -6.847  -5.653  0.00  0.00    +0.155 HD
ENDROOT
BRANCH   1  27
ATOM     24  C   UNL     1       1.444  -2.512  -2.506  0.00  0.00    -0.047 A 
ATOM     25  C   UNL     1       2.261  -1.652  -3.217  0.00  0.00    +0.005 A 
ATOM     26  C   UNL     1       2.909  -2.095  -4.353  0.00  0.00    +0.024 A 
ATOM     27  C   UNL     1       2.739  -3.405  -4.782  0.00  0.00    +0.044 A 
ATOM     28  C   UNL     1       1.918  -4.266  -4.066  0.00  0.00    +0.024 A 
ATOM     29  C   UNL     1       1.276  -3.818  -2.927  0.00  0.00    +0.005 A 
BRANCH  24  30
ATOM     30  C   UNL     1       0.738  -2.025  -1.267  0.00  0.00    +0.035 C 
BRANCH  30  31
ATOM     31  C   UNL     1       1.629  -2.263  -0.046  0.00  0.00    +0.004 C 
BRANCH  31  33
ATOM     32  C   UNL     1       1.803  -2.007   2.433  0.00  0.00    +0.004 C 
ATOM     33  C   UNL     1       0.912  -1.769   1.212  0.00  0.00    -0.003 C 
ENDBRANCH  31  33
ENDBRANCH  30  31
ENDBRANCH  24  30
ENDBRANCH   1  27
BRANCH   5  34
ATOM     34  C   UNL     1       2.081  -6.522  -8.224  0.00  0.00    +0.115 C 
BRANCH  34  35
ATOM     35  C   UNL     1       1.899  -7.964  -8.623  0.00  0.00    +0.212 C 
ATOM     36  O   UNL     1       2.850  -8.613  -9.003  0.00  0.00    -0.276 OA
ATOM     37  N   UNL     1       0.678  -8.531  -8.558  0.00  0.00    -0.329 N 
ATOM     38  H   UNL     1      -0.083  -8.012  -8.255  0.00  0.00    +0.145 HD
ATOM     39  H   UNL     1       0.560  -9.459  -8.815  0.00  0.00    +0.145 HD
ENDBRANCH  34  35
ENDBRANCH   5  34
TORSDOF 6
