REMARK  Name = ZINC01897286
REMARK  7 active torsions:
REMARK  status: ('A' for Active; 'I' for Inactive)
REMARK    1  A    between atoms: C_1  and  C_2
REMARK    2  A    between atoms: C_5  and  C_8
REMARK    3  A    between atoms: C_8  and  C_10
REMARK    4  A    between atoms: C_12  and  C_37
REMARK    5  A    between atoms: C_30  and  C_36
REMARK    6  A    between atoms: C_33  and  C_35
REMARK    7  A    between atoms: C_37  and  C_39
REMARK                            x       y       z     vdW  Elec       q    Type
REMARK                         _______ _______ _______ _____ _____    ______ ____
ROOT
ATOM      1  C   UNL     1       0.079  -5.010   1.270  0.00  0.00    +0.157 C 
ATOM      2  C   UNL     1       1.497  -4.982   1.909  0.00  0.00    +0.110 C 
ATOM      3  C   UNL     1       2.217  -6.093   1.117  0.00  0.00    +0.108 C 
ATOM      4  C   UNL     1       3.328  -6.703   1.901  0.00  0.00    -0.008 A 
ATOM      5  C   UNL     1       3.349  -7.359   3.113  0.00  0.00    +0.006 A 
ATOM      6  C   UNL     1       4.583  -7.814   3.564  0.00  0.00    +0.000 A 
ATOM      7  C   UNL     1       5.734  -7.616   2.830  0.00  0.00    +0.002 A 
ATOM      8  C   UNL     1       5.723  -6.957   1.611  0.00  0.00    +0.023 A 
ATOM      9  C   UNL     1       4.491  -6.494   1.146  0.00  0.00    +0.038 A 
ATOM     10  N   UNL     1       4.192  -5.810  -0.020  0.00  0.00    -0.284 N 
ATOM     11  C   UNL     1       2.873  -5.530  -0.119  0.00  0.00    +0.231 C 
ATOM     12  O   UNL     1       2.325  -4.941  -1.025  0.00  0.00    -0.274 OA
ATOM     13  C   UNL     1       1.124  -7.098   0.764  0.00  0.00    +0.118 C 
ATOM     14  N   UNL     1      -0.175  -6.434   1.041  0.00  0.00    -0.311 N 
ATOM     15  C   UNL     1      -1.362  -7.150   1.116  0.00  0.00    +0.038 A 
ATOM     16  C   UNL     1      -2.592  -6.638   0.767  0.00  0.00    +0.024 A 
ATOM     17  C   UNL     1      -3.717  -7.440   0.861  0.00  0.00    +0.005 A 
ATOM     18  C   UNL     1      -3.610  -8.749   1.301  0.00  0.00    -0.050 A 
ATOM     19  C   UNL     1      -2.383  -9.273   1.660  0.00  0.00    +0.013 A 
ATOM     20  C   UNL     1      -1.246  -8.477   1.579  0.00  0.00    -0.001 A 
ATOM     21  C   UNL     1       0.084  -8.970   1.987  0.00  0.00    -0.044 C 
ATOM     22  C   UNL     1       1.210  -8.341   1.608  0.00  0.00    +0.000 C 
ATOM     23  C   UNL     1       0.186 -10.210   2.838  0.00  0.00    +0.044 C 
ATOM     24  C   UNL     1      -4.843  -9.610   1.388  0.00  0.00    +0.044 C 
ATOM     25  H   UNL     1       4.851  -5.561  -0.687  0.00  0.00    +0.155 HD
ENDROOT
BRANCH   1  26
ATOM     26  C   UNL     1       0.070  -4.253  -0.033  0.00  0.00    +0.184 C 
ATOM     27  O   UNL     1       0.080  -4.857  -1.085  0.00  0.00    -0.290 OA
BRANCH  26  32
ATOM     28  C   UNL     1      -0.013   1.495  -0.021  0.00  0.00    +0.044 C 
ATOM     29  C   UNL     1       0.009  -0.012  -0.024  0.00  0.00    -0.050 A 
ATOM     30  C   UNL     1       0.022  -0.698  -1.226  0.00  0.00    +0.004 A 
ATOM     31  C   UNL     1       0.042  -2.076  -1.238  0.00  0.00    +0.012 A 
ATOM     32  C   UNL     1       0.050  -2.782  -0.030  0.00  0.00    +0.019 A 
ATOM     33  C   UNL     1       0.038  -2.082   1.180  0.00  0.00    +0.012 A 
ATOM     34  C   UNL     1       0.023  -0.703   1.175  0.00  0.00    +0.004 A 
ENDBRANCH  26  32
ENDBRANCH   1  26
BRANCH   2  35
ATOM     35  C   UNL     1       2.161  -3.647   1.693  0.00  0.00    +0.171 C 
ATOM     36  O   UNL     1       2.436  -3.281   0.570  0.00  0.00    -0.292 OA
BRANCH  35  37
ATOM     37  C   UNL     1       2.475  -2.787   2.844  0.00  0.00    +0.036 A 
ATOM     38  C   UNL     1       2.165  -3.208   4.141  0.00  0.00    +0.013 A 
ATOM     39  C   UNL     1       2.463  -2.397   5.215  0.00  0.00    +0.001 A 
ATOM     40  C   UNL     1       3.067  -1.167   5.013  0.00  0.00    +0.001 A 
ATOM     41  C   UNL     1       3.378  -0.743   3.734  0.00  0.00    +0.021 A 
ATOM     42  C   UNL     1       3.092  -1.546   2.647  0.00  0.00    +0.051 A 
ATOM     43 CL   UNL     1       3.489  -1.015   1.043  0.00  0.00    -0.083 Cl
ENDBRANCH  35  37
ENDBRANCH   2  35
TORSDOF 4
