REMARK  Name = ZINC28057106
REMARK  4 active torsions:
REMARK  status: ('A' for Active; 'I' for Inactive)
REMARK    1  A    between atoms: C_1  and  O_2
REMARK    2  A    between atoms: O_2  and  C_3
REMARK    3  A    between atoms: C_7  and  C_9
REMARK    4  A    between atoms: C_20  and  C_22
REMARK                            x       y       z     vdW  Elec       q    Type
REMARK                         _______ _______ _______ _____ _____    ______ ____
ROOT
ATOM      1  C   UNL     1      -5.001   3.765   0.425  0.00  0.00    +0.174 C 
ATOM      2  C   UNL     1      -3.623   3.150   0.388  0.00  0.00    +0.025 C 
ATOM      3  C   UNL     1      -2.540   3.846   0.038  0.00  0.00    +0.050 C 
ATOM      4  C   UNL     1      -1.229   3.154   0.028  0.00  0.00    +0.039 A 
ATOM      5  C   UNL     1      -0.033   3.861   0.022  0.00  0.00    +0.033 A 
ATOM      6  C   UNL     1       1.165   3.171   0.008  0.00  0.00    +0.042 A 
ATOM      7  C   UNL     1       1.175   1.786   0.000  0.00  0.00    +0.023 A 
ATOM      8  C   UNL     1      -0.013   1.076   0.008  0.00  0.00    +0.048 A 
ATOM      9  C   UNL     1      -1.218   1.753   0.017  0.00  0.00    +0.131 A 
ATOM     10  O   UNL     1      -2.404   1.093   0.036  0.00  0.00    -0.479 OA
ATOM     11  C   UNL     1      -3.473   1.694   0.767  0.00  0.00    +0.234 C 
ATOM     12 CL   UNL     1       2.665   4.045   0.001  0.00  0.00    -0.084 Cl
ATOM     13  N   UNL     1      -2.604   5.197  -0.323  0.00  0.00    -0.282 N 
ATOM     14  C   UNL     1      -3.857   5.726  -0.583  0.00  0.00    +0.240 A 
ATOM     15  N   UNL     1      -4.991   5.058  -0.243  0.00  0.00    -0.201 N 
ATOM     16  N   UNL     1      -6.042   5.871  -0.665  0.00  0.00    -0.042 NA
ATOM     17  N   UNL     1      -5.505   6.922  -1.196  0.00  0.00    -0.021 NA
ATOM     18  N   UNL     1      -4.219   6.841  -1.149  0.00  0.00    -0.092 NA
ATOM     19  H   UNL     1      -1.681   5.793  -0.391  0.00  0.00    +0.155 HD
ENDROOT
BRANCH  11  20
ATOM     20  C   UNL     1      -3.185   1.592   2.242  0.00  0.00    -0.000 A 
ATOM     21  C   UNL     1      -4.202   1.275   3.124  0.00  0.00    +0.009 A 
ATOM     22  C   UNL     1      -3.940   1.181   4.478  0.00  0.00    +0.023 A 
ATOM     23  C   UNL     1      -2.660   1.402   4.952  0.00  0.00    +0.076 A 
ATOM     24  C   UNL     1      -1.640   1.718   4.069  0.00  0.00    +0.142 A 
ATOM     25  C   UNL     1      -1.904   1.808   2.713  0.00  0.00    +0.047 A 
ATOM     26  F   UNL     1      -0.389   1.934   4.530  0.00  0.00    -0.204 F 
ATOM     27 CL   UNL     1      -2.331   1.284   6.652  0.00  0.00    -0.081 Cl
ENDBRANCH  11  20
BRANCH   1  32
ATOM     28  C   UNL     1      -6.957   3.492   3.647  0.00  0.00    +0.120 A 
ATOM     29  C   UNL     1      -6.205   4.294   4.493  0.00  0.00    +0.045 A 
ATOM     30  C   UNL     1      -5.069   4.920   4.020  0.00  0.00    +0.004 A 
ATOM     31  C   UNL     1      -4.680   4.748   2.704  0.00  0.00    +0.006 A 
ATOM     32  C   UNL     1      -5.427   3.949   1.859  0.00  0.00    -0.015 A 
ATOM     33  C   UNL     1      -6.567   3.325   2.326  0.00  0.00    +0.051 A 
BRANCH  28  35
ATOM     34  C   UNL     1      -8.420   3.097   5.479  0.00  0.00    +0.277 C 
ATOM     35  O   UNL     1      -8.076   2.875   4.109  0.00  0.00    -0.495 OA
ENDBRANCH  28  35
ENDBRANCH   1  32
TORSDOF 3
