REMARK  Name = ZINC21248358
REMARK  10 active torsions:
REMARK  status: ('A' for Active; 'I' for Inactive)
REMARK    1  A    between atoms: C_1  and  C_2
REMARK    2  A    between atoms: C_2  and  O_3
REMARK    3  A    between atoms: O_3  and  C_4
REMARK    4  A    between atoms: C_7  and  C_10
REMARK    5  A    between atoms: C_15  and  C_21
REMARK    6  A    between atoms: C_23  and  O_31
REMARK    7  A    between atoms: C_24  and  O_28
REMARK    8  A    between atoms: O_28  and  C_29
REMARK    9  A    between atoms: C_29  and  C_30
REMARK   10  A    between atoms: O_31  and  C_32
REMARK                            x       y       z     vdW  Elec       q    Type
REMARK                         _______ _______ _______ _____ _____    ______ ____
ROOT
ATOM      1  C   UNL     1      -2.513   0.977   0.019  0.00  0.00    +0.032 C 
ATOM      2  C   UNL     1      -3.330   1.339  -1.223  0.00  0.00    +0.059 C 
ATOM      3  C   UNL     1      -4.646   0.603  -1.196  0.00  0.00    +0.018 C 
ATOM      4  C   UNL     1      -5.240   0.291  -0.025  0.00  0.00    +0.020 C 
ATOM      5  C   UNL     1      -6.561  -0.442  -0.022  0.00  0.00    +0.063 C 
ATOM      6  C   UNL     1      -7.398   0.015  -1.219  0.00  0.00    +0.109 C 
ATOM      7  C   UNL     1      -6.545  -0.024  -2.461  0.00  0.00    +0.218 C 
ATOM      8  O   UNL     1      -7.044  -0.307  -3.529  0.00  0.00    -0.275 OA
ATOM      9  N   UNL     1      -5.232   0.255  -2.387  0.00  0.00    -0.289 N 
ATOM     10  C   UNL     1      -4.654   0.631   1.206  0.00  0.00    +0.162 C 
ATOM     11  O   UNL     1      -5.226   0.346   2.239  0.00  0.00    -0.292 OA
ATOM     12  C   UNL     1      -3.329   1.343   1.264  0.00  0.00    +0.088 C 
ATOM     13  H   UNL     1      -4.626   0.201  -3.303  0.00  0.00    +0.155 HD
ENDROOT
BRANCH   5  14
ATOM     14  C   UNL     1      -6.313  -1.925  -0.119  0.00  0.00    -0.035 A 
ATOM     15  C   UNL     1      -6.755  -2.765   0.886  0.00  0.00    +0.053 A 
ATOM     16  C   UNL     1      -6.527  -4.129   0.799  0.00  0.00    +0.163 A 
ATOM     17  C   UNL     1      -5.854  -4.651  -0.302  0.00  0.00    +0.176 A 
ATOM     18  C   UNL     1      -5.414  -3.803  -1.306  0.00  0.00    +0.063 A 
ATOM     19  C   UNL     1      -5.649  -2.443  -1.215  0.00  0.00    +0.023 A 
ATOM     20 BR   UNL     1      -4.499  -4.507  -2.804  0.00  0.00    -0.046 Br
BRANCH  16  21
ATOM     21  O   UNL     1      -6.961  -4.957   1.787  0.00  0.00    -0.491 OA
ATOM     22  C   UNL     1      -7.644  -4.352   2.887  0.00  0.00    +0.277 C 
ENDBRANCH  16  21
BRANCH  17  23
ATOM     23  O   UNL     1      -5.628  -5.989  -0.391  0.00  0.00    -0.487 OA
BRANCH  23  24
ATOM     24  C   UNL     1      -6.629  -6.774  -1.043  0.00  0.00    +0.226 C 
ATOM     25  C   UNL     1      -6.203  -8.243  -1.047  0.00  0.00    +0.048 C 
ENDBRANCH  23  24
ENDBRANCH  17  23
ENDBRANCH   5  14
BRANCH   1  29
ATOM     26  C   UNL     1       1.155   3.169   0.008  0.00  0.00    +0.121 A 
ATOM     27  C   UNL     1       1.175   1.782   0.000  0.00  0.00    +0.046 A 
ATOM     28  C   UNL     1      -0.013   1.076   0.008  0.00  0.00    +0.007 A 
ATOM     29  C   UNL     1      -1.220   1.750   0.017  0.00  0.00    -0.043 A 
ATOM     30  C   UNL     1      -1.242   3.133   0.031  0.00  0.00    +0.007 A 
ATOM     31  C   UNL     1      -0.057   3.844   0.023  0.00  0.00    +0.046 A 
BRANCH  26  32
ATOM     32  O   UNL     1       2.322   3.866   0.001  0.00  0.00    -0.492 OA
BRANCH  32  34
ATOM     33  C   UNL     1       3.630   5.898   0.000  0.00  0.00    +0.048 C 
ATOM     34  C   UNL     1       2.225   5.292   0.010  0.00  0.00    +0.225 C 
ENDBRANCH  32  34
ENDBRANCH  26  32
ENDBRANCH   1  29
TORSDOF 7
