REMARK  Name = ZINC15959558
REMARK  7 active torsions:
REMARK  status: ('A' for Active; 'I' for Inactive)
REMARK    1  A    between atoms: C_1  and  C_2
REMARK    2  A    between atoms: C_16  and  C_19
REMARK    3  A    between atoms: C_19  and  C_20
REMARK    4  A    between atoms: C_23  and  O_26
REMARK    5  A    between atoms: N_29  and  C_32
REMARK    6  A    between atoms: C_32  and  C_33
REMARK    7  A    between atoms: C_33  and  C_34
REMARK                            x       y       z     vdW  Elec       q    Type
REMARK                         _______ _______ _______ _____ _____    ______ ____
ROOT
ATOM      1  C   UNL     1      -0.018   1.503   0.010  0.00  0.00    +0.047 C 
ATOM      2  C   UNL     1       0.002  -0.004   0.002  0.00  0.00    -0.011 A 
ATOM      3  C   UNL     1       0.006  -0.686  -1.199  0.00  0.00    +0.046 A 
ATOM      4  C   UNL     1       0.024  -2.070  -1.216  0.00  0.00    +0.021 A 
ATOM      5  C   UNL     1       0.040  -2.772  -0.024  0.00  0.00    +0.009 A 
ATOM      6  C   UNL     1       0.037  -2.096   1.175  0.00  0.00    +0.004 A 
ATOM      7  C   UNL     1       0.023  -0.705   1.205  0.00  0.00    +0.043 A 
ATOM      8  N   UNL     1       0.028  -0.250   2.526  0.00  0.00    -0.283 N 
ATOM      9  C   UNL     1       0.050  -1.264   3.412  0.00  0.00    +0.243 C 
ATOM     10  O   UNL     1       0.058  -1.169   4.621  0.00  0.00    -0.273 OA
ATOM     11  C   UNL     1       0.051  -2.538   2.611  0.00  0.00    +0.136 C 
ATOM     12  C   UNL     1      -1.157  -3.424   2.941  0.00  0.00    +0.122 C 
ATOM     13  C   UNL     1      -0.611  -4.467   3.955  0.00  0.00    +0.107 C 
ATOM     14  C   UNL     1       0.877  -4.101   4.138  0.00  0.00    +0.072 C 
ATOM     15  N   UNL     1       1.244  -3.349   2.917  0.00  0.00    -0.295 NA
ATOM     16  C   UNL     1      -1.374  -4.152   5.222  0.00  0.00    +0.227 C 
ATOM     17  O   UNL     1      -1.254  -4.739   6.276  0.00  0.00    -0.275 OA
ATOM     18  N   UNL     1      -2.202  -3.125   5.000  0.00  0.00    -0.241 N 
ATOM     19  C   UNL     1      -2.168  -2.634   3.740  0.00  0.00    +0.228 C 
ATOM     20  O   UNL     1      -2.831  -1.712   3.315  0.00  0.00    -0.275 OA
ATOM     21 CL   UNL     1      -0.013   0.197  -2.694  0.00  0.00    -0.083 Cl
ATOM     22  H   UNL     1       0.016   0.687   2.776  0.00  0.00    +0.155 HD
ATOM     23  H   UNL     1       1.452  -3.985   2.161  0.00  0.00    +0.124 HD
ENDROOT
BRANCH  14  24
ATOM     24  C   UNL     1       1.724  -5.367   4.280  0.00  0.00    +0.054 C 
BRANCH  24  25
ATOM     25  C   UNL     1       3.151  -4.986   4.580  0.00  0.00    -0.046 A 
ATOM     26  C   UNL     1       4.042  -4.778   3.543  0.00  0.00    +0.007 A 
ATOM     27  C   UNL     1       5.351  -4.430   3.816  0.00  0.00    +0.045 A 
ATOM     28  C   UNL     1       5.770  -4.288   5.130  0.00  0.00    +0.117 A 
ATOM     29  C   UNL     1       4.874  -4.496   6.168  0.00  0.00    +0.045 A 
ATOM     30  C   UNL     1       3.565  -4.840   5.891  0.00  0.00    +0.007 A 
BRANCH  28  31
ATOM     31  O   UNL     1       7.057  -3.945   5.400  0.00  0.00    -0.507 OA
ATOM     32  H   UNL     1       7.207  -2.991   5.457  0.00  0.00    +0.292 HD
ENDBRANCH  28  31
ENDBRANCH  24  25
ENDBRANCH  14  24
BRANCH  18  33
ATOM     33  C   UNL     1      -3.083  -2.579   6.035  0.00  0.00    +0.121 C 
BRANCH  33  34
ATOM     34  C   UNL     1      -2.353  -1.466   6.790  0.00  0.00    +0.054 C 
BRANCH  34  35
ATOM     35  C   UNL     1      -3.258  -0.904   7.856  0.00  0.00    -0.046 A 
ATOM     36  C   UNL     1      -4.096   0.155   7.561  0.00  0.00    +0.004 A 
ATOM     37  C   UNL     1      -4.927   0.671   8.538  0.00  0.00    +0.000 A 
ATOM     38  C   UNL     1      -4.921   0.127   9.809  0.00  0.00    +0.000 A 
ATOM     39  C   UNL     1      -4.083  -0.933  10.103  0.00  0.00    +0.000 A 
ATOM     40  C   UNL     1      -3.256  -1.452   9.125  0.00  0.00    +0.004 A 
ENDBRANCH  34  35
ENDBRANCH  33  34
ENDBRANCH  18  33
TORSDOF 6
