REMARK  Name = ZINC14643887
REMARK  9 active torsions:
REMARK  status: ('A' for Active; 'I' for Inactive)
REMARK    1  A    between atoms: C_1  and  C_2
REMARK    2  A    between atoms: C_2  and  C_4
REMARK    3  A    between atoms: C_2  and  O_19
REMARK    4  A    between atoms: N_6  and  C_7
REMARK    5  A    between atoms: C_10  and  S_13
REMARK    6  A    between atoms: S_13  and  N_16
REMARK    7  A    between atoms: N_16  and  C_17
REMARK    8  A    between atoms: N_16  and  C_18
REMARK    9  A    between atoms: O_19  and  C_20
REMARK                            x       y       z     vdW  Elec       q    Type
REMARK                         _______ _______ _______ _____ _____    ______ ____
ROOT
ATOM      1  C   UNL     1       4.745  -4.136  -0.952  0.00  0.00    +0.258 C 
ATOM      2  O   UNL     1       5.657  -4.479  -1.674  0.00  0.00    -0.271 OA
ATOM      3  N   UNL     1       3.712  -4.973  -0.729  0.00  0.00    -0.282 N 
ATOM      4  H   UNL     1       2.948  -4.674  -0.212  0.00  0.00    +0.155 HD
ENDROOT
BRANCH   3   5
ATOM      5  C   UNL     1       3.742  -6.274  -1.243  0.00  0.00    +0.034 A 
ATOM      6  C   UNL     1       2.564  -6.893  -1.640  0.00  0.00    +0.025 A 
ATOM      7  C   UNL     1       2.598  -8.175  -2.153  0.00  0.00    +0.030 A 
ATOM      8  C   UNL     1       3.802  -8.847  -2.260  0.00  0.00    +0.106 A 
ATOM      9  C   UNL     1       4.976  -8.236  -1.859  0.00  0.00    +0.030 A 
ATOM     10  C   UNL     1       4.950  -6.952  -1.351  0.00  0.00    +0.025 A 
BRANCH   8  11
ATOM     11  S   UNL     1       3.840 -10.485  -2.907  0.00  0.00    +0.060 S 
ATOM     12  O   UNL     1       2.681 -10.629  -3.717  0.00  0.00    -0.153 OA
ATOM     13  O   UNL     1       5.152 -10.692  -3.412  0.00  0.00    -0.153 OA
BRANCH  11  14
ATOM     14  N   UNL     1       3.656 -11.521  -1.629  0.00  0.00    -0.183 NA
ATOM     15  C   UNL     1       2.315 -11.948  -1.219  0.00  0.00    +0.131 C 
ATOM     16  C   UNL     1       4.833 -12.012  -0.908  0.00  0.00    +0.131 C 
ENDBRANCH  11  14
ENDBRANCH   8  11
ENDBRANCH   3   5
BRANCH   1  18
ATOM     17  C   UNL     1       3.539  -1.978  -0.754  0.00  0.00    +0.062 C 
ATOM     18  C   UNL     1       4.765  -2.776  -0.305  0.00  0.00    +0.256 C 
BRANCH  18  19
ATOM     19  O   UNL     1       5.953  -2.082  -0.692  0.00  0.00    -0.479 OA
BRANCH  19  20
ATOM     20  C   UNL     1       6.406  -1.116   0.150  0.00  0.00    +0.136 A 
ATOM     21  C   UNL     1       5.660  -0.760   1.264  0.00  0.00    +0.048 A 
ATOM     22  C   UNL     1       6.121   0.222   2.119  0.00  0.00    +0.023 A 
ATOM     23  C   UNL     1       7.327   0.851   1.866  0.00  0.00    +0.042 A 
ATOM     24  C   UNL     1       8.074   0.498   0.755  0.00  0.00    +0.039 A 
ATOM     25  C   UNL     1       7.615  -0.484  -0.103  0.00  0.00    +0.061 A 
ATOM     26 BR   UNL     1       8.636  -0.967  -1.620  0.00  0.00    -0.046 Br
ATOM     27 CL   UNL     1       7.905   2.085   2.942  0.00  0.00    -0.084 Cl
ENDBRANCH  19  20
ENDBRANCH  18  19
ENDBRANCH   1  18
TORSDOF 6
