REMARK  Name = ZINC64058046
REMARK  11 active torsions:
REMARK  status: ('A' for Active; 'I' for Inactive)
REMARK    1  A    between atoms: C_1  and  C_2
REMARK    2  A    between atoms: C_4  and  C_9
REMARK    3  A    between atoms: C_5  and  C_8
REMARK    4  A    between atoms: C_9  and  O_10
REMARK    5  A    between atoms: O_10  and  C_11
REMARK    6  A    between atoms: C_14  and  C_17
REMARK    7  A    between atoms: C_17  and  C_18
REMARK    8  A    between atoms: C_23  and  C_26
REMARK    9  A    between atoms: C_26  and  C_27
REMARK   10  A    between atoms: N_33  and  C_34
REMARK   11  A    between atoms: C_34  and  C_35
REMARK                            x       y       z     vdW  Elec       q    Type
REMARK                         _______ _______ _______ _____ _____    ______ ____
ROOT
ATOM      1  C   UNL     1      -8.545  -1.734  -4.386  0.00  0.00    +0.223 C 
ATOM      2  O   UNL     1      -7.616  -2.508  -4.483  0.00  0.00    -0.275 OA
ATOM      3  N   UNL     1      -9.593  -1.830  -5.228  0.00  0.00    -0.264 N 
ATOM      4  C   UNL     1      -9.609  -2.816  -6.208  0.00  0.00    +0.165 A 
ATOM      5  N   UNL     1     -10.534  -3.055  -7.112  0.00  0.00    -0.229 NA
ATOM      6  C   UNL     1     -10.400  -4.039  -7.982  0.00  0.00    +0.058 A 
ATOM      7  C   UNL     1      -9.271  -4.786  -7.899  0.00  0.00    +0.072 A 
ATOM      8  S   UNL     1      -8.445  -3.989  -6.531  0.00  0.00    -0.060 S 
ATOM      9  H   UNL     1     -10.336  -1.212  -5.151  0.00  0.00    +0.157 HD
ENDROOT
BRANCH   1  10
ATOM     10  C   UNL     1      -8.528  -0.665  -3.324  0.00  0.00    +0.131 C 
BRANCH  10  14
ATOM     11  C   UNL     1      -4.922  -0.973  -1.051  0.00  0.00    +0.121 A 
ATOM     12  C   UNL     1      -4.963  -0.173  -2.184  0.00  0.00    +0.046 A 
ATOM     13  C   UNL     1      -6.130  -0.076  -2.917  0.00  0.00    +0.007 A 
ATOM     14  C   UNL     1      -7.256  -0.774  -2.522  0.00  0.00    -0.038 A 
ATOM     15  C   UNL     1      -7.218  -1.572  -1.393  0.00  0.00    +0.007 A 
ATOM     16  C   UNL     1      -6.051  -1.677  -0.660  0.00  0.00    +0.046 A 
BRANCH  11  17
ATOM     17  O   UNL     1      -3.775  -1.071  -0.328  0.00  0.00    -0.488 OA
BRANCH  17  18
ATOM     18  C   UNL     1      -2.651  -0.318  -0.789  0.00  0.00    +0.264 C 
BRANCH  18  21
ATOM     19  C   UNL     1      -0.391  -2.627  -0.725  0.00  0.00    +0.045 C 
ATOM     20  C   UNL     1      -0.902  -1.892   0.516  0.00  0.00    +0.176 C 
ATOM     21  C   UNL     1      -1.480  -0.550   0.130  0.00  0.00    +0.019 C 
ATOM     22  C   UNL     1      -0.777   0.380   0.741  0.00  0.00    +0.041 C 
ATOM     23  N   UNL     1       0.228  -0.179   1.510  0.00  0.00    -0.269 N 
ATOM     24  O   UNL     1       0.188  -1.593   1.402  0.00  0.00    -0.267 OA
ATOM     25  C   UNL     1      -1.033   1.860   0.619  0.00  0.00    +0.065 C 
ATOM     26  H   UNL     1       0.864   0.321   2.045  0.00  0.00    +0.194 HD
ENDBRANCH  18  21
ENDBRANCH  17  18
ENDBRANCH  11  17
ENDBRANCH  10  14
ENDBRANCH   1  10
BRANCH   6  27
ATOM     27  C   UNL     1     -11.455  -4.321  -9.021  0.00  0.00    +0.132 C 
BRANCH  27  28
ATOM     28  C   UNL     1     -12.786  -4.520  -8.343  0.00  0.00    +0.138 A 
ATOM     29  H   UNL     1     -14.807  -4.710  -5.980  0.00  0.00    +0.191 HD
ATOM     30  N   UNL     1     -13.000  -4.455  -7.068  0.00  0.00    -0.158 NA
ATOM     31  N   UNL     1     -14.362  -4.696  -6.841  0.00  0.00    -0.254 N 
ATOM     32  C   UNL     1     -14.938  -4.907  -8.043  0.00  0.00    +0.176 A 
ATOM     33  S   UNL     1     -16.591  -5.247  -8.330  0.00  0.00    -0.011 S 
ATOM     34  N   UNL     1     -13.972  -4.795  -8.978  0.00  0.00    -0.303 N 
BRANCH  34  35
ATOM     35  C   UNL     1     -14.157  -4.944 -10.424  0.00  0.00    +0.152 C 
BRANCH  35  36
ATOM     36  C   UNL     1     -13.957  -6.387 -10.809  0.00  0.00    -0.013 C 
ATOM     37  C   UNL     1     -14.893  -7.025 -11.467  0.00  0.00    +0.005 C 
ENDBRANCH  35  36
ENDBRANCH  34  35
ENDBRANCH  27  28
ENDBRANCH   6  27
TORSDOF 9
