REMARK  Name = ZINC14732282
REMARK  13 active torsions:
REMARK  status: ('A' for Active; 'I' for Inactive)
REMARK    1  A    between atoms: C_1  and  C_2
REMARK    2  A    between atoms: C_7  and  C_8
REMARK    3  A    between atoms: C_8  and  N_9
REMARK    4  A    between atoms: N_9  and  C_10
REMARK    5  A    between atoms: C_12  and  C_27
REMARK    6  A    between atoms: C_14  and  S_16
REMARK    7  A    between atoms: S_16  and  N_19
REMARK    8  A    between atoms: N_19  and  C_20
REMARK    9  A    between atoms: C_25  and  C_26
REMARK   10  A    between atoms: N_29  and  C_30
REMARK   11  A    between atoms: C_30  and  C_31
REMARK   12  A    between atoms: C_31  and  N_32
REMARK   13  A    between atoms: C_33  and  C_35
REMARK                            x       y       z     vdW  Elec       q    Type
REMARK                         _______ _______ _______ _____ _____    ______ ____
ROOT
ATOM      1  C   UNL     1       1.474   1.617  -4.033  0.00  0.00    +0.030 A 
ATOM      2  C   UNL     1       0.453   1.931  -4.917  0.00  0.00    +0.036 A 
ATOM      3  C   UNL     1       0.745   2.612  -6.098  0.00  0.00    +0.040 A 
ATOM      4  C   UNL     1       2.064   2.965  -6.388  0.00  0.00    +0.042 A 
ATOM      5  C   UNL     1       3.074   2.644  -5.504  0.00  0.00    +0.111 A 
ATOM      6  C   UNL     1       2.784   1.973  -4.330  0.00  0.00    +0.051 A 
ENDROOT
BRANCH   3   7
ATOM      7  C   UNL     1      -0.339   2.955  -7.044  0.00  0.00    +0.244 C 
ATOM      8  O   UNL     1      -0.082   3.545  -8.075  0.00  0.00    -0.270 OA
ATOM      9  N   UNL     1      -1.612   2.613  -6.763  0.00  0.00    -0.310 N 
ATOM     10  H   UNL     1      -1.817   2.142  -5.939  0.00  0.00    +0.149 HD
BRANCH   9  11
ATOM     11  C   UNL     1      -2.686   2.953  -7.699  0.00  0.00    +0.123 C 
BRANCH  11  12
ATOM     12  C   UNL     1      -4.023   2.456  -7.145  0.00  0.00    +0.123 C 
BRANCH  12  13
ATOM     13  N   UNL     1      -5.097   2.795  -8.082  0.00  0.00    -0.314 N 
ATOM     14  C   UNL     1      -6.370   2.454  -7.800  0.00  0.00    +0.210 C 
ATOM     15  O   UNL     1      -6.626   1.865  -6.771  0.00  0.00    -0.276 OA
ATOM     16  C   UNL     1      -7.474   2.803  -8.764  0.00  0.00    +0.109 C 
ATOM     17  H   UNL     1      -4.891   3.266  -8.905  0.00  0.00    +0.149 HD
ENDBRANCH  12  13
ENDBRANCH  11  12
ENDBRANCH   9  11
ENDBRANCH   3   7
BRANCH   5  18
ATOM     18  S   UNL     1       4.738   3.090  -5.872  0.00  0.00    +0.072 S 
ATOM     19  O   UNL     1       4.674   4.190  -6.769  0.00  0.00    -0.150 OA
ATOM     20  O   UNL     1       5.425   3.159  -4.630  0.00  0.00    -0.150 OA
BRANCH  18  21
ATOM     21  N   UNL     1       5.407   1.831  -6.714  0.00  0.00    -0.216 N 
ATOM     22  H   UNL     1       6.181   1.367  -6.358  0.00  0.00    +0.174 HD
BRANCH  21  23
ATOM     23  C   UNL     1       4.858   1.438  -7.937  0.00  0.00    +0.051 A 
ATOM     24  C   UNL     1       4.328   2.389  -8.800  0.00  0.00    +0.025 A 
ATOM     25  C   UNL     1       3.790   1.998 -10.009  0.00  0.00    +0.002 A 
ATOM     26  C   UNL     1       3.769   0.659 -10.358  0.00  0.00    +0.000 A 
ATOM     27  C   UNL     1       4.292  -0.290  -9.500  0.00  0.00    +0.005 A 
ATOM     28  C   UNL     1       4.836   0.095  -8.290  0.00  0.00    -0.028 A 
ATOM     29  C   UNL     1       5.405  -0.941  -7.355  0.00  0.00    +0.046 C 
ENDBRANCH  21  23
ENDBRANCH  18  21
ENDBRANCH   5  18
BRANCH   1  30
ATOM     30  N   UNL     1       1.187   0.939  -2.846  0.00  0.00    -0.340 N 
ATOM     31  H   UNL     1       1.901   0.716  -2.229  0.00  0.00    +0.146 HD
BRANCH  30  32
ATOM     32  C   UNL     1      -0.195   0.564  -2.532  0.00  0.00    +0.137 C 
BRANCH  32  39
ATOM     33  C   UNL     1      -0.123   2.077  -0.072  0.00  0.00    +0.044 C 
ATOM     34  C   UNL     1      -0.198   0.573  -0.029  0.00  0.00    -0.046 A 
ATOM     35  C   UNL     1      -0.239  -0.083   1.187  0.00  0.00    +0.003 A 
ATOM     36  C   UNL     1      -0.308  -1.463   1.226  0.00  0.00    +0.000 A 
ATOM     37  C   UNL     1      -0.337  -2.188   0.049  0.00  0.00    +0.000 A 
ATOM     38  C   UNL     1      -0.296  -1.532  -1.167  0.00  0.00    +0.005 A 
ATOM     39  C   UNL     1      -0.232  -0.151  -1.206  0.00  0.00    -0.028 A 
ENDBRANCH  32  39
ENDBRANCH  30  32
ENDBRANCH   1  30
TORSDOF 10
