REMARK  Name = ZINC07254589
REMARK  6 active torsions:
REMARK  status: ('A' for Active; 'I' for Inactive)
REMARK    1  A    between atoms: C_1  and  C_2
REMARK    2  A    between atoms: C_7  and  N_8
REMARK    3  A    between atoms: C_9  and  C_11
REMARK    4  A    between atoms: C_11  and  N_12
REMARK    5  A    between atoms: C_14  and  C_23
REMARK    6  A    between atoms: N_25  and  C_26
REMARK                            x       y       z     vdW  Elec       q    Type
REMARK                         _______ _______ _______ _____ _____    ______ ____
ROOT
ATOM      1  N   UNL     1       2.295   1.015   0.354  0.00  0.00    -0.314 N 
ATOM      2  C   UNL     1       3.629   1.617   0.243  0.00  0.00    +0.160 C 
ATOM      3  C   UNL     1       4.676   0.495   0.269  0.00  0.00    +0.276 C 
ATOM      4  O   UNL     1       4.467  -0.329  -0.883  0.00  0.00    -0.476 OA
ATOM      5  C   UNL     1       3.181  -0.678  -1.160  0.00  0.00    +0.143 A 
ATOM      6  C   UNL     1       2.109  -0.024  -0.563  0.00  0.00    +0.073 A 
ATOM      7  C   UNL     1       0.810  -0.408  -0.879  0.00  0.00    +0.027 A 
ATOM      8  C   UNL     1       0.586  -1.432  -1.778  0.00  0.00    +0.002 A 
ATOM      9  C   UNL     1       1.654  -2.083  -2.368  0.00  0.00    +0.004 A 
ATOM     10  C   UNL     1       2.948  -1.707  -2.061  0.00  0.00    +0.047 A 
ENDROOT
BRANCH   3  11
ATOM     11  C   UNL     1       6.060   1.088   0.228  0.00  0.00    +0.255 C 
ATOM     12  O   UNL     1       6.779   0.884  -0.727  0.00  0.00    -0.272 OA
ATOM     13  N   UNL     1       6.500   1.845   1.253  0.00  0.00    -0.315 N 
ATOM     14  C   UNL     1       7.846   2.422   1.213  0.00  0.00    +0.128 C 
ATOM     15  H   UNL     1       5.925   2.008   2.017  0.00  0.00    +0.148 HD
ENDBRANCH   3  11
BRANCH   1  16
ATOM     16  C   UNL     1       1.245   2.033   0.217  0.00  0.00    +0.201 C 
BRANCH  16  18
ATOM     17  N   UNL     1       0.238   3.378  -1.599  0.00  0.00    -0.284 N 
ATOM     18  C   UNL     1       1.205   2.524  -1.207  0.00  0.00    +0.235 C 
ATOM     19  O   UNL     1       2.046   2.156  -2.000  0.00  0.00    -0.274 OA
ATOM     20  H   UNL     1      -0.392   3.727  -0.949  0.00  0.00    +0.155 HD
BRANCH  17  27
ATOM     21  C   UNL     1      -2.349   3.853  -2.682  0.00  0.00    +0.046 C 
ATOM     22  C   UNL     1      -1.099   4.003  -3.510  0.00  0.00    -0.028 A 
ATOM     23  C   UNL     1      -1.189   4.385  -4.834  0.00  0.00    +0.020 A 
ATOM     24  C   UNL     1      -0.042   4.517  -5.597  0.00  0.00    +0.018 A 
ATOM     25  C   UNL     1       1.198   4.271  -5.034  0.00  0.00    +0.017 A 
ATOM     26  C   UNL     1       1.294   3.893  -3.709  0.00  0.00    +0.024 A 
ATOM     27  C   UNL     1       0.144   3.760  -2.942  0.00  0.00    +0.036 A 
ATOM     28 BR   UNL     1      -0.170   5.034  -7.411  0.00  0.00    -0.050 Br
ENDBRANCH  17  27
ENDBRANCH  16  18
ENDBRANCH   1  16
TORSDOF 4
