REMARK  Name = ZINC58918422
REMARK  9 active torsions:
REMARK  status: ('A' for Active; 'I' for Inactive)
REMARK    1  A    between atoms: C_1  and  S_2
REMARK    2  A    between atoms: S_2  and  C_3
REMARK    3  A    between atoms: C_6  and  C_9
REMARK    4  A    between atoms: N_10  and  N_11
REMARK    5  A    between atoms: C_12  and  C_14
REMARK    6  A    between atoms: C_14  and  N_15
REMARK    7  A    between atoms: N_15  and  C_16
REMARK    8  A    between atoms: N_15  and  S_23
REMARK    9  A    between atoms: S_23  and  C_26
REMARK                            x       y       z     vdW  Elec       q    Type
REMARK                         _______ _______ _______ _____ _____    ______ ____
ROOT
ATOM      1  N   UNL     1       4.752  -6.030  -8.278  0.00  0.00    -0.194 N 
ENDROOT
BRANCH   1   2
ATOM      2  C   UNL     1       3.667  -6.566  -8.976  0.00  0.00    +0.052 A 
ATOM      3  C   UNL     1       3.457  -7.939  -8.988  0.00  0.00    +0.026 A 
ATOM      4  C   UNL     1       2.383  -8.466  -9.678  0.00  0.00    +0.017 A 
ATOM      5  C   UNL     1       1.517  -7.628 -10.358  0.00  0.00    +0.018 A 
ATOM      6  C   UNL     1       1.724  -6.260 -10.348  0.00  0.00    +0.017 A 
ATOM      7  C   UNL     1       2.792  -5.727  -9.654  0.00  0.00    +0.026 A 
ATOM      8 BR   UNL     1       0.049  -8.354 -11.304  0.00  0.00    -0.050 Br
ENDBRANCH   1   2
BRANCH   1   9
ATOM      9  S   UNL     1       6.297  -6.321  -8.799  0.00  0.00    +0.075 S 
ATOM     10  O   UNL     1       6.195  -6.758 -10.147  0.00  0.00    -0.150 OA
ATOM     11  O   UNL     1       7.072  -5.193  -8.420  0.00  0.00    -0.150 OA
BRANCH   9  12
ATOM     12  C   UNL     1       6.910  -7.688  -7.872  0.00  0.00    +0.109 A 
ATOM     13  C   UNL     1       7.445  -7.486  -6.613  0.00  0.00    +0.029 A 
ATOM     14  C   UNL     1       7.926  -8.558  -5.886  0.00  0.00    +0.002 A 
ATOM     15  C   UNL     1       7.872  -9.833  -6.417  0.00  0.00    +0.000 A 
ATOM     16  C   UNL     1       7.336 -10.036  -7.675  0.00  0.00    +0.002 A 
ATOM     17  C   UNL     1       6.851  -8.964  -8.400  0.00  0.00    +0.029 A 
ENDBRANCH   9  12
ENDBRANCH   1   9
BRANCH   1  18
ATOM     18  C   UNL     1       4.523  -5.210  -7.085  0.00  0.00    +0.228 C 
BRANCH  18  20
ATOM     19  N   UNL     1       4.158  -5.567  -4.665  0.00  0.00    -0.206 N 
ATOM     20  C   UNL     1       4.376  -6.105  -5.881  0.00  0.00    +0.251 C 
ATOM     21  O   UNL     1       4.455  -7.309  -6.007  0.00  0.00    -0.272 OA
ATOM     22  H   UNL     1       4.095  -4.604  -4.565  0.00  0.00    +0.177 HD
BRANCH  19  24
ATOM     23  C   UNL     1       3.810  -5.881  -2.374  0.00  0.00    +0.138 C 
ATOM     24  N   UNL     1       4.021  -6.399  -3.546  0.00  0.00    -0.188 NA
BRANCH  23  28
ATOM     25  C   UNL     1       3.395  -8.400   1.017  0.00  0.00    +0.008 A 
ATOM     26  C   UNL     1       3.306  -7.019   1.163  0.00  0.00    +0.015 A 
ATOM     27  C   UNL     1       3.440  -6.199   0.065  0.00  0.00    +0.010 A 
ATOM     28  C   UNL     1       3.667  -6.755  -1.197  0.00  0.00    -0.005 A 
ATOM     29  C   UNL     1       3.757  -8.143  -1.340  0.00  0.00    +0.010 A 
ATOM     30  C   UNL     1       3.627  -8.957  -0.237  0.00  0.00    +0.015 A 
BRANCH  25  32
ATOM     31  C   UNL     1       2.941  -8.293   3.796  0.00  0.00    +0.090 C 
ATOM     32  S   UNL     1       3.222  -9.446   2.425  0.00  0.00    -0.129 S 
ENDBRANCH  25  32
ENDBRANCH  23  28
ENDBRANCH  19  24
ENDBRANCH  18  20
ENDBRANCH   1  18
TORSDOF 8
