REMARK  Name = ZINC12850431
REMARK  8 active torsions:
REMARK  status: ('A' for Active; 'I' for Inactive)
REMARK    1  A    between atoms: C_1  and  C_2
REMARK    2  A    between atoms: C_5  and  C_17
REMARK    3  A    between atoms: N_8  and  C_10
REMARK    4  A    between atoms: C_17  and  O_19
REMARK    5  A    between atoms: O_19  and  C_20
REMARK    6  A    between atoms: C_20  and  C_22
REMARK    7  A    between atoms: C_20  and  C_23
REMARK    8  A    between atoms: N_25  and  C_26
REMARK                            x       y       z     vdW  Elec       q    Type
REMARK                         _______ _______ _______ _____ _____    ______ ____
ROOT
ATOM      1  C   UNL     1       4.543  -1.720   0.842  0.00  0.00    +0.068 C 
ATOM      2  C   UNL     1       3.876  -0.469   0.332  0.00  0.00    +0.069 A 
ATOM      3  C   UNL     1       4.500   0.534  -0.480  0.00  0.00    +0.031 A 
ATOM      4  C   UNL     1       5.745   0.799  -1.071  0.00  0.00    +0.034 A 
ATOM      5  C   UNL     1       5.916   1.936  -1.805  0.00  0.00    +0.099 A 
ATOM      6  S   UNL     1       4.311   2.711  -1.704  0.00  0.00    -0.062 S 
ATOM      7  C   UNL     1       3.499   1.491  -0.704  0.00  0.00    +0.113 A 
ATOM      8  N   UNL     1       2.376   1.095  -0.071  0.00  0.00    -0.225 N 
ATOM      9  N   UNL     1       2.644  -0.126   0.559  0.00  0.00    -0.170 NA
ENDROOT
BRANCH   8  10
ATOM     10  C   UNL     1       1.154   1.782  -0.053  0.00  0.00    +0.067 A 
ATOM     11  C   UNL     1      -0.041   1.075  -0.054  0.00  0.00    +0.029 A 
ATOM     12  C   UNL     1      -1.244   1.754  -0.042  0.00  0.00    +0.022 A 
ATOM     13  C   UNL     1      -1.258   3.138  -0.018  0.00  0.00    +0.041 A 
ATOM     14  C   UNL     1      -0.068   3.844  -0.016  0.00  0.00    +0.022 A 
ATOM     15  C   UNL     1       1.137   3.170  -0.034  0.00  0.00    +0.029 A 
ATOM     16 CL   UNL     1      -2.771   3.988   0.004  0.00  0.00    -0.084 Cl
ENDBRANCH   8  10
BRANCH   5  17
ATOM     17  C   UNL     1       7.116   2.404  -2.500  0.00  0.00    +0.347 C 
ATOM     18  O   UNL     1       8.136   1.744  -2.464  0.00  0.00    -0.244 OA
BRANCH  17  19
ATOM     19  O   UNL     1       7.089   3.569  -3.181  0.00  0.00    -0.448 OA
BRANCH  19  20
ATOM     20  C   UNL     1       8.316   3.971  -3.847  0.00  0.00    +0.259 C 
ATOM     21  C   UNL     1       8.332   3.407  -5.269  0.00  0.00    +0.062 C 
BRANCH  20  22
ATOM     22  C   UNL     1       8.387   5.475  -3.901  0.00  0.00    +0.258 C 
ATOM     23  O   UNL     1       7.493   6.143  -3.426  0.00  0.00    -0.271 OA
ATOM     24  N   UNL     1       9.445   6.079  -4.479  0.00  0.00    -0.280 N 
ATOM     25  H   UNL     1      10.198   5.549  -4.786  0.00  0.00    +0.155 HD
BRANCH  24  26
ATOM     26  C   UNL     1       9.458   7.470  -4.634  0.00  0.00    +0.071 A 
ATOM     27  C   UNL     1       8.265   8.185  -4.691  0.00  0.00    +0.028 A 
ATOM     28  C   UNL     1       8.329   9.561  -4.842  0.00  0.00    +0.022 A 
ATOM     29  C   UNL     1       9.565  10.174  -4.940  0.00  0.00    +0.112 A 
ATOM     30  N   UNL     1      10.678   9.467  -4.887  0.00  0.00    -0.242 NA
ATOM     31  C   UNL     1      10.662   8.157  -4.740  0.00  0.00    +0.150 A 
ATOM     32 CL   UNL     1      12.160   7.281  -4.678  0.00  0.00    -0.060 Cl
ENDBRANCH  24  26
ENDBRANCH  20  22
ENDBRANCH  19  20
ENDBRANCH  17  19
ENDBRANCH   5  17
TORSDOF 6
