REMARK  Name = ZINC54512397
REMARK  5 active torsions:
REMARK  status: ('A' for Active; 'I' for Inactive)
REMARK    1  A    between atoms: C_1  and  C_2
REMARK    2  A    between atoms: C_2  and  C_4
REMARK    3  A    between atoms: C_2  and  N_12
REMARK    4  A    between atoms: N_15  and  C_16
REMARK    5  A    between atoms: C_18  and  N_23
REMARK                            x       y       z     vdW  Elec       q    Type
REMARK                         _______ _______ _______ _____ _____    ______ ____
ROOT
ATOM      1  N   UNL     1      -1.731  -0.459  -0.102  0.00  0.00    -0.292 N 
ATOM      2  C   UNL     1      -2.162  -0.671  -1.362  0.00  0.00    +0.304 C 
ATOM      3  O   UNL     1      -1.406  -0.504  -2.299  0.00  0.00    -0.252 OA
ATOM      4  N   UNL     1      -3.431  -1.068  -1.582  0.00  0.00    -0.267 N 
ATOM      5  H   UNL     1      -2.334  -0.592   0.645  0.00  0.00    +0.151 HD
ATOM      6  H   UNL     1      -4.051  -1.143  -0.840  0.00  0.00    +0.156 HD
ENDROOT
BRANCH   4   7
ATOM      7  C   UNL     1      -3.854  -1.371  -2.882  0.00  0.00    +0.072 A 
ATOM      8  C   UNL     1      -3.348  -0.662  -3.961  0.00  0.00    +0.049 A 
ATOM      9  C   UNL     1      -3.769  -0.966  -5.247  0.00  0.00    +0.041 A 
ATOM     10  C   UNL     1      -4.696  -1.979  -5.453  0.00  0.00    +0.026 A 
ATOM     11  C   UNL     1      -5.201  -2.684  -4.377  0.00  0.00    +0.042 A 
ATOM     12  C   UNL     1      -4.779  -2.388  -3.094  0.00  0.00    +0.145 A 
ATOM     13  F   UNL     1      -5.270  -3.084  -2.044  0.00  0.00    -0.204 F 
BRANCH   9  14
ATOM     14  N   UNL     1      -3.259  -0.251  -6.339  0.00  0.00    -0.234 N 
ATOM     15  C   UNL     1      -3.615  -0.456  -7.757  0.00  0.00    +0.158 C 
ATOM     16  C   UNL     1      -3.060   0.826  -8.422  0.00  0.00    +0.253 C 
ATOM     17  O   UNL     1      -2.030   1.223  -7.496  0.00  0.00    -0.448 OA
ATOM     18  C   UNL     1      -2.360   0.750  -6.282  0.00  0.00    +0.407 C 
ATOM     19  O   UNL     1      -1.895   1.178  -5.244  0.00  0.00    -0.226 OA
ENDBRANCH   9  14
ENDBRANCH   4   7
BRANCH   1  21
ATOM     20  C   UNL     1      -0.286   1.501   0.124  0.00  0.00    +0.033 C 
ATOM     21  C   UNL     1      -0.352  -0.028   0.137  0.00  0.00    +0.104 C 
BRANCH  21  22
ATOM     22  C   UNL     1       0.109  -0.539   1.477  0.00  0.00    +0.008 A 
ATOM     23  C   UNL     1      -0.815  -0.803   2.471  0.00  0.00    +0.011 A 
ATOM     24  C   UNL     1      -0.393  -1.273   3.701  0.00  0.00    +0.039 A 
ATOM     25  C   UNL     1       0.955  -1.480   3.938  0.00  0.00    +0.126 A 
ATOM     26  C   UNL     1       1.881  -1.216   2.944  0.00  0.00    +0.077 A 
ATOM     27  C   UNL     1       1.458  -0.751   1.711  0.00  0.00    +0.131 A 
ATOM     28  F   UNL     1       2.360  -0.498   0.738  0.00  0.00    -0.205 F 
ATOM     29  F   UNL     1       1.367  -1.938   5.141  0.00  0.00    -0.205 F 
ENDBRANCH  21  22
ENDBRANCH   1  21
TORSDOF 4
