REMARK  Name = ZINC19760471
REMARK  7 active torsions:
REMARK  status: ('A' for Active; 'I' for Inactive)
REMARK    1  A    between atoms: C_1  and  C_2
REMARK    2  A    between atoms: C_2  and  C_3
REMARK    3  A    between atoms: N_6  and  C_21
REMARK    4  A    between atoms: C_9  and  C_14
REMARK    5  A    between atoms: C_15  and  C_20
REMARK    6  A    between atoms: C_21  and  O_22
REMARK    7  A    between atoms: O_22  and  C_23
REMARK                            x       y       z     vdW  Elec       q    Type
REMARK                         _______ _______ _______ _____ _____    ______ ____
ROOT
ATOM      1  C   UNL     1       4.737   1.458  -0.363  0.00  0.00    +0.190 C 
ATOM      2  C   UNL     1       4.751   0.127   0.399  0.00  0.00    +0.152 C 
ATOM      3  N   UNL     1       3.614  -0.684  -0.053  0.00  0.00    -0.301 N 
ATOM      4  C   UNL     1       2.412   0.031  -0.025  0.00  0.00    +0.074 A 
ATOM      5  C   UNL     1       1.219  -0.680  -0.015  0.00  0.00    +0.037 A 
ATOM      6  C   UNL     1       0.002  -0.004   0.002  0.00  0.00    +0.003 A 
ATOM      7  C   UNL     1      -0.017   1.390   0.010  0.00  0.00    +0.014 A 
ATOM      8  C   UNL     1       1.169   2.093   0.002  0.00  0.00    +0.048 A 
ATOM      9  C   UNL     1       2.385   1.421  -0.013  0.00  0.00    +0.142 A 
ATOM     10  O   UNL     1       3.534   2.152  -0.015  0.00  0.00    -0.485 OA
ENDROOT
BRANCH   6  11
ATOM     11  C   UNL     1      -1.271  -0.765   0.012  0.00  0.00    +0.083 A 
ATOM     12  C   UNL     1      -2.351  -0.294   0.702  0.00  0.00    +0.016 A 
ATOM     13  S   UNL     1      -3.550  -1.577   0.364  0.00  0.00    -0.057 S 
ATOM     14  C   UNL     1      -2.499  -2.603  -0.655  0.00  0.00    +0.156 A 
ATOM     15  N   UNL     1      -1.375  -1.911  -0.657  0.00  0.00    -0.225 NA
ATOM     16  N   UNL     1      -2.790  -3.804  -1.281  0.00  0.00    -0.338 N 
ATOM     17  C   UNL     1      -2.494   0.962   1.523  0.00  0.00    +0.054 C 
ATOM     18  H   UNL     1      -2.020  -4.314  -1.879  0.00  0.00    +0.144 HD
ATOM     19  H   UNL     1      -3.791  -4.249  -1.180  0.00  0.00    +0.144 HD
ENDBRANCH   6  11
BRANCH   1  21
ATOM     20  C   UNL     1       5.978   3.584  -0.793  0.00  0.00    +0.007 C 
ATOM     21  C   UNL     1       5.952   2.297   0.035  0.00  0.00    +0.043 C 
ENDBRANCH   1  21
BRANCH   3  22
ATOM     22  C   UNL     1       3.508  -1.924   0.727  0.00  0.00    +0.268 C 
BRANCH  22  23
ATOM     23  O   UNL     1       2.864  -2.928  -0.059  0.00  0.00    -0.365 OA
ATOM     24  C   UNL     1       3.725  -3.571  -1.001  0.00  0.00    +0.196 C 
ENDBRANCH  22  23
ENDBRANCH   3  22
TORSDOF 4
