REMARK  Name = ZINC13811143
REMARK  9 active torsions:
REMARK  status: ('A' for Active; 'I' for Inactive)
REMARK    1  A    between atoms: C_1  and  C_2
REMARK    2  A    between atoms: C_5  and  C_8
REMARK    3  A    between atoms: C_19  and  C_21
REMARK    4  A    between atoms: C_25  and  O_29
REMARK    5  A    between atoms: C_26  and  O_27
REMARK    6  A    between atoms: O_27  and  C_28
REMARK    7  A    between atoms: O_29  and  C_30
REMARK    8  A    between atoms: C_35  and  S_37
REMARK    9  A    between atoms: S_37  and  C_38
REMARK                            x       y       z     vdW  Elec       q    Type
REMARK                         _______ _______ _______ _____ _____    ______ ____
ROOT
ATOM      1  C   UNL     1       0.070  -4.289  -0.032  0.00  0.00    +0.172 C 
ATOM      2  C   UNL     1       1.371  -4.768   0.562  0.00  0.00    +0.025 C 
ATOM      3  C   UNL     1       1.440  -5.323   1.774  0.00  0.00    +0.050 C 
ATOM      4  C   UNL     1       2.763  -5.771   2.271  0.00  0.00    +0.038 A 
ATOM      5  C   UNL     1       2.982  -6.036   3.616  0.00  0.00    +0.013 A 
ATOM      6  C   UNL     1       4.232  -6.454   4.033  0.00  0.00    +0.001 A 
ATOM      7  C   UNL     1       5.258  -6.608   3.118  0.00  0.00    +0.004 A 
ATOM      8  C   UNL     1       5.048  -6.345   1.776  0.00  0.00    +0.046 A 
ATOM      9  C   UNL     1       3.803  -5.926   1.345  0.00  0.00    +0.131 A 
ATOM     10  O   UNL     1       3.558  -5.653   0.038  0.00  0.00    -0.479 OA
ATOM     11  C   UNL     1       2.639  -4.598  -0.244  0.00  0.00    +0.238 C 
ATOM     12  N   UNL     1       0.309  -5.501   2.578  0.00  0.00    -0.283 N 
ATOM     13  C   UNL     1      -0.930  -5.352   1.976  0.00  0.00    +0.220 A 
ATOM     14  N   UNL     1      -1.054  -4.791   0.750  0.00  0.00    -0.220 N 
ATOM     15  N   UNL     1      -2.415  -4.808   0.446  0.00  0.00    -0.141 NA
ATOM     16  C   UNL     1      -3.026  -5.354   1.475  0.00  0.00    +0.210 A 
ATOM     17  N   UNL     1      -2.121  -5.680   2.397  0.00  0.00    -0.187 NA
ATOM     18  H   UNL     1       0.389  -5.720   3.520  0.00  0.00    +0.155 HD
ENDROOT
BRANCH   1  23
ATOM     19  C   UNL     1      -0.027   1.489  -0.030  0.00  0.00    +0.044 C 
ATOM     20  C   UNL     1      -0.001  -0.018  -0.031  0.00  0.00    -0.050 A 
ATOM     21  C   UNL     1       0.043  -0.708  -1.228  0.00  0.00    +0.004 A 
ATOM     22  C   UNL     1       0.066  -2.090  -1.228  0.00  0.00    +0.006 A 
ATOM     23  C   UNL     1       0.046  -2.782  -0.032  0.00  0.00    -0.019 A 
ATOM     24  C   UNL     1       0.002  -2.092   1.165  0.00  0.00    +0.006 A 
ATOM     25  C   UNL     1      -0.017  -0.710   1.166  0.00  0.00    +0.004 A 
ENDBRANCH   1  23
BRANCH  11  26
ATOM     26  C   UNL     1       3.276  -3.278   0.105  0.00  0.00    +0.042 A 
ATOM     27  C   UNL     1       3.122  -2.749   1.373  0.00  0.00    +0.011 A 
ATOM     28  C   UNL     1       3.705  -1.538   1.696  0.00  0.00    +0.004 A 
ATOM     29  C   UNL     1       4.444  -0.850   0.751  0.00  0.00    +0.049 A 
ATOM     30  C   UNL     1       4.602  -1.374  -0.521  0.00  0.00    +0.162 A 
ATOM     31  C   UNL     1       4.020  -2.596  -0.844  0.00  0.00    +0.168 A 
BRANCH  31  32
ATOM     32  O   UNL     1       4.177  -3.118  -2.091  0.00  0.00    -0.491 OA
ATOM     33  C   UNL     1       3.273  -2.666  -3.101  0.00  0.00    +0.277 C 
ENDBRANCH  31  32
BRANCH  30  34
ATOM     34  O   UNL     1       5.329  -0.698  -1.451  0.00  0.00    -0.491 OA
ATOM     35  C   UNL     1       5.902   0.547  -1.047  0.00  0.00    +0.277 C 
ENDBRANCH  30  34
ENDBRANCH  11  26
BRANCH  16  36
ATOM     36  S   UNL     1      -4.764  -5.614   1.612  0.00  0.00    -0.088 S 
ATOM     37  C   UNL     1      -4.964  -6.390   3.239  0.00  0.00    +0.093 C 
ENDBRANCH  16  36
TORSDOF 5
