REMARK  Name = ZINC21775489
REMARK  10 active torsions:
REMARK  status: ('A' for Active; 'I' for Inactive)
REMARK    1  A    between atoms: C_1  and  C_2
REMARK    2  A    between atoms: C_5  and  C_33
REMARK    3  A    between atoms: C_6  and  S_8
REMARK    4  A    between atoms: S_8  and  N_11
REMARK    5  A    between atoms: N_11  and  C_12
REMARK    6  A    between atoms: C_12  and  C_13
REMARK    7  A    between atoms: C_13  and  C_15
REMARK    8  A    between atoms: C_13  and  N_26
REMARK    9  A    between atoms: N_24  and  C_25
REMARK   10  A    between atoms: N_29  and  C_32
REMARK                            x       y       z     vdW  Elec       q    Type
REMARK                         _______ _______ _______ _____ _____    ______ ____
ROOT
ATOM      1  C   UNL     1      -0.748   1.393   0.671  0.00  0.00    +0.102 C 
ENDROOT
BRANCH   1   2
ATOM      2  C   UNL     1      -0.115   0.191   0.019  0.00  0.00    -0.029 A 
ATOM      3  C   UNL     1       1.249  -0.015   0.122  0.00  0.00    +0.007 A 
ATOM      4  C   UNL     1       1.826  -1.116  -0.472  0.00  0.00    +0.024 A 
ATOM      5  C   UNL     1       1.044  -2.023  -1.190  0.00  0.00    +0.033 A 
ATOM      6  C   UNL     1      -0.319  -1.811  -1.292  0.00  0.00    -0.026 A 
ATOM      7  C   UNL     1      -0.893  -0.704  -0.687  0.00  0.00    +0.010 A 
ATOM      8  C   UNL     1      -1.221  -2.758  -2.044  0.00  0.00    +0.038 C 
ATOM      9  C   UNL     1      -0.379  -3.671  -2.938  0.00  0.00    +0.024 C 
ATOM     10  C   UNL     1       0.783  -4.214  -2.097  0.00  0.00    +0.105 C 
ATOM     11  N   UNL     1       1.690  -3.108  -1.781  0.00  0.00    -0.333 N 
ATOM     12  C   UNL     1       2.812  -3.568  -0.952  0.00  0.00    +0.129 C 
ENDBRANCH   1   2
BRANCH   1  13
ATOM     13  N   UNL     1      -0.804   1.188   2.124  0.00  0.00    -0.298 NA
ATOM     14  C   UNL     1       0.515   0.817   2.655  0.00  0.00    +0.066 C 
ATOM     15  C   UNL     1       0.432   0.692   4.178  0.00  0.00    -0.064 C 
ATOM     16  N   UNL     1      -0.577  -0.317   4.530  0.00  0.00    +0.379 N 
ATOM     17  C   UNL     1      -1.896   0.055   4.000  0.00  0.00    -0.064 C 
ATOM     18  C   UNL     1      -1.813   0.180   2.477  0.00  0.00    +0.066 C 
ATOM     19  C   UNL     1      -0.633  -0.521   5.984  0.00  0.00    -0.096 C 
ATOM     20  H   UNL     1      -0.281  -1.270   4.067  0.00  0.00    -0.082 HD
ENDBRANCH   1  13
BRANCH   1  21
ATOM     21  C   UNL     1       0.084   2.639   0.362  0.00  0.00    +0.129 C 
BRANCH  21  22
ATOM     22  N   UNL     1      -0.463   3.785   1.092  0.00  0.00    -0.188 NA
ATOM     23  H   UNL     1      -1.513   3.777   1.421  0.00  0.00    +0.148 HD
BRANCH  22  24
ATOM     24  S   UNL     1       0.411   5.186   1.208  0.00  0.00    +0.059 S 
ATOM     25  O   UNL     1      -0.425   6.134   1.859  0.00  0.00    -0.153 OA
ATOM     26  O   UNL     1       1.690   4.827   1.712  0.00  0.00    -0.153 OA
BRANCH  24  32
ATOM     27  C   UNL     1       3.521   6.271  -2.850  0.00  0.00    +0.044 C 
ATOM     28  C   UNL     1       2.135   6.258  -2.259  0.00  0.00    -0.049 A 
ATOM     29  C   UNL     1       1.061   6.710  -3.004  0.00  0.00    +0.004 A 
ATOM     30  C   UNL     1      -0.210   6.697  -2.462  0.00  0.00    +0.005 A 
ATOM     31  C   UNL     1      -0.410   6.227  -1.178  0.00  0.00    -0.024 A 
ATOM     32  C   UNL     1       0.664   5.780  -0.431  0.00  0.00    +0.108 A 
ATOM     33  C   UNL     1       1.936   5.793  -0.973  0.00  0.00    +0.032 A 
ATOM     34  C   UNL     1      -1.797   6.207  -0.590  0.00  0.00    +0.046 C 
ENDBRANCH  24  32
ENDBRANCH  22  24
ENDBRANCH  21  22
ENDBRANCH   1  21
TORSDOF 6
