REMARK  Name = ZINC16610593
REMARK  14 active torsions:
REMARK  status: ('A' for Active; 'I' for Inactive)
REMARK    1  A    between atoms: C_1  and  C_2
REMARK    2  A    between atoms: C_2  and  N_3
REMARK    3  A    between atoms: C_4  and  C_36
REMARK    4  A    between atoms: C_5  and  C_30
REMARK    5  A    between atoms: C_6  and  C_11
REMARK    6  A    between atoms: C_14  and  N_17
REMARK    7  A    between atoms: N_20  and  C_21
REMARK    8  A    between atoms: C_24  and  C_27
REMARK    9  A    between atoms: C_27  and  C_28
REMARK   10  A    between atoms: C_27  and  C_29
REMARK   11  A    between atoms: C_30  and  O_32
REMARK   12  A    between atoms: O_32  and  C_33
REMARK   13  A    between atoms: C_33  and  C_34
REMARK   14  A    between atoms: C_33  and  C_35
REMARK                            x       y       z     vdW  Elec       q    Type
REMARK                         _______ _______ _______ _____ _____    ______ ____
ROOT
ATOM      1  C   UNL     1      -3.993   8.777   6.415  0.00  0.00    -0.022 A 
ATOM      2  C   UNL     1      -4.556   7.861   7.285  0.00  0.00    +0.007 A 
ATOM      3  C   UNL     1      -4.435   6.507   7.037  0.00  0.00    +0.024 A 
ATOM      4  C   UNL     1      -3.749   6.067   5.913  0.00  0.00    +0.035 A 
ATOM      5  C   UNL     1      -3.181   6.989   5.044  0.00  0.00    +0.024 A 
ATOM      6  C   UNL     1      -3.310   8.341   5.295  0.00  0.00    +0.007 A 
ENDROOT
BRANCH   1  10
ATOM      7  N   UNL     1      -2.451  12.242   5.747  0.00  0.00    -0.286 N 
ATOM      8  C   UNL     1      -2.140  11.672   6.947  0.00  0.00    +0.021 C 
ATOM      9  C   UNL     1      -2.909  10.694   7.474  0.00  0.00    +0.078 C 
ATOM     10  C   UNL     1      -4.126  10.253   6.688  0.00  0.00    +0.141 C 
ATOM     11  N   UNL     1      -4.373  10.932   5.405  0.00  0.00    -0.315 N 
ATOM     12  C   UNL     1      -3.513  11.892   5.011  0.00  0.00    +0.138 C 
ATOM     13  S   UNL     1      -3.788  12.690   3.522  0.00  0.00    -0.018 S 
ATOM     14  C   UNL     1      -0.920  12.141   7.697  0.00  0.00    +0.061 C 
ATOM     15  H   UNL     1      -5.137  10.694   4.856  0.00  0.00    +0.149 HD
BRANCH   7  17
ATOM     16  C   UNL     1      -1.982  14.640   5.844  0.00  0.00    +0.025 C 
ATOM     17  C   UNL     1      -1.573  13.298   5.235  0.00  0.00    +0.109 C 
ENDBRANCH   7  17
BRANCH   9  18
ATOM     18  C   UNL     1      -2.587  10.102   8.718  0.00  0.00    +0.339 C 
ATOM     19  O   UNL     1      -1.604  10.472   9.332  0.00  0.00    -0.245 OA
BRANCH  18  20
ATOM     20  O   UNL     1      -3.372   9.127   9.224  0.00  0.00    -0.459 OA
BRANCH  20  21
ATOM     21  C   UNL     1      -2.988   8.574  10.485  0.00  0.00    +0.171 C 
ATOM     22  C   UNL     1      -3.648   9.370  11.612  0.00  0.00    +0.052 C 
ATOM     23  C   UNL     1      -3.437   7.114  10.559  0.00  0.00    +0.052 C 
ENDBRANCH  20  21
ENDBRANCH  18  20
ENDBRANCH   9  18
ENDBRANCH   1  10
BRANCH   4  24
ATOM     24  N   UNL     1      -3.625   4.696   5.660  0.00  0.00    -0.269 N 
ATOM     25  C   UNL     1      -4.615   3.853   6.015  0.00  0.00    +0.308 C 
ATOM     26  O   UNL     1      -5.654   4.292   6.468  0.00  0.00    -0.252 OA
ATOM     27  N   UNL     1      -4.453   2.523   5.867  0.00  0.00    -0.269 N 
ATOM     28  H   UNL     1      -2.826   4.353   5.230  0.00  0.00    +0.156 HD
ATOM     29  H   UNL     1      -3.598   2.168   5.577  0.00  0.00    +0.156 HD
BRANCH  27  30
ATOM     30  C   UNL     1      -5.517   1.655   6.132  0.00  0.00    +0.035 A 
ATOM     31  C   UNL     1      -6.822   2.055   5.876  0.00  0.00    +0.023 A 
ATOM     32  C   UNL     1      -7.871   1.196   6.138  0.00  0.00    +0.006 A 
ATOM     33  C   UNL     1      -7.623  -0.062   6.656  0.00  0.00    -0.045 A 
ATOM     34  C   UNL     1      -6.325  -0.462   6.918  0.00  0.00    +0.006 A 
ATOM     35  C   UNL     1      -5.272   0.391   6.652  0.00  0.00    +0.023 A 
BRANCH  33  36
ATOM     36  C   UNL     1      -8.770  -0.997   6.942  0.00  0.00    +0.013 C 
ATOM     37  C   UNL     1      -8.779  -1.353   8.430  0.00  0.00    +0.012 C 
ATOM     38  C   UNL     1      -8.606  -2.273   6.113  0.00  0.00    +0.012 C 
ENDBRANCH  33  36
ENDBRANCH  27  30
ENDBRANCH   4  24
TORSDOF 8
