REMARK  Name = ZINC19795991
REMARK  11 active torsions:
REMARK  status: ('A' for Active; 'I' for Inactive)
REMARK    1  A    between atoms: C_1  and  C_2
REMARK    2  A    between atoms: C_2  and  C_3
REMARK    3  A    between atoms: C_2  and  C_4
REMARK    4  A    between atoms: C_4  and  C_5
REMARK    5  A    between atoms: C_5  and  C_6
REMARK    6  A    between atoms: C_6  and  C_7
REMARK    7  A    between atoms: C_7  and  C_9
REMARK    8  A    between atoms: C_7  and  C_10
REMARK    9  A    between atoms: C_16  and  C_35
REMARK   10  A    between atoms: C_27  and  C_34
REMARK   11  A    between atoms: C_30  and  O_33
REMARK                            x       y       z     vdW  Elec       q    Type
REMARK                         _______ _______ _______ _____ _____    ______ ____
ROOT
ATOM      1  C   UNL     1       7.910   1.026  -0.006  0.00  0.00    -0.002 C 
ATOM      2  C   UNL     1       8.689   1.144   1.321  0.00  0.00    +0.004 C 
ATOM      3  C   UNL     1       8.174   2.413   2.029  0.00  0.00    +0.005 C 
ATOM      4  C   UNL     1       7.073   3.010   1.117  0.00  0.00    +0.006 C 
ATOM      5  C   UNL     1       7.405   2.451  -0.272  0.00  0.00    -0.025 C 
ATOM      6  C   UNL     1       6.260   2.510  -1.252  0.00  0.00    +0.007 C 
ATOM      7  C   UNL     1       4.963   1.982  -0.644  0.00  0.00    +0.005 C 
ATOM      8  C   UNL     1       4.623   2.838   0.584  0.00  0.00    +0.010 C 
ATOM      9  C   UNL     1       5.705   2.591   1.637  0.00  0.00    +0.067 C 
ATOM     10  C   UNL     1       5.642   1.158   2.076  0.00  0.00    +0.160 C 
ATOM     11  O   UNL     1       6.583   0.603   2.604  0.00  0.00    -0.292 OA
ATOM     12  C   UNL     1       4.407   0.392   1.910  0.00  0.00    +0.046 C 
ATOM     13  C   UNL     1       3.279   0.951   1.451  0.00  0.00    -0.058 C 
ATOM     14  C   UNL     1       3.250   2.408   1.112  0.00  0.00    -0.007 C 
ATOM     15  C   UNL     1       2.188   2.782   0.090  0.00  0.00    +0.014 C 
ATOM     16  C   UNL     1       0.909   1.971   0.253  0.00  0.00    +0.032 C 
ATOM     17  C   UNL     1       1.238   0.483   0.100  0.00  0.00    +0.119 C 
ATOM     18  C   UNL     1       2.079   0.052   1.298  0.00  0.00    +0.062 C 
ATOM     19  C   UNL     1       2.943   3.191   2.392  0.00  0.00    +0.016 C 
ATOM     20  C   UNL     1       8.570   3.267  -0.856  0.00  0.00    +0.012 C 
ENDROOT
BRANCH   1  21
ATOM     21  C   UNL     1       8.849   0.577  -1.126  0.00  0.00    -0.010 C 
ATOM     22  C   UNL     1       8.066   0.470  -2.436  0.00  0.00    +0.008 C 
BRANCH  21  23
ATOM     23  C   UNL     1       9.444  -0.788  -0.775  0.00  0.00    +0.003 C 
BRANCH  23  24
ATOM     24  C   UNL     1      10.477  -1.182  -1.833  0.00  0.00    +0.001 C 
BRANCH  24  25
ATOM     25  C   UNL     1      11.073  -2.546  -1.482  0.00  0.00    +0.003 C 
BRANCH  25  27
ATOM     26  C   UNL     1      13.281  -1.961  -2.494  0.00  0.00    +0.007 C 
ATOM     27  C   UNL     1      12.105  -2.940  -2.541  0.00  0.00    -0.017 C 
ATOM     28  C   UNL     1      12.610  -4.356  -2.259  0.00  0.00    +0.007 C 
ENDBRANCH  25  27
ENDBRANCH  24  25
ENDBRANCH  23  24
ENDBRANCH  21  23
ENDBRANCH   1  21
BRANCH  17  29
ATOM     29  O   UNL     1       0.029  -0.276   0.062  0.00  0.00    -0.391 OA
ATOM     30  H   UNL     1       0.069  -1.370  -0.044  0.00  0.00    +0.210 HD
ENDBRANCH  17  29
TORSDOF 6
