REMARK  Name = ZINC13221685
REMARK  14 active torsions:
REMARK  status: ('A' for Active; 'I' for Inactive)
REMARK    1  A    between atoms: C_1  and  C_2
REMARK    2  A    between atoms: C_3  and  C_31
REMARK    3  A    between atoms: C_4  and  C_30
REMARK    4  A    between atoms: C_9  and  S_11
REMARK    5  A    between atoms: S_11  and  C_12
REMARK    6  A    between atoms: C_12  and  C_13
REMARK    7  A    between atoms: N_15  and  C_16
REMARK    8  A    between atoms: C_18  and  C_26
REMARK    9  A    between atoms: C_21  and  C_22
REMARK   10  A    between atoms: C_22  and  O_24
REMARK   11  A    between atoms: O_24  and  C_25
REMARK   12  A    between atoms: C_26  and  O_28
REMARK   13  A    between atoms: O_28  and  C_29
REMARK   14  A    between atoms: C_31  and  C_32
REMARK                            x       y       z     vdW  Elec       q    Type
REMARK                         _______ _______ _______ _____ _____    ______ ____
ROOT
ATOM      1  C   UNL     1      -8.743  -4.572   1.531  0.00  0.00    +0.228 C 
ATOM      2  O   UNL     1      -8.856  -4.703   2.731  0.00  0.00    -0.275 OA
ATOM      3  N   UNL     1      -9.542  -5.269   0.699  0.00  0.00    -0.284 N 
ATOM      4  H   UNL     1      -9.496  -5.117  -0.258  0.00  0.00    +0.155 HD
ENDROOT
BRANCH   3   5
ATOM      5  C   UNL     1     -10.433  -6.208   1.213  0.00  0.00    +0.048 A 
ATOM      6  C   UNL     1     -11.056  -5.981   2.433  0.00  0.00    +0.039 A 
ATOM      7  C   UNL     1     -11.950  -6.921   2.941  0.00  0.00    +0.061 A 
ATOM      8  C   UNL     1     -12.213  -8.095   2.230  0.00  0.00    +0.016 A 
ATOM      9  C   UNL     1     -11.594  -8.327   1.023  0.00  0.00    +0.017 A 
ATOM     10  C   UNL     1     -10.699  -7.388   0.503  0.00  0.00    +0.080 A 
BRANCH  10  11
ATOM     11  C   UNL     1     -10.036  -7.637  -0.791  0.00  0.00    +0.341 C 
ATOM     12  O   UNL     1      -9.186  -6.870  -1.196  0.00  0.00    -0.245 OA
BRANCH  11  13
ATOM     13  O   UNL     1     -10.373  -8.716  -1.524  0.00  0.00    -0.464 OA
ATOM     14  C   UNL     1      -9.679  -8.898  -2.787  0.00  0.00    +0.280 C 
ENDBRANCH  11  13
ENDBRANCH  10  11
BRANCH   7  15
ATOM     15  C   UNL     1     -12.619  -6.677   4.238  0.00  0.00    +0.339 C 
ATOM     16  O   UNL     1     -12.391  -5.657   4.857  0.00  0.00    -0.245 OA
BRANCH  15  17
ATOM     17  O   UNL     1     -13.480  -7.586   4.733  0.00  0.00    -0.464 OA
ATOM     18  C   UNL     1     -14.099  -7.281   6.011  0.00  0.00    +0.280 C 
ENDBRANCH  15  17
ENDBRANCH   7  15
ENDBRANCH   3   5
BRANCH   1  19
ATOM     19  C   UNL     1      -7.710  -3.630   0.970  0.00  0.00    +0.173 C 
BRANCH  19  20
ATOM     20  S   UNL     1      -6.802  -2.847   2.331  0.00  0.00    -0.075 S 
BRANCH  20  29
ATOM     21  C   UNL     1      -2.563   1.096  -2.536  0.00  0.00    +0.066 C 
ATOM     22  C   UNL     1      -3.096   0.577  -1.225  0.00  0.00    +0.047 A 
ATOM     23  C   UNL     1      -2.548   1.032  -0.021  0.00  0.00    +0.006 A 
ATOM     24  C   UNL     1      -3.043   0.560   1.153  0.00  0.00    +0.049 A 
ATOM     25  N   UNL     1      -4.054  -0.347   1.126  0.00  0.00    -0.200 N 
ATOM     26  C   UNL     1      -4.563  -0.776  -0.067  0.00  0.00    +0.254 A 
ATOM     27  N   UNL     1      -4.071  -0.305  -1.219  0.00  0.00    -0.216 NA
ATOM     28  N   UNL     1      -5.527  -1.649   0.204  0.00  0.00    -0.183 NA
ATOM     29  C   UNL     1      -5.648  -1.790   1.522  0.00  0.00    +0.211 A 
ATOM     30  N   UNL     1      -4.770  -1.016   2.128  0.00  0.00    -0.137 NA
ATOM     31  C   UNL     1      -2.478   1.036   2.467  0.00  0.00    +0.066 C 
BRANCH  23  32
ATOM     32  C   UNL     1      -1.427   2.039  -0.026  0.00  0.00    +0.163 C 
BRANCH  32  33
ATOM     33  C   UNL     1      -0.104   1.317  -0.053  0.00  0.00    +0.360 C 
ATOM     34  O   UNL     1      -0.075   0.110  -0.067  0.00  0.00    -0.246 OA
ATOM     35  O   UNL     1       1.042   2.017  -0.067  0.00  0.00    -0.246 OA
ENDBRANCH  32  33
ENDBRANCH  23  32
ENDBRANCH  20  29
ENDBRANCH  19  20
ENDBRANCH   1  19
TORSDOF 10
