REMARK  Name = ZINC64277644
REMARK  4 active torsions:
REMARK  status: ('A' for Active; 'I' for Inactive)
REMARK    1  A    between atoms: C_5  and  C_7
REMARK    2  A    between atoms: C_7  and  N_8
REMARK    3  A    between atoms: C_28  and  C_30
REMARK    4  A    between atoms: C_34  and  N_36
REMARK                            x       y       z     vdW  Elec       q    Type
REMARK                         _______ _______ _______ _____ _____    ______ ____
ROOT
ATOM      1  N   UNL     1       1.489  -2.679   1.333  0.00  0.00    -0.287 N 
ATOM      2  C   UNL     1       2.860  -2.915   1.821  0.00  0.00    +0.204 C 
ATOM      3  C   UNL     1       2.897  -4.259   2.518  0.00  0.00    +0.234 C 
ATOM      4  O   UNL     1       3.803  -5.044   2.334  0.00  0.00    -0.274 OA
ATOM      5  N   UNL     1       1.857  -4.546   3.368  0.00  0.00    -0.279 N 
ATOM      6  C   UNL     1       0.892  -3.482   3.551  0.00  0.00    +0.167 C 
ATOM      7  C   UNL     1       0.473  -2.937   2.210  0.00  0.00    +0.237 C 
ATOM      8  O   UNL     1      -0.690  -2.742   1.926  0.00  0.00    -0.274 OA
ATOM      9  C   UNL     1      -0.282  -3.732   4.462  0.00  0.00    +0.065 C 
ATOM     10  C   UNL     1      -0.332  -5.185   4.845  0.00  0.00    -0.034 C 
ATOM     11  C   UNL     1      -1.340  -6.038   4.968  0.00  0.00    -0.001 A 
ATOM     12  C   UNL     1      -2.794  -5.865   4.818  0.00  0.00    +0.010 A 
ATOM     13  C   UNL     1      -3.553  -6.976   5.012  0.00  0.00    +0.001 A 
ATOM     14  C   UNL     1      -3.018  -8.226   5.338  0.00  0.00    +0.002 A 
ATOM     15  C   UNL     1      -1.694  -8.475   5.500  0.00  0.00    +0.026 A 
ATOM     16  C   UNL     1      -0.794  -7.383   5.324  0.00  0.00    +0.043 A 
ATOM     17  N   UNL     1       0.499  -7.336   5.427  0.00  0.00    -0.375 N 
ATOM     18  C   UNL     1       0.942  -5.958   5.179  0.00  0.00    +0.131 C 
ATOM     19  C   UNL     1       1.821  -5.884   3.940  0.00  0.00    +0.133 C 
ATOM     20  H   UNL     1       1.077  -8.087   5.634  0.00  0.00    +0.160 HD
ENDROOT
BRANCH  19  21
ATOM     21  C   UNL     1       3.227  -6.313   4.275  0.00  0.00    -0.023 A 
ATOM     22  C   UNL     1       4.113  -5.407   4.827  0.00  0.00    +0.005 A 
ATOM     23  C   UNL     1       5.402  -5.800   5.135  0.00  0.00    +0.003 A 
ATOM     24  C   UNL     1       5.805  -7.099   4.890  0.00  0.00    +0.033 A 
ATOM     25  C   UNL     1       4.919  -8.006   4.339  0.00  0.00    +0.127 A 
ATOM     26  C   UNL     1       3.628  -7.614   4.036  0.00  0.00    +0.038 A 
BRANCH  25  27
ATOM     27  N   UNL     1       5.350  -9.397   4.077  0.00  0.00    +0.056 N 
ATOM     28  O   UNL     1       6.478  -9.741   4.346  0.00  0.00    -0.126 OA
ATOM     29  O   UNL     1       4.575 -10.190   3.595  0.00  0.00    -0.126 OA
ENDBRANCH  25  27
ENDBRANCH  19  21
BRANCH   1  30
ATOM     30  C   UNL     1       1.229  -2.186  -0.022  0.00  0.00    +0.145 C 
BRANCH  30  35
ATOM     31  C   UNL     1      -0.017   1.378   0.010  0.00  0.00    +0.000 A 
ATOM     32  C   UNL     1       1.171   2.086   0.002  0.00  0.00    +0.001 A 
ATOM     33  C   UNL     1       2.377   1.412  -0.013  0.00  0.00    +0.020 A 
ATOM     34  C   UNL     1       2.397   0.029  -0.021  0.00  0.00    +0.046 A 
ATOM     35  C   UNL     1       1.208  -0.679  -0.013  0.00  0.00    -0.012 A 
ATOM     36  C   UNL     1       0.002  -0.004   0.002  0.00  0.00    +0.006 A 
ATOM     37 CL   UNL     1       3.912  -0.818  -0.041  0.00  0.00    -0.083 Cl
ENDBRANCH  30  35
ENDBRANCH   1  30
TORSDOF 4
