REMARK  Name = ZINC32957724
REMARK  9 active torsions:
REMARK  status: ('A' for Active; 'I' for Inactive)
REMARK    1  A    between atoms: C_1  and  C_2
REMARK    2  A    between atoms: C_9  and  N_13
REMARK    3  A    between atoms: C_10  and  C_11
REMARK    4  A    between atoms: C_14  and  C_16
REMARK    5  A    between atoms: C_16  and  N_17
REMARK    6  A    between atoms: C_25  and  C_26
REMARK    7  A    between atoms: C_26  and  C_28
REMARK    8  A    between atoms: C_26  and  N_29
REMARK    9  A    between atoms: C_30  and  C_32
REMARK                            x       y       z     vdW  Elec       q    Type
REMARK                         _______ _______ _______ _____ _____    ______ ____
ROOT
ATOM      1  N   UNL     1      -5.469  -7.673   0.044  0.00  0.00    -0.317 N 
ATOM      2  C   UNL     1      -5.901  -7.899  -1.247  0.00  0.00    +0.069 A 
ATOM      3  C   UNL     1      -5.258  -8.134  -2.455  0.00  0.00    +0.028 A 
ATOM      4  C   UNL     1      -6.002  -8.326  -3.599  0.00  0.00    +0.002 A 
ATOM      5  C   UNL     1      -7.388  -8.286  -3.551  0.00  0.00    +0.002 A 
ATOM      6  C   UNL     1      -8.039  -8.056  -2.372  0.00  0.00    +0.030 A 
ATOM      7  C   UNL     1      -7.304  -7.858  -1.199  0.00  0.00    +0.089 A 
ATOM      8  N   UNL     1      -7.649  -7.615   0.092  0.00  0.00    -0.230 NA
ATOM      9  C   UNL     1      -6.575  -7.513   0.819  0.00  0.00    +0.131 A 
ENDROOT
BRANCH   9  10
ATOM     10  C   UNL     1      -6.560  -7.251   2.303  0.00  0.00    +0.136 C 
ATOM     11  C   UNL     1      -6.899  -5.782   2.565  0.00  0.00    +0.036 C 
BRANCH  10  12
ATOM     12  N   UNL     1      -7.551  -8.106   2.960  0.00  0.00    -0.302 N 
ATOM     13  C   UNL     1      -7.401  -8.437   4.258  0.00  0.00    +0.245 C 
ATOM     14  O   UNL     1      -6.443  -8.026   4.883  0.00  0.00    -0.270 OA
ATOM     15  H   UNL     1      -8.419  -8.477   2.395  0.00  0.00    +0.150 HD
BRANCH  13  16
ATOM     16  C   UNL     1      -8.402  -9.300   4.921  0.00  0.00    +0.037 A 
ATOM     17  C   UNL     1      -9.507  -9.768   4.208  0.00  0.00    +0.013 A 
ATOM     18  C   UNL     1     -10.434 -10.578   4.832  0.00  0.00    +0.001 A 
ATOM     19  C   UNL     1     -10.277 -10.915   6.164  0.00  0.00    +0.000 A 
ATOM     20  C   UNL     1      -9.187 -10.450   6.878  0.00  0.00    +0.001 A 
ATOM     21  C   UNL     1      -8.250  -9.645   6.265  0.00  0.00    +0.013 A 
ENDBRANCH  13  16
ENDBRANCH  10  12
ENDBRANCH   9  10
BRANCH   1  22
ATOM     22  C   UNL     1      -4.077  -7.622   0.498  0.00  0.00    +0.219 C 
BRANCH  22  24
ATOM     23  N   UNL     1      -2.303  -5.918   0.765  0.00  0.00    -0.277 N 
ATOM     24  C   UNL     1      -3.568  -6.207   0.399  0.00  0.00    +0.237 C 
ATOM     25  O   UNL     1      -4.297  -5.327  -0.010  0.00  0.00    -0.273 OA
ATOM     26  H   UNL     1      -1.643  -6.715   1.136  0.00  0.00    +0.155 HD
BRANCH  23  34
ATOM     27  C   UNL     1      -0.019   1.526   0.010  0.00  0.00    +0.008 C 
ATOM     28  C   UNL     1       0.002  -0.004   0.002  0.00  0.00    -0.009 C 
ATOM     29  C   UNL     1       0.742  -0.514   1.242  0.00  0.00    +0.008 C 
ATOM     30  C   UNL     1       0.985  -2.020   1.120  0.00  0.00    +0.037 C 
ATOM     31  C   UNL     1      -0.340  -2.706   0.809  0.00  0.00    -0.018 A 
ATOM     32  C   UNL     1      -1.390  -2.006   0.327  0.00  0.00    -0.004 A 
ATOM     33  S   UNL     1      -2.678  -3.204   0.126  0.00  0.00    -0.077 S 
ATOM     34  C   UNL     1      -1.835  -4.615   0.674  0.00  0.00    +0.090 A 
ATOM     35  C   UNL     1      -0.578  -4.126   0.999  0.00  0.00    +0.084 A 
ATOM     36  C   UNL     1      -1.437  -0.538   0.030  0.00  0.00    +0.046 C 
BRANCH  35  37
ATOM     37  C   UNL     1       0.446  -4.990   1.504  0.00  0.00    +0.102 C 
ATOM     38  N   UNL     1       1.259  -5.675   1.905  0.00  0.00    -0.191 NA
ENDBRANCH  35  37
ENDBRANCH  23  34
ENDBRANCH  22  24
ENDBRANCH   1  22
TORSDOF 7
