REMARK  Name = ZINC20311566
REMARK  6 active torsions:
REMARK  status: ('A' for Active; 'I' for Inactive)
REMARK    1  A    between atoms: C_1  and  C_2
REMARK    2  A    between atoms: C_2  and  C_4
REMARK    3  A    between atoms: C_2  and  O_20
REMARK    4  A    between atoms: N_6  and  N_7
REMARK    5  A    between atoms: C_8  and  C_9
REMARK    6  A    between atoms: O_20  and  C_21
REMARK                            x       y       z     vdW  Elec       q    Type
REMARK                         _______ _______ _______ _____ _____    ______ ____
ROOT
ATOM      1  C   UNL     1       1.729   8.604   0.273  0.00  0.00    +0.273 C 
ATOM      2  O   UNL     1       2.837   8.133   0.428  0.00  0.00    -0.270 OA
ATOM      3  N   UNL     1       0.645   7.806   0.318  0.00  0.00    -0.204 N 
ATOM      4  H   UNL     1      -0.359   8.233   0.178  0.00  0.00    +0.177 HD
ENDROOT
BRANCH   1   6
ATOM      5  C   UNL     1       0.812  10.712   1.204  0.00  0.00    +0.062 C 
ATOM      6  C   UNL     1       1.567  10.083   0.031  0.00  0.00    +0.257 C 
BRANCH   6   7
ATOM      7  O   UNL     1       2.855  10.690  -0.088  0.00  0.00    -0.479 OA
BRANCH   7   8
ATOM      8  C   UNL     1       2.928  11.848  -0.797  0.00  0.00    +0.135 A 
ATOM      9  C   UNL     1       1.770  12.447  -1.271  0.00  0.00    +0.047 A 
ATOM     10  C   UNL     1       1.846  13.623  -1.991  0.00  0.00    +0.004 A 
ATOM     11  C   UNL     1       3.076  14.205  -2.239  0.00  0.00    +0.001 A 
ATOM     12  C   UNL     1       4.232  13.610  -1.768  0.00  0.00    +0.019 A 
ATOM     13  C   UNL     1       4.161  12.435  -1.044  0.00  0.00    +0.059 A 
ATOM     14 BR   UNL     1       5.742  11.626  -0.395  0.00  0.00    -0.047 Br
ENDBRANCH   7   8
ENDBRANCH   6   7
ENDBRANCH   1   6
BRANCH   3  15
ATOM     15  N   UNL     1       0.796   6.431   0.544  0.00  0.00    -0.187 NA
ATOM     16  C   UNL     1      -0.249   5.662   0.587  0.00  0.00    +0.145 C 
BRANCH  16  17
ATOM     17  C   UNL     1      -0.090   4.216   0.824  0.00  0.00    +0.077 A 
ATOM     18  C   UNL     1      -1.177   3.395   0.872  0.00  0.00    +0.209 A 
ATOM     19  O   UNL     1      -1.074   2.081   1.078  0.00  0.00    -0.462 OA
ATOM     20  C   UNL     1       0.101   1.450   1.268  0.00  0.00    +0.138 A 
ATOM     21  C   UNL     1       0.138   0.076   1.485  0.00  0.00    +0.047 A 
ATOM     22  C   UNL     1       1.346  -0.560   1.673  0.00  0.00    +0.004 A 
ATOM     23  C   UNL     1       2.535   0.155   1.649  0.00  0.00    +0.001 A 
ATOM     24  C   UNL     1       2.522   1.516   1.437  0.00  0.00    +0.015 A 
ATOM     25  C   UNL     1       1.306   2.171   1.245  0.00  0.00    +0.065 A 
ATOM     26  C   UNL     1       1.249   3.627   1.014  0.00  0.00    +0.201 A 
ATOM     27  O   UNL     1       2.258   4.310   0.983  0.00  0.00    -0.286 OA
ENDBRANCH  16  17
ENDBRANCH   3  15
TORSDOF 5
