REMARK  Name = ZINC28293181
REMARK  8 active torsions:
REMARK  status: ('A' for Active; 'I' for Inactive)
REMARK    1  A    between atoms: C_1  and  C_2
REMARK    2  A    between atoms: C_2  and  C_3
REMARK    3  A    between atoms: C_6  and  C_9
REMARK    4  A    between atoms: C_9  and  C_11
REMARK    5  A    between atoms: C_9  and  N_30
REMARK    6  A    between atoms: C_11  and  N_12
REMARK    7  A    between atoms: C_13  and  C_15
REMARK    8  A    between atoms: C_17  and  C_20
REMARK                            x       y       z     vdW  Elec       q    Type
REMARK                         _______ _______ _______ _____ _____    ______ ____
ROOT
ATOM      1  N   UNL     1      -9.838  -1.918  -1.181  0.00  0.00    -0.311 N 
ATOM      2  C   UNL     1      -9.557  -0.614  -1.377  0.00  0.00    +0.266 C 
ATOM      3  O   UNL     1      -8.979   0.019  -0.516  0.00  0.00    -0.268 OA
ATOM      4  H   UNL     1     -10.362  -2.491  -1.960  0.00  0.00    +0.149 HD
ENDROOT
BRANCH   2   5
ATOM      5  C   UNL     1      -9.954   0.047  -2.644  0.00  0.00    +0.168 A 
ATOM      6  C   UNL     1      -9.729   1.401  -3.004  0.00  0.00    +0.086 A 
ATOM      7  C   UNL     1     -10.282   1.504  -4.251  0.00  0.00    +0.168 A 
ATOM      8  O   UNL     1     -10.767   0.286  -4.551  0.00  0.00    -0.354 OA
ATOM      9  N   UNL     1     -10.579  -0.504  -3.656  0.00  0.00    -0.073 NA
BRANCH   7  10
ATOM     10  C   UNL     1     -10.330   2.711  -5.101  0.00  0.00    +0.024 A 
ATOM     11  C   UNL     1      -9.779   3.911  -4.646  0.00  0.00    +0.015 A 
ATOM     12  C   UNL     1      -9.830   5.037  -5.439  0.00  0.00    +0.050 A 
ATOM     13  C   UNL     1     -10.423   4.982  -6.695  0.00  0.00    +0.162 A 
ATOM     14  C   UNL     1     -10.972   3.789  -7.155  0.00  0.00    +0.163 A 
ATOM     15  C   UNL     1     -10.928   2.657  -6.361  0.00  0.00    +0.061 A 
ATOM     16  O   UNL     1     -11.556   3.719  -8.383  0.00  0.00    -0.485 OA
ATOM     17  C   UNL     1     -11.916   4.962  -8.996  0.00  0.00    +0.270 C 
ATOM     18  C   UNL     1     -10.731   5.928  -8.855  0.00  0.00    +0.270 C 
ATOM     19  O   UNL     1     -10.463   6.107  -7.460  0.00  0.00    -0.485 OA
ENDBRANCH   7  10
ENDBRANCH   2   5
BRANCH   1  20
ATOM     20  C   UNL     1      -9.446  -2.571   0.071  0.00  0.00    +0.094 C 
BRANCH  20  21
ATOM     21  C   UNL     1      -9.993  -4.000   0.093  0.00  0.00    -0.020 C 
BRANCH  21  25
ATOM     22  C   UNL     1     -14.262  -3.889   0.201  0.00  0.00    -0.048 A 
ATOM     23  C   UNL     1     -13.606  -4.122  -0.994  0.00  0.00    +0.004 A 
ATOM     24  C   UNL     1     -12.225  -4.157  -1.028  0.00  0.00    +0.002 A 
ATOM     25  C   UNL     1     -11.499  -3.960   0.131  0.00  0.00    -0.059 A 
ATOM     26  C   UNL     1     -12.155  -3.733   1.327  0.00  0.00    +0.002 A 
ATOM     27  C   UNL     1     -13.536  -3.692   1.361  0.00  0.00    +0.004 A 
BRANCH  22  29
ATOM     28  C   UNL     1     -16.307  -5.257   0.512  0.00  0.00    +0.009 C 
ATOM     29  C   UNL     1     -15.768  -3.851   0.239  0.00  0.00    +0.032 C 
ENDBRANCH  22  29
ENDBRANCH  21  25
BRANCH  21  30
ATOM     30  N   UNL     1      -9.491  -4.697   1.285  0.00  0.00    +0.385 N 
ATOM     31  C   UNL     1     -10.003  -6.090   1.341  0.00  0.00    -0.078 C 
ATOM     32  C   UNL     1      -9.005  -6.797   2.292  0.00  0.00    -0.020 C 
ATOM     33  C   UNL     1      -7.652  -6.152   1.914  0.00  0.00    -0.020 C 
ATOM     34  C   UNL     1      -8.017  -4.810   1.251  0.00  0.00    -0.078 C 
ATOM     35  H   UNL     1      -9.831  -4.102   2.145  0.00  0.00    -0.081 HD
ENDBRANCH  21  30
ENDBRANCH  20  21
ENDBRANCH   1  20
TORSDOF 7
