REMARK  Name = ZINC63138908
REMARK  10 active torsions:
REMARK  status: ('A' for Active; 'I' for Inactive)
REMARK    1  A    between atoms: C_1  and  C_2
REMARK    2  A    between atoms: C_2  and  C_3
REMARK    3  A    between atoms: C_3  and  C_4
REMARK    4  A    between atoms: C_4  and  O_5
REMARK    5  A    between atoms: O_5  and  C_6
REMARK    6  A    between atoms: C_6  and  C_7
REMARK    7  A    between atoms: C_7  and  C_8
REMARK    8  A    between atoms: C_8  and  N_9
REMARK    9  A    between atoms: C_29  and  C_31
REMARK   10  A    between atoms: C_35  and  N_37
REMARK                            x       y       z     vdW  Elec       q    Type
REMARK                         _______ _______ _______ _____ _____    ______ ____
ROOT
ATOM      1  N   UNL     1      -5.822  -6.350   0.023  0.00  0.00    -0.291 N 
ATOM      2  C   UNL     1      -6.472  -6.536   1.309  0.00  0.00    +0.203 C 
ATOM      3  C   UNL     1      -7.902  -6.941   1.165  0.00  0.00    +0.234 C 
ATOM      4  O   UNL     1      -8.540  -7.125   2.180  0.00  0.00    -0.274 OA
ATOM      5  N   UNL     1      -8.529  -7.116  -0.004  0.00  0.00    -0.279 N 
ATOM      6  C   UNL     1      -7.872  -6.907  -1.290  0.00  0.00    +0.167 C 
ATOM      7  C   UNL     1      -6.441  -6.508  -1.145  0.00  0.00    +0.237 C 
ATOM      8  O   UNL     1      -5.799  -6.319  -2.157  0.00  0.00    -0.274 OA
ATOM      9  C   UNL     1      -8.626  -5.833  -2.096  0.00  0.00    +0.065 C 
ATOM     10  C   UNL     1     -10.093  -6.172  -1.998  0.00  0.00    -0.034 C 
ATOM     11  C   UNL     1     -11.027  -6.315  -2.929  0.00  0.00    -0.001 A 
ATOM     12  C   UNL     1     -11.005  -6.087  -4.383  0.00  0.00    +0.010 A 
ATOM     13  C   UNL     1     -12.158  -6.359  -5.050  0.00  0.00    +0.001 A 
ATOM     14  C   UNL     1     -13.316  -6.830  -4.424  0.00  0.00    +0.002 A 
ATOM     15  C   UNL     1     -13.429  -7.059  -3.091  0.00  0.00    +0.026 A 
ATOM     16  C   UNL     1     -12.284  -6.801  -2.282  0.00  0.00    +0.043 A 
ATOM     17  N   UNL     1     -12.121  -6.909  -0.996  0.00  0.00    -0.375 N 
ATOM     18  C   UNL     1     -10.773  -6.450  -0.662  0.00  0.00    +0.131 C 
ATOM     19  C   UNL     1      -9.947  -7.539   0.030  0.00  0.00    +0.133 C 
ATOM     20  H   UNL     1     -12.782  -7.237  -0.366  0.00  0.00    +0.160 HD
ENDROOT
BRANCH  19  21
ATOM     21  C   UNL     1     -10.401  -7.694   1.458  0.00  0.00    -0.023 A 
ATOM     22  C   UNL     1     -10.868  -6.596   2.158  0.00  0.00    +0.005 A 
ATOM     23  C   UNL     1     -11.284  -6.739   3.469  0.00  0.00    +0.003 A 
ATOM     24  C   UNL     1     -11.234  -7.978   4.080  0.00  0.00    +0.033 A 
ATOM     25  C   UNL     1     -10.768  -9.075   3.380  0.00  0.00    +0.127 A 
ATOM     26  C   UNL     1     -10.355  -8.934   2.067  0.00  0.00    +0.038 A 
BRANCH  25  27
ATOM     27  N   UNL     1     -10.713 -10.402   4.034  0.00  0.00    +0.056 N 
ATOM     28  O   UNL     1     -11.076 -10.525   5.180  0.00  0.00    -0.126 OA
ATOM     29  O   UNL     1     -10.306 -11.361   3.421  0.00  0.00    -0.126 OA
ENDBRANCH  25  27
ENDBRANCH  19  21
BRANCH   1  30
ATOM     30  C   UNL     1      -4.409  -5.963   0.012  0.00  0.00    +0.110 C 
BRANCH  30  31
ATOM     31  C   UNL     1      -4.298  -4.437   0.022  0.00  0.00    +0.047 C 
BRANCH  31  32
ATOM     32  C   UNL     1      -2.823  -4.032   0.010  0.00  0.00    +0.161 C 
BRANCH  32  33
ATOM     33  O   UNL     1      -2.719  -2.607   0.020  0.00  0.00    -0.380 OA
BRANCH  33  34
ATOM     34  C   UNL     1      -1.375  -2.122   0.010  0.00  0.00    +0.160 C 
BRANCH  34  35
ATOM     35  C   UNL     1      -1.386  -0.592   0.022  0.00  0.00    +0.028 C 
BRANCH  35  37
ATOM     36  C   UNL     1       0.043   1.458   0.023  0.00  0.00    +0.004 C 
ATOM     37  C   UNL     1       0.053  -0.072   0.011  0.00  0.00    -0.001 C 
ENDBRANCH  35  37
ENDBRANCH  34  35
ENDBRANCH  33  34
ENDBRANCH  32  33
ENDBRANCH  31  32
ENDBRANCH  30  31
ENDBRANCH   1  30
TORSDOF 9
