REMARK  Name = ZINC35040638
REMARK  11 active torsions:
REMARK  status: ('A' for Active; 'I' for Inactive)
REMARK    1  A    between atoms: C_1  and  C_2
REMARK    2  A    between atoms: C_2  and  C_3
REMARK    3  A    between atoms: C_3  and  C_5
REMARK    4  A    between atoms: C_3  and  N_22
REMARK    5  A    between atoms: N_15  and  C_16
REMARK    6  A    between atoms: N_22  and  C_23
REMARK    7  A    between atoms: C_23  and  C_24
REMARK    8  A    between atoms: C_24  and  N_25
REMARK    9  A    between atoms: N_25  and  C_26
REMARK   10  A    between atoms: N_25  and  C_27
REMARK   11  A    between atoms: N_30  and  C_31
REMARK                            x       y       z     vdW  Elec       q    Type
REMARK                         _______ _______ _______ _____ _____    ______ ____
ROOT
ATOM      1  C   UNL     1       0.445  -0.205   1.220  0.00  0.00    +0.144 C 
ENDROOT
BRANCH   1   2
ATOM      2  C   UNL     1       0.644  -1.690   1.381  0.00  0.00    +0.138 A 
ATOM      3  N   UNL     1      -0.020  -2.489   0.602  0.00  0.00    -0.231 NA
ATOM      4  C   UNL     1       0.108  -3.836   0.688  0.00  0.00    +0.078 A 
ATOM      5  C   UNL     1      -0.606  -4.695  -0.150  0.00  0.00    +0.028 A 
ATOM      6  C   UNL     1      -0.446  -6.057  -0.027  0.00  0.00    +0.002 A 
ATOM      7  C   UNL     1       0.419  -6.589   0.921  0.00  0.00    +0.001 A 
ATOM      8  C   UNL     1       1.134  -5.762   1.759  0.00  0.00    +0.015 A 
ATOM      9  C   UNL     1       0.987  -4.381   1.651  0.00  0.00    +0.065 A 
ATOM     10  C   UNL     1       1.724  -3.450   2.518  0.00  0.00    +0.266 A 
ATOM     11  O   UNL     1       2.497  -3.855   3.367  0.00  0.00    -0.267 OA
ATOM     12  N   UNL     1       1.515  -2.126   2.331  0.00  0.00    -0.263 N 
BRANCH  12  13
ATOM     13  C   UNL     1       2.197  -1.197   3.126  0.00  0.00    +0.051 A 
ATOM     14  C   UNL     1       1.909  -1.097   4.481  0.00  0.00    +0.026 A 
ATOM     15  C   UNL     1       2.583  -0.179   5.263  0.00  0.00    +0.002 A 
ATOM     16  C   UNL     1       3.544   0.639   4.698  0.00  0.00    +0.000 A 
ATOM     17  C   UNL     1       3.833   0.542   3.349  0.00  0.00    +0.002 A 
ATOM     18  C   UNL     1       3.166  -0.377   2.563  0.00  0.00    +0.026 A 
ENDBRANCH  12  13
ENDBRANCH   1   2
BRANCH   1  19
ATOM     19  N   UNL     1      -0.415   0.292   2.297  0.00  0.00    -0.277 N 
ATOM     20  C   UNL     1      -0.008   1.321   3.065  0.00  0.00    +0.307 C 
ATOM     21  O   UNL     1       1.075   1.838   2.864  0.00  0.00    -0.252 OA
ATOM     22  N   UNL     1      -0.799   1.778   4.055  0.00  0.00    -0.267 N 
ATOM     23  H   UNL     1      -1.627   1.318   4.266  0.00  0.00    +0.156 HD
BRANCH  22  24
ATOM     24  C   UNL     1      -0.427   2.917   4.781  0.00  0.00    +0.070 A 
ATOM     25  C   UNL     1       0.282   3.936   4.160  0.00  0.00    +0.026 A 
ATOM     26  C   UNL     1       0.648   5.058   4.878  0.00  0.00    +0.002 A 
ATOM     27  C   UNL     1       0.310   5.168   6.215  0.00  0.00    +0.003 A 
ATOM     28  C   UNL     1      -0.396   4.155   6.837  0.00  0.00    +0.040 A 
ATOM     29  C   UNL     1      -0.771   3.031   6.123  0.00  0.00    +0.145 A 
ATOM     30  F   UNL     1      -1.465   2.044   6.730  0.00  0.00    -0.204 F 
ENDBRANCH  22  24
BRANCH  19  31
ATOM     31  C   UNL     1      -1.719  -0.331   2.539  0.00  0.00    +0.091 C 
BRANCH  31  32
ATOM     32  C   UNL     1      -1.588  -1.375   3.650  0.00  0.00    -0.060 C 
BRANCH  32  33
ATOM     33  N   UNL     1      -2.870  -2.070   3.823  0.00  0.00    +0.377 N 
ATOM     34  C   UNL     1      -3.181  -2.834   2.607  0.00  0.00    -0.097 C 
ATOM     35  C   UNL     1      -2.780  -2.987   4.967  0.00  0.00    -0.097 C 
ATOM     36  H   UNL     1      -3.599  -1.393   3.991  0.00  0.00    -0.083 HD
ENDBRANCH  32  33
ENDBRANCH  31  32
ENDBRANCH  19  31
ENDBRANCH   1  19
BRANCH   1  38
ATOM     37  C   UNL     1      -0.346   1.590  -0.327  0.00  0.00    +0.006 C 
ATOM     38  C   UNL     1      -0.214   0.078  -0.131  0.00  0.00    +0.027 C 
ENDBRANCH   1  38
TORSDOF 8
