REMARK  Name = ZINC11443888
REMARK  8 active torsions:
REMARK  status: ('A' for Active; 'I' for Inactive)
REMARK    1  A    between atoms: C_1  and  C_2
REMARK    2  A    between atoms: C_2  and  C_4
REMARK    3  A    between atoms: C_2  and  O_17
REMARK    4  A    between atoms: N_6  and  C_7
REMARK    5  A    between atoms: C_10  and  S_13
REMARK    6  A    between atoms: S_13  and  N_16
REMARK    7  A    between atoms: O_17  and  C_18
REMARK    8  A    between atoms: C_18  and  C_20
REMARK                            x       y       z     vdW  Elec       q    Type
REMARK                         _______ _______ _______ _____ _____    ______ ____
ROOT
ATOM      1  C   UNL     1      -3.246   3.750   1.567  0.00  0.00    +0.062 C 
ATOM      2  C   UNL     1      -2.569   4.140   0.252  0.00  0.00    +0.259 C 
ENDROOT
BRANCH   2   3
ATOM      3  C   UNL     1      -1.255   3.412   0.128  0.00  0.00    +0.258 C 
ATOM      4  O   UNL     1      -0.215   4.035   0.127  0.00  0.00    -0.271 OA
ATOM      5  N   UNL     1      -1.237   2.069   0.019  0.00  0.00    -0.282 N 
ATOM      6  H   UNL     1      -2.070   1.577  -0.057  0.00  0.00    +0.155 HD
BRANCH   5   7
ATOM      7  C   UNL     1      -0.017   1.384   0.015  0.00  0.00    +0.034 A 
ATOM      8  C   UNL     1       0.127   0.222  -0.732  0.00  0.00    +0.025 A 
ATOM      9  C   UNL     1       1.331  -0.454  -0.729  0.00  0.00    +0.030 A 
ATOM     10  C   UNL     1       2.392   0.023   0.017  0.00  0.00    +0.105 A 
ATOM     11  C   UNL     1       2.252   1.180   0.762  0.00  0.00    +0.030 A 
ATOM     12  C   UNL     1       1.051   1.861   0.764  0.00  0.00    +0.025 A 
BRANCH  10  13
ATOM     13  S   UNL     1       3.926  -0.843   0.018  0.00  0.00    +0.056 S 
ATOM     14  O   UNL     1       3.970  -1.593  -1.188  0.00  0.00    -0.153 OA
ATOM     15  O   UNL     1       4.928   0.105   0.362  0.00  0.00    -0.153 OA
BRANCH  13  16
ATOM     16  N   UNL     1       3.868  -1.941   1.256  0.00  0.00    -0.204 NA
ATOM     17  H   UNL     1       3.076  -2.002   1.813  0.00  0.00    +0.144 HD
ATOM     18  H   UNL     1       4.626  -2.522   1.425  0.00  0.00    +0.144 HD
ENDBRANCH  13  16
ENDBRANCH  10  13
ENDBRANCH   5   7
ENDBRANCH   2   3
BRANCH   2  19
ATOM     19  O   UNL     1      -2.332   5.573   0.236  0.00  0.00    -0.448 OA
BRANCH  19  20
ATOM     20  C   UNL     1      -3.309   6.350  -0.275  0.00  0.00    +0.348 C 
ATOM     21  O   UNL     1      -4.332   5.843  -0.695  0.00  0.00    -0.244 OA
BRANCH  20  22
ATOM     22  C   UNL     1      -3.139   7.805  -0.323  0.00  0.00    +0.116 A 
ATOM     23  C   UNL     1      -4.001   8.745  -0.801  0.00  0.00    +0.070 A 
ATOM     24  C   UNL     1      -3.650  10.106  -0.753  0.00  0.00    +0.009 A 
ATOM     25  C   UNL     1      -4.407  11.224  -1.192  0.00  0.00    +0.013 A 
ATOM     26  C   UNL     1      -3.916  12.484  -1.078  0.00  0.00    +0.039 A 
ATOM     27  C   UNL     1      -2.660  12.730  -0.530  0.00  0.00    +0.124 A 
ATOM     28  C   UNL     1      -1.890  11.670  -0.090  0.00  0.00    +0.054 A 
ATOM     29  C   UNL     1      -2.377  10.385  -0.201  0.00  0.00    +0.024 A 
ATOM     30  S   UNL     1      -1.748   8.780   0.223  0.00  0.00    -0.080 S 
ATOM     31  F   UNL     1      -2.198  13.996  -0.428  0.00  0.00    -0.205 F 
ATOM     32 CL   UNL     1      -5.532   8.264  -1.464  0.00  0.00    -0.082 Cl
ENDBRANCH  20  22
ENDBRANCH  19  20
ENDBRANCH   2  19
TORSDOF 7
