REMARK  Name = ZINC55564234
REMARK  8 active torsions:
REMARK  status: ('A' for Active; 'I' for Inactive)
REMARK    1  A    between atoms: C_1  and  C_2
REMARK    2  A    between atoms: C_5  and  C_8
REMARK    3  A    between atoms: C_9  and  S_10
REMARK    4  A    between atoms: S_10  and  N_13
REMARK    5  A    between atoms: N_13  and  C_14
REMARK    6  A    between atoms: C_17  and  C_20
REMARK    7  A    between atoms: N_22  and  C_23
REMARK    8  A    between atoms: C_23  and  C_24
REMARK                            x       y       z     vdW  Elec       q    Type
REMARK                         _______ _______ _______ _____ _____    ______ ____
ROOT
ATOM      1  C   UNL     1       1.839  -8.509   1.893  0.00  0.00    +0.074 A 
ATOM      2  C   UNL     1       0.925  -9.463   1.455  0.00  0.00    +0.027 A 
ATOM      3  C   UNL     1       1.217 -10.803   1.574  0.00  0.00    +0.015 A 
ATOM      4  C   UNL     1       2.433 -11.205   2.135  0.00  0.00    +0.037 A 
ATOM      5  C   UNL     1       3.349 -10.244   2.573  0.00  0.00    +0.015 A 
ATOM      6  C   UNL     1       3.053  -8.906   2.447  0.00  0.00    +0.027 A 
ENDROOT
BRANCH   4   7
ATOM      7  C   UNL     1       2.749 -12.640   2.264  0.00  0.00    +0.245 C 
ATOM      8  O   UNL     1       1.951 -13.475   1.882  0.00  0.00    -0.270 OA
ATOM      9  N   UNL     1       3.921 -13.026   2.805  0.00  0.00    -0.301 N 
ATOM     10  H   UNL     1       4.558 -12.360   3.109  0.00  0.00    +0.150 HD
BRANCH   9  11
ATOM     11  C   UNL     1       4.235 -14.451   2.933  0.00  0.00    +0.229 C 
BRANCH  11  12
ATOM     12  C   UNL     1       5.594 -14.612   3.563  0.00  0.00    +0.373 C 
ATOM     13  O   UNL     1       6.241 -13.627   3.877  0.00  0.00    -0.245 OA
ATOM     14  O   UNL     1       6.047 -15.726   3.760  0.00  0.00    -0.245 OA
ENDBRANCH  11  12
ENDBRANCH   9  11
ENDBRANCH   4   7
BRANCH   1  15
ATOM     15  N   UNL     1       1.542  -7.156   1.772  0.00  0.00    -0.098 NA
BRANCH  15  16
ATOM     16  S   UNL     1       0.098  -6.682   1.113  0.00  0.00    +0.085 S 
ATOM     17  O   UNL     1      -0.917  -7.106   2.012  0.00  0.00    -0.149 OA
ATOM     18  O   UNL     1       0.123  -7.080  -0.251  0.00  0.00    -0.149 OA
BRANCH  16  20
ATOM     19  C   UNL     1       0.060  -4.251  -0.021  0.00  0.00    +0.028 C 
ATOM     20  C   UNL     1       0.074  -4.920   1.123  0.00  0.00    +0.159 C 
BRANCH  19  25
ATOM     21  C   UNL     1      -0.018   1.503   0.010  0.00  0.00    +0.044 C 
ATOM     22  C   UNL     1       0.002  -0.004   0.002  0.00  0.00    -0.050 A 
ATOM     23  C   UNL     1       0.006  -0.686  -1.202  0.00  0.00    +0.004 A 
ATOM     24  C   UNL     1       0.024  -2.066  -1.216  0.00  0.00    +0.008 A 
ATOM     25  C   UNL     1       0.040  -2.773  -0.013  0.00  0.00    -0.024 A 
ATOM     26  C   UNL     1       0.037  -2.079   1.197  0.00  0.00    +0.008 A 
ATOM     27  C   UNL     1       0.023  -0.699   1.198  0.00  0.00    +0.004 A 
ENDBRANCH  19  25
ENDBRANCH  16  20
ENDBRANCH  15  16
ENDBRANCH   1  15
TORSDOF 7
