REMARK  Name = ZINC35636688
REMARK  11 active torsions:
REMARK  status: ('A' for Active; 'I' for Inactive)
REMARK    1  A    between atoms: C_1  and  C_2
REMARK    2  A    between atoms: C_3  and  C_35
REMARK    3  A    between atoms: C_7  and  N_8
REMARK    4  A    between atoms: N_8  and  C_9
REMARK    5  A    between atoms: C_14  and  C_15
REMARK    6  A    between atoms: C_15  and  O_17
REMARK    7  A    between atoms: O_17  and  C_18
REMARK    8  A    between atoms: C_20  and  O_34
REMARK    9  A    between atoms: C_22  and  O_33
REMARK   10  A    between atoms: C_24  and  O_32
REMARK   11  A    between atoms: C_26  and  C_29
REMARK                            x       y       z     vdW  Elec       q    Type
REMARK                         _______ _______ _______ _____ _____    ______ ____
ROOT
ATOM      1  C   UNL     1      -0.130  -0.359   3.816  0.00  0.00    +0.045 A 
ATOM      2  C   UNL     1      -0.247  -1.730   4.008  0.00  0.00    +0.024 A 
ATOM      3  C   UNL     1      -0.247  -2.252   5.285  0.00  0.00    +0.002 A 
ATOM      4  C   UNL     1      -0.129  -1.416   6.385  0.00  0.00    +0.001 A 
ATOM      5  C   UNL     1      -0.012  -0.055   6.216  0.00  0.00    +0.017 A 
ATOM      6  C   UNL     1      -0.005   0.490   4.928  0.00  0.00    +0.080 A 
ENDROOT
BRANCH   1   7
ATOM      7  N   UNL     1      -0.130   0.169   2.532  0.00  0.00    -0.314 N 
ATOM      8  H   UNL     1      -0.968   0.290   2.057  0.00  0.00    +0.152 HD
BRANCH   7  15
ATOM      9  C   UNL     1      -0.237   1.443  -0.008  0.00  0.00    +0.046 C 
ATOM     10  C   UNL     1       1.069   1.149   0.684  0.00  0.00    -0.015 A 
ATOM     11  C   UNL     1       2.277   1.509   0.083  0.00  0.00    +0.068 A 
ATOM     12  C   UNL     1       3.483   1.234   0.731  0.00  0.00    +0.015 A 
ATOM     13  C   UNL     1       3.479   0.608   1.961  0.00  0.00    +0.003 A 
ATOM     14  C   UNL     1       2.283   0.251   2.556  0.00  0.00    +0.023 A 
ATOM     15  C   UNL     1       1.076   0.526   1.922  0.00  0.00    +0.035 A 
BRANCH  11  16
ATOM     16  C   UNL     1       2.279   2.178  -1.233  0.00  0.00    +0.387 C 
ATOM     17  O   UNL     1       2.926   1.707  -2.157  0.00  0.00    -0.241 OA
ATOM     18  O   UNL     1       1.633   3.204  -1.398  0.00  0.00    -0.241 OA
ENDBRANCH  11  16
ENDBRANCH   7  15
ENDBRANCH   1   7
BRANCH   6  19
ATOM     19  C   UNL     1       0.126   1.945   4.739  0.00  0.00    +0.343 C 
ATOM     20  O   UNL     1       0.068   2.420   3.623  0.00  0.00    -0.245 OA
BRANCH  19  21
ATOM     21  O   UNL     1       0.311   2.749   5.805  0.00  0.00    -0.429 OA
BRANCH  21  22
ATOM     22  C   UNL     1       0.430   4.149   5.548  0.00  0.00    +0.343 C 
ATOM     23  C   UNL     1       0.878   4.866   6.825  0.00  0.00    +0.214 C 
ATOM     24  C   UNL     1       0.945   6.373   6.558  0.00  0.00    +0.180 C 
ATOM     25  C   UNL     1      -0.425   6.856   6.071  0.00  0.00    +0.186 C 
ATOM     26  C   UNL     1      -0.822   6.062   4.823  0.00  0.00    +0.266 C 
ATOM     27  O   UNL     1      -0.836   4.667   5.132  0.00  0.00    -0.322 OA
BRANCH  26  28
ATOM     28  C   UNL     1      -2.195   6.490   4.372  0.00  0.00    +0.387 C 
ATOM     29  O   UNL     1      -2.378   7.628   3.973  0.00  0.00    -0.243 OA
ATOM     30  O   UNL     1      -3.122   5.699   4.405  0.00  0.00    -0.243 OA
ENDBRANCH  26  28
BRANCH  25  31
ATOM     31  O   UNL     1      -0.355   8.247   5.751  0.00  0.00    -0.386 OA
ATOM     32  H   UNL     1      -1.189   8.620   5.435  0.00  0.00    +0.210 HD
ENDBRANCH  25  31
BRANCH  24  33
ATOM     33  O   UNL     1       1.293   7.057   7.764  0.00  0.00    -0.386 OA
ATOM     34  H   UNL     1       2.148   6.794   8.132  0.00  0.00    +0.210 HD
ENDBRANCH  24  33
BRANCH  23  35
ATOM     35  O   UNL     1      -0.059   4.607   7.872  0.00  0.00    -0.383 OA
ATOM     36  H   UNL     1      -0.156   3.670   8.091  0.00  0.00    +0.210 HD
ENDBRANCH  23  35
ENDBRANCH  21  22
ENDBRANCH  19  21
ENDBRANCH   6  19
TORSDOF 10
