REMARK  Name = ZINC09126444
REMARK  11 active torsions:
REMARK  status: ('A' for Active; 'I' for Inactive)
REMARK    1  A    between atoms: C_1  and  C_2
REMARK    2  A    between atoms: C_2  and  N_3
REMARK    3  A    between atoms: N_3  and  C_4
REMARK    4  A    between atoms: N_3  and  S_6
REMARK    5  A    between atoms: C_4  and  C_5
REMARK    6  A    between atoms: S_6  and  C_9
REMARK    7  A    between atoms: N_14  and  C_16
REMARK    8  A    between atoms: C_16  and  C_17
REMARK    9  A    between atoms: N_19  and  C_20
REMARK   10  A    between atoms: C_20  and  C_22
REMARK   11  A    between atoms: C_20  and  C_23
REMARK                            x       y       z     vdW  Elec       q    Type
REMARK                         _______ _______ _______ _____ _____    ______ ____
ROOT
ATOM      1  C   UNL     1       3.745   1.447   0.644  0.00  0.00    +0.220 C 
ENDROOT
BRANCH   1   7
ATOM      2  C   UNL     1       6.017  -1.332   1.506  0.00  0.00    +0.122 A 
ATOM      3  C   UNL     1       6.211  -1.133   2.881  0.00  0.00    +0.035 A 
ATOM      4  C   UNL     1       5.589  -0.087   3.497  0.00  0.00    +0.072 A 
ATOM      5  C   UNL     1       4.773   0.771   2.740  0.00  0.00    +0.252 A 
ATOM      6  O   UNL     1       4.215   1.714   3.278  0.00  0.00    -0.268 OA
ATOM      7  N   UNL     1       4.602   0.550   1.423  0.00  0.00    -0.305 N 
ATOM      8  C   UNL     1       5.220  -0.490   0.807  0.00  0.00    +0.118 A 
BRANCH   2   9
ATOM      9  S   UNL     1       6.811  -2.676   0.689  0.00  0.00    +0.062 S 
ATOM     10  O   UNL     1       6.663  -3.809   1.534  0.00  0.00    -0.153 OA
ATOM     11  O   UNL     1       6.351  -2.663  -0.655  0.00  0.00    -0.153 OA
BRANCH   9  12
ATOM     12  N   UNL     1       8.430  -2.331   0.640  0.00  0.00    -0.177 NA
BRANCH  12  14
ATOM     13  C   UNL     1       9.951  -4.102   1.371  0.00  0.00    +0.022 C 
ATOM     14  C   UNL     1       9.305  -2.763   1.733  0.00  0.00    +0.106 C 
ENDBRANCH  12  14
BRANCH  12  15
ATOM     15  C   UNL     1       8.988  -1.595  -0.497  0.00  0.00    +0.106 C 
ATOM     16  C   UNL     1       9.053  -0.105  -0.157  0.00  0.00    +0.022 C 
ENDBRANCH  12  15
ENDBRANCH   9  12
ENDBRANCH   2   9
ENDBRANCH   1   7
BRANCH   1  17
ATOM     17  C   UNL     1       2.331   0.926   0.654  0.00  0.00    +0.233 C 
ATOM     18  O   UNL     1       2.066  -0.095   1.254  0.00  0.00    -0.274 OA
ATOM     19  N   UNL     1       1.362   1.593  -0.002  0.00  0.00    -0.307 N 
ATOM     20  H   UNL     1       1.574   2.409  -0.482  0.00  0.00    +0.149 HD
BRANCH  19  21
ATOM     21  C   UNL     1      -0.013   1.086   0.008  0.00  0.00    +0.100 C 
ATOM     22  C   UNL     1      -0.729   1.579   1.267  0.00  0.00    +0.033 C 
BRANCH  21  23
ATOM     23  C   UNL     1      -0.742   1.585  -1.213  0.00  0.00    -0.027 A 
ATOM     24  C   UNL     1      -0.549   2.881  -1.654  0.00  0.00    +0.006 A 
ATOM     25  C   UNL     1      -1.222   3.332  -2.771  0.00  0.00    +0.004 A 
ATOM     26  C   UNL     1      -2.092   2.493  -3.457  0.00  0.00    -0.044 A 
ATOM     27  C   UNL     1      -2.280   1.202  -3.020  0.00  0.00    -0.044 A 
ATOM     28  C   UNL     1      -1.599   0.749  -1.897  0.00  0.00    +0.009 A 
ATOM     29  C   UNL     1      -3.199   0.235  -3.720  0.00  0.00    +0.035 C 
ATOM     30  C   UNL     1      -4.170   0.982  -4.632  0.00  0.00    +0.005 C 
ATOM     31  C   UNL     1      -3.362   1.928  -5.527  0.00  0.00    +0.005 C 
ATOM     32  C   UNL     1      -2.804   3.054  -4.660  0.00  0.00    +0.035 C 
ENDBRANCH  21  23
ENDBRANCH  19  21
ENDBRANCH   1  17
TORSDOF 8
