REMARK  Name = ZINC28057843
REMARK  4 active torsions:
REMARK  status: ('A' for Active; 'I' for Inactive)
REMARK    1  A    between atoms: C_1  and  S_2
REMARK    2  A    between atoms: S_2  and  C_3
REMARK    3  A    between atoms: C_6  and  C_9
REMARK    4  A    between atoms: C_27  and  C_29
REMARK                            x       y       z     vdW  Elec       q    Type
REMARK                         _______ _______ _______ _____ _____    ______ ____
ROOT
ATOM      1  C   UNL     1      -2.604   3.692   0.247  0.00  0.00    +0.234 C 
ATOM      2  C   UNL     1      -1.319   2.896   0.263  0.00  0.00    +0.026 C 
ATOM      3  C   UNL     1      -1.363   1.585   0.016  0.00  0.00    +0.050 C 
ATOM      4  C   UNL     1      -2.684   0.953  -0.210  0.00  0.00    +0.039 A 
ATOM      5  C   UNL     1      -2.795  -0.310  -0.777  0.00  0.00    +0.033 A 
ATOM      6  C   UNL     1      -4.048  -0.861  -0.974  0.00  0.00    +0.042 A 
ATOM      7  C   UNL     1      -5.184  -0.159  -0.609  0.00  0.00    +0.023 A 
ATOM      8  C   UNL     1      -5.082   1.099  -0.045  0.00  0.00    +0.048 A 
ATOM      9  C   UNL     1      -3.835   1.662   0.158  0.00  0.00    +0.131 A 
ATOM     10  O   UNL     1      -3.694   2.894   0.708  0.00  0.00    -0.479 OA
ATOM     11 CL   UNL     1      -4.196  -2.439  -1.682  0.00  0.00    -0.084 Cl
ATOM     12  N   UNL     1      -0.210   0.791  -0.010  0.00  0.00    -0.282 N 
ATOM     13  C   UNL     1       1.010   1.445  -0.053  0.00  0.00    +0.240 A 
ATOM     14  N   UNL     1       2.209   1.010  -0.314  0.00  0.00    -0.092 NA
ATOM     15  N   UNL     1       3.059   1.978  -0.250  0.00  0.00    -0.021 NA
ATOM     16  N   UNL     1       2.460   3.084   0.056  0.00  0.00    -0.042 NA
ATOM     17  N   UNL     1       1.108   2.777   0.199  0.00  0.00    -0.201 N 
ATOM     18  C   UNL     1      -0.026   3.623   0.543  0.00  0.00    +0.177 C 
ATOM     19  H   UNL     1      -0.296  -0.305   0.005  0.00  0.00    +0.155 HD
ENDROOT
BRANCH  18  20
ATOM     20  C   UNL     1       0.041   3.978   2.006  0.00  0.00    +0.017 A 
ATOM     21  C   UNL     1       0.011   2.980   2.962  0.00  0.00    +0.009 A 
ATOM     22  C   UNL     1       0.079   3.305   4.303  0.00  0.00    +0.001 A 
ATOM     23  C   UNL     1       0.164   4.629   4.691  0.00  0.00    +0.003 A 
ATOM     24  C   UNL     1       0.189   5.629   3.738  0.00  0.00    +0.039 A 
ATOM     25  C   UNL     1       0.127   5.304   2.393  0.00  0.00    +0.129 A 
ATOM     26  F   UNL     1       0.151   6.281   1.460  0.00  0.00    -0.205 F 
ENDBRANCH  18  20
BRANCH   1  30
ATOM     27  C   UNL     1      -3.405   4.993  -3.745  0.00  0.00    +0.008 A 
ATOM     28  C   UNL     1      -3.631   3.669  -3.385  0.00  0.00    +0.015 A 
ATOM     29  C   UNL     1      -3.371   3.253  -2.095  0.00  0.00    +0.008 A 
ATOM     30  C   UNL     1      -2.887   4.151  -1.161  0.00  0.00    -0.003 A 
ATOM     31  C   UNL     1      -2.666   5.469  -1.514  0.00  0.00    +0.008 A 
ATOM     32  C   UNL     1      -2.919   5.892  -2.804  0.00  0.00    +0.015 A 
BRANCH  27  34
ATOM     33  C   UNL     1      -3.297   7.289  -5.375  0.00  0.00    +0.090 C 
ATOM     34  S   UNL     1      -3.736   5.529  -5.391  0.00  0.00    -0.129 S 
ENDBRANCH  27  34
ENDBRANCH   1  30
TORSDOF 3
