REMARK  Name = ZINC58950868
REMARK  5 active torsions:
REMARK  status: ('A' for Active; 'I' for Inactive)
REMARK    1  A    between atoms: C_1  and  C_2
REMARK    2  A    between atoms: C_6  and  C_7
REMARK    3  A    between atoms: C_10  and  C_22
REMARK    4  A    between atoms: C_16  and  N_21
REMARK    5  A    between atoms: C_17  and  C_18
REMARK                            x       y       z     vdW  Elec       q    Type
REMARK                         _______ _______ _______ _____ _____    ______ ____
ROOT
ATOM      1  C   UNL     1       0.257  -0.153   2.595  0.00  0.00    +0.103 C 
ATOM      2  C   UNL     1       1.603  -0.557   3.141  0.00  0.00    +0.049 A 
ATOM      3  C   UNL     1       2.860  -0.050   2.842  0.00  0.00    +0.068 A 
ATOM      4  N   UNL     1       3.744  -0.706   3.556  0.00  0.00    -0.176 NA
ATOM      5  N   UNL     1       3.066  -1.656   4.337  0.00  0.00    -0.246 N 
ATOM      6  H   UNL     1       3.473  -2.279   4.959  0.00  0.00    +0.192 HD
ATOM      7  C   UNL     1       1.755  -1.549   4.069  0.00  0.00    +0.222 A 
ATOM      8  O   UNL     1       0.708  -2.247   4.574  0.00  0.00    -0.424 OA
ATOM      9  C   UNL     1      -0.530  -1.764   4.350  0.00  0.00    +0.195 C 
ATOM     10  C   UNL     1      -0.809  -0.792   3.449  0.00  0.00    +0.083 C 
ATOM     11  C   UNL     1       3.159   1.059   1.866  0.00  0.00    +0.068 C 
ENDROOT
BRANCH   1  17
ATOM     12  C   UNL     1      -0.495   1.553   0.154  0.00  0.00    +0.044 C 
ATOM     13  C   UNL     1      -0.205   0.077   0.062  0.00  0.00    -0.039 A 
ATOM     14  C   UNL     1      -0.264  -0.575  -1.155  0.00  0.00    +0.011 A 
ATOM     15  C   UNL     1       0.002  -1.903  -1.202  0.00  0.00    +0.046 A 
ATOM     16  S   UNL     1       0.349  -2.272   0.510  0.00  0.00    -0.100 S 
ATOM     17  C   UNL     1       0.122  -0.630   1.172  0.00  0.00    +0.005 A 
ENDBRANCH   1  17
BRANCH  10  18
ATOM     18  C   UNL     1      -2.139  -0.363   3.304  0.00  0.00    +0.243 C 
ATOM     19  O   UNL     1      -2.502   0.682   3.816  0.00  0.00    -0.271 OA
ATOM     20  N   UNL     1      -3.014  -1.108   2.599  0.00  0.00    -0.325 N 
ATOM     21  H   UNL     1      -2.747  -1.973   2.253  0.00  0.00    +0.145 HD
ATOM     22  H   UNL     1      -3.912  -0.777   2.438  0.00  0.00    +0.145 HD
ENDBRANCH  10  18
BRANCH   9  23
ATOM     23  N   UNL     1      -1.568  -2.286   5.077  0.00  0.00    -0.329 N 
ATOM     24  H   UNL     1      -1.391  -2.925   5.785  0.00  0.00    +0.145 HD
ATOM     25  H   UNL     1      -2.480  -2.018   4.883  0.00  0.00    +0.145 HD
ENDBRANCH   9  23
TORSDOF 3
