REMARK  Name = ZINC28961224
REMARK  10 active torsions:
REMARK  status: ('A' for Active; 'I' for Inactive)
REMARK    1  A    between atoms: C_1  and  N_2
REMARK    2  A    between atoms: N_2  and  C_3
REMARK    3  A    between atoms: N_2  and  C_17
REMARK    4  A    between atoms: C_3  and  C_4
REMARK    5  A    between atoms: N_6  and  C_7
REMARK    6  A    between atoms: C_12  and  C_13
REMARK    7  A    between atoms: C_17  and  C_18
REMARK    8  A    between atoms: N_20  and  C_21
REMARK    9  A    between atoms: N_20  and  C_28
REMARK   10  A    between atoms: C_21  and  C_22
REMARK                            x       y       z     vdW  Elec       q    Type
REMARK                         _______ _______ _______ _____ _____    ______ ____
ROOT
ATOM      1  C   UNL     1       6.405   1.815  -2.576  0.00  0.00    -0.095 C 
ATOM      2  N   UNL     1       7.008   0.488  -2.399  0.00  0.00    +0.389 N 
ATOM      3  H   UNL     1       7.522   0.477  -1.427  0.00  0.00    -0.081 HD
ENDROOT
BRANCH   2   4
ATOM      4  C   UNL     1       8.008   0.220  -3.442  0.00  0.00    +0.019 C 
BRANCH   4   5
ATOM      5  C   UNL     1       9.169   1.166  -3.278  0.00  0.00    +0.201 C 
ATOM      6  O   UNL     1       9.165   1.983  -2.381  0.00  0.00    -0.278 OA
ATOM      7  N   UNL     1      10.213   1.105  -4.129  0.00  0.00    -0.287 N 
ATOM      8  H   UNL     1      10.256   0.312  -4.891  0.00  0.00    +0.155 HD
BRANCH   7   9
ATOM      9  C   UNL     1      11.242   2.049  -4.042  0.00  0.00    +0.045 A 
ATOM     10  C   UNL     1      11.537   2.647  -2.824  0.00  0.00    +0.024 A 
ATOM     11  C   UNL     1      12.557   3.575  -2.741  0.00  0.00    +0.002 A 
ATOM     12  C   UNL     1      13.278   3.915  -3.871  0.00  0.00    +0.001 A 
ATOM     13  C   UNL     1      12.983   3.325  -5.086  0.00  0.00    +0.014 A 
ATOM     14  C   UNL     1      11.968   2.393  -5.175  0.00  0.00    +0.076 A 
BRANCH  14  15
ATOM     15  C   UNL     1      11.647   1.751  -6.500  0.00  0.00    +0.419 C 
ATOM     16  F   UNL     1      12.506   2.255  -7.483  0.00  0.00    -0.166 F 
ATOM     17  F   UNL     1      11.815   0.365  -6.400  0.00  0.00    -0.166 F 
ATOM     18  F   UNL     1      10.322   2.036  -6.848  0.00  0.00    -0.166 F 
ENDBRANCH  14  15
ENDBRANCH   7   9
ENDBRANCH   4   5
ENDBRANCH   2   4
BRANCH   2  19
ATOM     19  C   UNL     1       5.978  -0.560  -2.376  0.00  0.00    +0.019 C 
BRANCH  19  20
ATOM     20  C   UNL     1       5.117  -0.391  -1.151  0.00  0.00    +0.203 C 
ATOM     21  O   UNL     1       5.403   0.444  -0.319  0.00  0.00    -0.277 OA
ATOM     22  N   UNL     1       4.028  -1.167  -0.980  0.00  0.00    -0.269 N 
BRANCH  22  23
ATOM     23  C   UNL     1       3.646  -2.066  -1.982  0.00  0.00    +0.037 A 
ATOM     24  C   UNL     1       3.079  -1.595  -3.159  0.00  0.00    +0.023 A 
ATOM     25  C   UNL     1       2.709  -2.485  -4.149  0.00  0.00    +0.002 A 
ATOM     26  C   UNL     1       2.890  -3.843  -3.963  0.00  0.00    +0.000 A 
ATOM     27  C   UNL     1       3.448  -4.315  -2.789  0.00  0.00    +0.002 A 
ATOM     28  C   UNL     1       3.826  -3.430  -1.799  0.00  0.00    +0.023 A 
ENDBRANCH  22  23
BRANCH  22  29
ATOM     29  C   UNL     1       3.246  -1.069   0.254  0.00  0.00    +0.148 C 
BRANCH  29  30
ATOM     30  C   UNL     1       2.167  -0.030   0.085  0.00  0.00    -0.030 A 
ATOM     31  C   UNL     1       0.925  -0.396  -0.400  0.00  0.00    +0.005 A 
ATOM     32  C   UNL     1      -0.064   0.557  -0.556  0.00  0.00    +0.000 A 
ATOM     33  C   UNL     1       0.189   1.876  -0.227  0.00  0.00    +0.000 A 
ATOM     34  C   UNL     1       1.431   2.241   0.258  0.00  0.00    +0.000 A 
ATOM     35  C   UNL     1       2.420   1.288   0.414  0.00  0.00    +0.005 A 
ENDBRANCH  29  30
ENDBRANCH  22  29
ENDBRANCH  19  20
ENDBRANCH   2  19
TORSDOF 9
