REMARK  Name = ZINC37602503
REMARK  9 active torsions:
REMARK  status: ('A' for Active; 'I' for Inactive)
REMARK    1  A    between atoms: C_1  and  C_2
REMARK    2  A    between atoms: C_5  and  C_8
REMARK    3  A    between atoms: C_12  and  O_26
REMARK    4  A    between atoms: C_19  and  C_21
REMARK    5  A    between atoms: O_26  and  C_27
REMARK    6  A    between atoms: C_27  and  C_28
REMARK    7  A    between atoms: C_30  and  C_33
REMARK    8  A    between atoms: N_35  and  C_36
REMARK    9  A    between atoms: C_36  and  C_37
REMARK                            x       y       z     vdW  Elec       q    Type
REMARK                         _______ _______ _______ _____ _____    ______ ____
ROOT
ATOM      1  C   UNL     1       0.034  -4.266   0.011  0.00  0.00    +0.137 C 
ATOM      2  C   UNL     1      -1.317  -4.813   0.397  0.00  0.00    -0.016 A 
ATOM      3  C   UNL     1      -2.435  -4.270  -0.221  0.00  0.00    +0.051 A 
ATOM      4  C   UNL     1      -3.702  -4.738   0.084  0.00  0.00    +0.121 A 
ATOM      5  C   UNL     1      -3.851  -5.758   1.013  0.00  0.00    +0.046 A 
ATOM      6  C   UNL     1      -2.739  -6.292   1.627  0.00  0.00    +0.007 A 
ATOM      7  C   UNL     1      -1.467  -5.819   1.326  0.00  0.00    -0.040 A 
ATOM      8  C   UNL     1      -0.303  -6.434   2.058  0.00  0.00    +0.054 C 
ATOM      9  C   UNL     1       1.005  -6.182   1.309  0.00  0.00    +0.113 C 
ATOM     10  N   UNL     1       1.051  -4.756   0.947  0.00  0.00    -0.290 N 
ATOM     11  C   UNL     1       1.990  -3.934   1.455  0.00  0.00    +0.219 C 
ATOM     12  O   UNL     1       1.973  -2.752   1.183  0.00  0.00    -0.275 OA
ENDROOT
BRANCH   1  17
ATOM     13  C   UNL     1      -0.109   1.509   0.181  0.00  0.00    +0.044 C 
ATOM     14  C   UNL     1      -0.072   0.003   0.136  0.00  0.00    -0.050 A 
ATOM     15  C   UNL     1      -0.429  -0.731   1.252  0.00  0.00    +0.004 A 
ATOM     16  C   UNL     1      -0.395  -2.112   1.211  0.00  0.00    +0.006 A 
ATOM     17  C   UNL     1      -0.004  -2.760   0.055  0.00  0.00    -0.023 A 
ATOM     18  C   UNL     1       0.353  -2.026  -1.061  0.00  0.00    +0.006 A 
ATOM     19  C   UNL     1       0.315  -0.645  -1.022  0.00  0.00    +0.004 A 
ENDBRANCH   1  17
BRANCH  11  20
ATOM     20  C   UNL     1       3.062  -4.483   2.360  0.00  0.00    +0.075 C 
ATOM     21  C   UNL     1       2.427  -5.057   3.644  0.00  0.00    +0.013 C 
ATOM     22  C   UNL     1       3.435  -4.691   4.762  0.00  0.00    +0.001 C 
ATOM     23  C   UNL     1       3.914  -3.279   4.342  0.00  0.00    +0.001 C 
ATOM     24  C   UNL     1       4.008  -3.353   2.804  0.00  0.00    +0.013 C 
ENDBRANCH  11  20
BRANCH   4  25
ATOM     25  O   UNL     1      -4.793  -4.201  -0.522  0.00  0.00    -0.485 OA
BRANCH  25  26
ATOM     26  C   UNL     1      -6.067  -4.735  -0.157  0.00  0.00    +0.291 C 
BRANCH  26  27
ATOM     27  C   UNL     1      -7.150  -4.022  -0.925  0.00  0.00    +0.116 A 
ATOM     28  N   UNL     1      -7.657  -4.340  -2.085  0.00  0.00    -0.236 NA
ATOM     29  C   UNL     1      -8.619  -3.563  -2.592  0.00  0.00    +0.133 A 
ATOM     30  C   UNL     1      -8.989  -2.488  -1.829  0.00  0.00    +0.080 A 
ATOM     31  S   UNL     1      -7.992  -2.638  -0.485  0.00  0.00    -0.076 S 
BRANCH  29  32
ATOM     32  C   UNL     1      -9.246  -3.847  -3.894  0.00  0.00    +0.263 C 
ATOM     33  O   UNL     1     -10.119  -3.116  -4.321  0.00  0.00    -0.269 OA
ATOM     34  N   UNL     1      -8.851  -4.917  -4.612  0.00  0.00    -0.310 N 
ATOM     35  H   UNL     1      -8.155  -5.500  -4.272  0.00  0.00    +0.149 HD
BRANCH  34  36
ATOM     36  C   UNL     1      -9.475  -5.200  -5.908  0.00  0.00    +0.108 C 
BRANCH  36  37
ATOM     37  C   UNL     1      -8.850  -6.460  -6.510  0.00  0.00    +0.006 C 
ATOM     38  C   UNL     1      -8.079  -6.308  -7.823  0.00  0.00    +0.005 C 
ATOM     39  C   UNL     1      -9.448  -6.991  -7.814  0.00  0.00    +0.005 C 
ENDBRANCH  36  37
ENDBRANCH  34  36
ENDBRANCH  29  32
ENDBRANCH  26  27
ENDBRANCH  25  26
ENDBRANCH   4  25
TORSDOF 8
