REMARK  Name = ZINC26548018
REMARK  4 active torsions:
REMARK  status: ('A' for Active; 'I' for Inactive)
REMARK    1  A    between atoms: C_1  and  C_2
REMARK    2  A    between atoms: C_2  and  N_3
REMARK    3  A    between atoms: C_4  and  C_8
REMARK    4  A    between atoms: N_12  and  N_13
REMARK                            x       y       z     vdW  Elec       q    Type
REMARK                         _______ _______ _______ _____ _____    ______ ____
ROOT
ATOM      1  C   UNL     1       3.601   0.788  -0.055  0.00  0.00    +0.200 A 
ATOM      2  N   UNL     1       4.433  -0.224  -0.163  0.00  0.00    -0.125 NA
ATOM      3  N   UNL     1       5.645   0.202  -0.154  0.00  0.00    -0.120 NA
ATOM      4  C   UNL     1       5.664   1.512  -0.040  0.00  0.00    +0.220 A 
ATOM      5  N   UNL     1       4.365   1.932   0.022  0.00  0.00    -0.222 N 
ATOM      6  S   UNL     1       7.097   2.535   0.017  0.00  0.00    -0.008 SA
ENDROOT
BRANCH   1   8
ATOM      7  N   UNL     1       1.375  -0.422   0.004  0.00  0.00    -0.261 N 
ATOM      8  C   UNL     1       2.130   0.715  -0.026  0.00  0.00    +0.107 A 
ATOM      9  C   UNL     1       1.256   1.781  -0.025  0.00  0.00    +0.052 A 
ATOM     10  C   UNL     1      -0.040   1.266   0.007  0.00  0.00    +0.135 A 
ATOM     11  N   UNL     1       0.028  -0.040   0.024  0.00  0.00    -0.179 NA
BRANCH   7  13
ATOM     12  C   UNL     1       1.931  -2.333  -1.418  0.00  0.00    +0.029 C 
ATOM     13  C   UNL     1       1.884  -1.796   0.014  0.00  0.00    +0.141 C 
ENDBRANCH   7  13
ENDBRANCH   1   8
BRANCH   5  14
ATOM     14  N   UNL     1       3.918   3.217   0.138  0.00  0.00    -0.294 N 
ATOM     15  H   UNL     1       4.638   4.047   0.189  0.00  0.00    +0.163 HD
ATOM     16  H   UNL     1       2.838   3.422   0.179  0.00  0.00    +0.163 HD
ENDBRANCH   5  14
TORSDOF 3
