REMARK  Name = ZINC13150042
REMARK  6 active torsions:
REMARK  status: ('A' for Active; 'I' for Inactive)
REMARK    1  A    between atoms: C_3  and  C_6
REMARK    2  A    between atoms: C_9  and  C_27
REMARK    3  A    between atoms: C_12  and  C_14
REMARK    4  A    between atoms: C_14  and  S_15
REMARK    5  A    between atoms: S_15  and  C_16
REMARK    6  A    between atoms: C_20  and  C_22
REMARK                            x       y       z     vdW  Elec       q    Type
REMARK                         _______ _______ _______ _____ _____    ______ ____
ROOT
ATOM      1  C   UNL     1      -0.954  12.048   0.069  0.00  0.00    +0.173 C 
ATOM      2  C   UNL     1       0.562  12.328   0.063  0.00  0.00    +0.090 C 
ATOM      3  C   UNL     1       1.187  10.951   0.050  0.00  0.00    +0.069 C 
ATOM      4  N   UNL     1       0.259  10.057   0.053  0.00  0.00    -0.181 NA
ATOM      5  N   UNL     1      -1.033  10.579   0.068  0.00  0.00    -0.181 N 
ATOM      6  C   UNL     1      -2.170   9.855   0.074  0.00  0.00    +0.246 C 
ATOM      7  O   UNL     1      -3.246  10.416   0.087  0.00  0.00    -0.273 OA
ENDROOT
BRANCH   3   8
ATOM      8  C   UNL     1       2.635  10.674   0.035  0.00  0.00    -0.002 A 
ATOM      9  C   UNL     1       3.551  11.728   0.026  0.00  0.00    +0.011 A 
ATOM     10  C   UNL     1       4.904  11.462   0.017  0.00  0.00    +0.020 A 
ATOM     11  C   UNL     1       5.356  10.153   0.006  0.00  0.00    +0.041 A 
ATOM     12  C   UNL     1       4.453   9.103   0.009  0.00  0.00    +0.020 A 
ATOM     13  C   UNL     1       3.097   9.355   0.024  0.00  0.00    +0.011 A 
ATOM     14 CL   UNL     1       7.061   9.826  -0.013  0.00  0.00    -0.084 Cl
ENDBRANCH   3   8
BRANCH   1  17
ATOM     15  C   UNL     1      -2.759  13.891  -2.563  0.00  0.00    +0.041 A 
ATOM     16  C   UNL     1      -2.352  13.733  -1.218  0.00  0.00    +0.046 A 
ATOM     17  C   UNL     1      -1.605  12.615  -1.166  0.00  0.00    +0.128 A 
ATOM     18  O   UNL     1      -1.534  12.094  -2.401  0.00  0.00    -0.466 OA
ATOM     19  C   UNL     1      -2.237  12.860  -3.252  0.00  0.00    +0.195 A 
ENDBRANCH   1  17
BRANCH   6  20
ATOM     20  C   UNL     1      -2.105   8.349   0.066  0.00  0.00    +0.175 C 
BRANCH  20  21
ATOM     21  S   UNL     1      -3.784   7.673   0.077  0.00  0.00    -0.077 S 
BRANCH  21  22
ATOM     22  C   UNL     1      -3.420   5.949   0.065  0.00  0.00    +0.185 A 
ATOM     23  N   UNL     1      -4.326   4.946   0.068  0.00  0.00    -0.253 N 
ATOM     24  H   UNL     1      -5.292   5.037   0.077  0.00  0.00    +0.191 HD
ATOM     25  N   UNL     1      -3.595   3.748   0.050  0.00  0.00    -0.151 NA
ATOM     26  C   UNL     1      -2.321   4.076   0.046  0.00  0.00    +0.189 A 
ATOM     27  N   UNL     1      -2.219   5.414   0.052  0.00  0.00    -0.200 NA
BRANCH  26  28
ATOM     28  C   UNL     1      -1.188   3.126   0.030  0.00  0.00    +0.058 A 
ATOM     29  C   UNL     1      -1.210   1.757   0.017  0.00  0.00    +0.019 A 
ATOM     30  C   UNL     1      -0.013   1.076   0.008  0.00  0.00    +0.008 A 
ATOM     31  C   UNL     1       1.149   1.779   0.001  0.00  0.00    +0.046 A 
ATOM     32  S   UNL     1       0.565   3.466   0.015  0.00  0.00    -0.093 S 
ENDBRANCH  26  28
ENDBRANCH  21  22
ENDBRANCH  20  21
ENDBRANCH   6  20
TORSDOF 6
