REMARK  Name = ZINC04145140
REMARK  9 active torsions:
REMARK  status: ('A' for Active; 'I' for Inactive)
REMARK    1  A    between atoms: C_1  and  C_2
REMARK    2  A    between atoms: C_5  and  C_9
REMARK    3  A    between atoms: C_6  and  C_8
REMARK    4  A    between atoms: N_14  and  C_17
REMARK    5  A    between atoms: C_17  and  C_18
REMARK    6  A    between atoms: C_18  and  C_19
REMARK    7  A    between atoms: C_19  and  C_20
REMARK    8  A    between atoms: C_19  and  C_21
REMARK    9  A    between atoms: N_22  and  C_26
REMARK                            x       y       z     vdW  Elec       q    Type
REMARK                         _______ _______ _______ _____ _____    ______ ____
ROOT
ATOM      1  C   UNL     1       1.890  -1.903  -0.032  0.00  0.00    +0.142 C 
ATOM      2  C   UNL     1       1.158  -0.584   0.114  0.00  0.00    +0.058 C 
ATOM      3  C   UNL     1       1.895   0.546   0.109  0.00  0.00    +0.042 C 
ATOM      4  C   UNL     1       0.920   1.690   0.269  0.00  0.00    +0.159 C 
ATOM      5  N   UNL     1      -0.402   1.052   0.358  0.00  0.00    -0.292 N 
ATOM      6  C   UNL     1      -0.210  -0.277   0.263  0.00  0.00    +0.247 C 
ATOM      7  O   UNL     1      -1.101  -1.105   0.301  0.00  0.00    -0.270 OA
ATOM      8  N   UNL     1       3.254   0.504  -0.023  0.00  0.00    -0.260 N 
ATOM      9  C   UNL     1       3.951  -0.632  -0.155  0.00  0.00    +0.307 C 
ATOM     10  O   UNL     1       5.160  -0.571  -0.267  0.00  0.00    -0.252 OA
ATOM     11  N   UNL     1       3.355  -1.841  -0.168  0.00  0.00    -0.288 N 
ATOM     12  C   UNL     1       3.989   1.771  -0.020  0.00  0.00    +0.139 C 
ATOM     13  H   UNL     1       3.879  -2.652  -0.265  0.00  0.00    +0.151 HD
ENDROOT
BRANCH   1  18
ATOM     14  C   UNL     1      -0.220  -4.605  -4.684  0.00  0.00    +0.044 C 
ATOM     15  C   UNL     1       0.330  -3.900  -3.470  0.00  0.00    -0.050 A 
ATOM     16  C   UNL     1       0.155  -2.537  -3.324  0.00  0.00    +0.004 A 
ATOM     17  C   UNL     1       0.659  -1.891  -2.212  0.00  0.00    +0.006 A 
ATOM     18  C   UNL     1       1.339  -2.608  -1.245  0.00  0.00    -0.020 A 
ATOM     19  C   UNL     1       1.520  -3.970  -1.394  0.00  0.00    -0.045 A 
ATOM     20  C   UNL     1       1.010  -4.617  -2.504  0.00  0.00    +0.007 A 
ATOM     21  C   UNL     1       2.267  -4.750  -0.343  0.00  0.00    +0.044 C 
ENDBRANCH   1  18
BRANCH   5  22
ATOM     22  C   UNL     1      -1.688   1.734   0.515  0.00  0.00    +0.109 C 
BRANCH  22  23
ATOM     23  C   UNL     1      -2.005   1.889   2.004  0.00  0.00    +0.022 C 
BRANCH  23  24
ATOM     24  C   UNL     1      -3.349   2.602   2.168  0.00  0.00    -0.016 C 
ATOM     25  C   UNL     1      -4.466   1.721   1.605  0.00  0.00    +0.007 C 
ATOM     26  C   UNL     1      -3.607   2.868   3.652  0.00  0.00    +0.007 C 
ENDBRANCH  23  24
ENDBRANCH  22  23
ENDBRANCH   5  22
TORSDOF 4
