REMARK  Name = ZINC38803569
REMARK  9 active torsions:
REMARK  status: ('A' for Active; 'I' for Inactive)
REMARK    1  A    between atoms: C_1  and  C_2
REMARK    2  A    between atoms: C_2  and  C_3
REMARK    3  A    between atoms: C_3  and  C_4
REMARK    4  A    between atoms: C_6  and  C_9
REMARK    5  A    between atoms: C_9  and  C_10
REMARK    6  A    between atoms: C_10  and  C_11
REMARK    7  A    between atoms: N_13  and  C_14
REMARK    8  A    between atoms: C_14  and  C_15
REMARK    9  A    between atoms: C_14  and  C_21
REMARK                            x       y       z     vdW  Elec       q    Type
REMARK                         _______ _______ _______ _____ _____    ______ ____
ROOT
ATOM      1  C   UNL     1       1.228  -9.048   5.338  0.00  0.00    +0.134 C 
ENDROOT
BRANCH   1   2
ATOM      2  C   UNL     1       2.044 -10.300   5.144  0.00  0.00    -0.021 A 
ATOM      3  C   UNL     1       1.829 -11.097   4.028  0.00  0.00    +0.008 A 
ATOM      4  C   UNL     1       2.558 -12.236   3.834  0.00  0.00    +0.030 A 
ATOM      5  C   UNL     1       3.531 -12.606   4.766  0.00  0.00    +0.089 A 
ATOM      6  C   UNL     1       3.749 -11.800   5.896  0.00  0.00    +0.066 A 
ATOM      7  C   UNL     1       3.002 -10.644   6.074  0.00  0.00    +0.033 A 
ATOM      8  N   UNL     1       4.753 -12.416   6.616  0.00  0.00    -0.344 N 
ATOM      9  C   UNL     1       5.109 -13.539   5.935  0.00  0.00    +0.197 A 
ATOM     10  N   UNL     1       4.395 -13.650   4.853  0.00  0.00    -0.236 NA
ATOM     11  H   UNL     1       5.134 -12.106   7.452  0.00  0.00    +0.167 HD
ENDBRANCH   1   2
BRANCH   1  12
ATOM     12  C   UNL     1      -0.120  -9.409   5.906  0.00  0.00    -0.023 A 
ATOM     13  C   UNL     1      -1.113  -9.893   5.075  0.00  0.00    +0.006 A 
ATOM     14  C   UNL     1      -2.350 -10.225   5.596  0.00  0.00    +0.000 A 
ATOM     15  C   UNL     1      -2.593 -10.073   6.949  0.00  0.00    +0.000 A 
ATOM     16  C   UNL     1      -1.599  -9.591   7.780  0.00  0.00    +0.000 A 
ATOM     17  C   UNL     1      -0.361  -9.263   7.259  0.00  0.00    +0.006 A 
ENDBRANCH   1  12
BRANCH   1  20
ATOM     18  C   UNL     1       0.820  -7.049   4.005  0.00  0.00    +0.214 C 
ATOM     19  O   UNL     1       0.760  -6.411   5.034  0.00  0.00    -0.276 OA
ATOM     20  N   UNL     1       1.050  -8.377   4.048  0.00  0.00    -0.304 N 
ATOM     21  H   UNL     1       1.098  -8.887   3.225  0.00  0.00    +0.150 HD
BRANCH  18  22
ATOM     22  C   UNL     1       0.637  -6.359   2.678  0.00  0.00    +0.100 C 
BRANCH  22  23
ATOM     23  C   UNL     1       0.392  -4.866   2.909  0.00  0.00    +0.066 C 
BRANCH  23  26
ATOM     24  C   UNL     1       0.762  -2.018   1.233  0.00  0.00    +0.103 C 
ATOM     25  N   UNL     1      -0.148  -2.755   1.767  0.00  0.00    -0.346 N 
ATOM     26  C   UNL     1       0.206  -4.165   1.562  0.00  0.00    +0.243 C 
ATOM     27  O   UNL     1       1.446  -4.141   0.838  0.00  0.00    -0.248 OA
ATOM     28  N   UNL     1       1.745  -2.767   0.655  0.00  0.00    -0.252 N 
ATOM     29  H   UNL     1       2.524  -2.416   0.194  0.00  0.00    +0.195 HD
ATOM     30  H   UNL     1      -0.938  -2.432   2.228  0.00  0.00    +0.163 HD
BRANCH  24  31
ATOM     31  C   UNL     1       0.742  -0.511   1.242  0.00  0.00    +0.073 C 
BRANCH  31  33
ATOM     32  C   UNL     1      -0.019   1.526   0.010  0.00  0.00    +0.004 C 
ATOM     33  C   UNL     1       0.002  -0.004   0.002  0.00  0.00    +0.004 C 
ENDBRANCH  31  33
ENDBRANCH  24  31
ENDBRANCH  23  26
ENDBRANCH  22  23
ENDBRANCH  18  22
ENDBRANCH   1  20
TORSDOF 8
