REMARK  Name = ZINC14475763
REMARK  5 active torsions:
REMARK  status: ('A' for Active; 'I' for Inactive)
REMARK    1  A    between atoms: C_1  and  C_2
REMARK    2  A    between atoms: C_5  and  C_28
REMARK    3  A    between atoms: C_15  and  C_18
REMARK    4  A    between atoms: C_20  and  N_25
REMARK    5  A    between atoms: C_23  and  O_24
REMARK                            x       y       z     vdW  Elec       q    Type
REMARK                         _______ _______ _______ _____ _____    ______ ____
ROOT
ATOM      1  C   UNL     1      -0.018   1.503   0.010  0.00  0.00    +0.044 C 
ATOM      2  C   UNL     1       0.002  -0.004   0.002  0.00  0.00    -0.045 A 
ATOM      3  C   UNL     1       0.006  -0.683  -1.200  0.00  0.00    +0.004 A 
ATOM      4  C   UNL     1       0.023  -2.066  -1.217  0.00  0.00    +0.005 A 
ATOM      5  C   UNL     1       0.031  -2.766  -0.027  0.00  0.00    -0.029 A 
ATOM      6  C   UNL     1       0.024  -2.083   1.186  0.00  0.00    +0.035 A 
ATOM      7  C   UNL     1       0.023  -0.699   1.202  0.00  0.00    -0.016 A 
ATOM      8  C   UNL     1       0.056   0.088   2.482  0.00  0.00    +0.049 C 
ATOM      9  C   UNL     1       1.177   1.110   2.370  0.00  0.00    -0.023 C 
ATOM     10  C   UNL     1       2.232   0.711   3.032  0.00  0.00    -0.030 C 
ATOM     11  C   UNL     1       1.979  -0.626   3.697  0.00  0.00    +0.033 C 
ATOM     12  C   UNL     1       0.424  -0.758   3.698  0.00  0.00    +0.029 C 
ATOM     13  C   UNL     1      -0.045  -2.182   3.675  0.00  0.00    +0.108 C 
ATOM     14  N   UNL     1       0.016  -2.811   2.370  0.00  0.00    -0.336 N 
ATOM     15  C   UNL     1       0.047  -4.273  -0.042  0.00  0.00    +0.045 C 
ATOM     16  H   UNL     1       0.041  -3.779   2.321  0.00  0.00    +0.147 HD
ENDROOT
BRANCH  13  17
ATOM     17  C   UNL     1       0.820  -2.983   4.614  0.00  0.00    +0.017 A 
ATOM     18  C   UNL     1       1.918  -3.666   4.128  0.00  0.00    +0.041 A 
ATOM     19  C   UNL     1       2.712  -4.402   4.988  0.00  0.00    +0.127 A 
ATOM     20  C   UNL     1       2.409  -4.456   6.337  0.00  0.00    +0.036 A 
ATOM     21  C   UNL     1       1.312  -3.776   6.827  0.00  0.00    +0.048 A 
ATOM     22  C   UNL     1       0.517  -3.032   5.966  0.00  0.00    +0.122 A 
BRANCH  19  23
ATOM     23  N   UNL     1       3.888  -5.133   4.465  0.00  0.00    +0.056 N 
ATOM     24  O   UNL     1       4.154  -5.086   3.287  0.00  0.00    -0.126 OA
ATOM     25  O   UNL     1       4.583  -5.777   5.217  0.00  0.00    -0.126 OA
ENDBRANCH  19  23
BRANCH  22  26
ATOM     26  O   UNL     1      -0.560  -2.357   6.447  0.00  0.00    -0.506 OA
ATOM     27  H   UNL     1      -1.379  -2.872   6.447  0.00  0.00    +0.292 HD
ENDBRANCH  22  26
ENDBRANCH  13  17
TORSDOF 3
