REMARK  Name = ZINC16790596
REMARK  9 active torsions:
REMARK  status: ('A' for Active; 'I' for Inactive)
REMARK    1  A    between atoms: C_1  and  C_2
REMARK    2  A    between atoms: C_5  and  C_8
REMARK    3  A    between atoms: N_10  and  N_11
REMARK    4  A    between atoms: C_15  and  C_16
REMARK    5  A    between atoms: C_19  and  O_22
REMARK    6  A    between atoms: O_22  and  C_23
REMARK    7  A    between atoms: C_23  and  C_25
REMARK    8  A    between atoms: C_29  and  O_31
REMARK    9  A    between atoms: O_31  and  C_32
REMARK                            x       y       z     vdW  Elec       q    Type
REMARK                         _______ _______ _______ _____ _____    ______ ____
ROOT
ATOM      1  N   UNL     1      -0.043  12.606  -1.176  0.00  0.00    -0.169 N 
ATOM      2  C   UNL     1       0.938  11.773  -0.872  0.00  0.00    +0.275 C 
ATOM      3  O   UNL     1       0.856  10.579  -1.095  0.00  0.00    -0.267 OA
ATOM      4  C   UNL     1       2.138  12.363  -0.245  0.00  0.00    +0.079 C 
ATOM      5  C   UNL     1       3.281  11.762   0.172  0.00  0.00    +0.028 C 
ATOM      6  S   UNL     1       1.672  14.088  -0.192  0.00  0.00    -0.059 S 
ATOM      7  C   UNL     1       0.056  13.929  -0.933  0.00  0.00    +0.138 C 
ATOM      8  S   UNL     1      -1.091  15.157  -1.257  0.00  0.00    -0.026 S 
ENDROOT
BRANCH   5   9
ATOM      9  C   UNL     1       3.376  10.297   0.191  0.00  0.00    -0.024 A 
ATOM     10  C   UNL     1       4.582   9.667  -0.138  0.00  0.00    +0.011 A 
ATOM     11  C   UNL     1       4.666   8.293  -0.118  0.00  0.00    +0.047 A 
ATOM     12  C   UNL     1       3.555   7.531   0.227  0.00  0.00    +0.132 A 
ATOM     13  C   UNL     1       2.354   8.152   0.549  0.00  0.00    +0.047 A 
ATOM     14  C   UNL     1       2.260   9.525   0.537  0.00  0.00    +0.011 A 
BRANCH  12  15
ATOM     15  O   UNL     1       3.643   6.176   0.244  0.00  0.00    -0.422 OA
BRANCH  15  16
ATOM     16  C   UNL     1       4.264   5.617   1.301  0.00  0.00    +0.345 C 
ATOM     17  O   UNL     1       4.792   6.321   2.138  0.00  0.00    -0.245 OA
BRANCH  16  18
ATOM     18  C   UNL     1       4.301   4.147   1.442  0.00  0.00    +0.063 A 
ATOM     19  C   UNL     1       3.694   3.335   0.482  0.00  0.00    +0.015 A 
ATOM     20  C   UNL     1       3.731   1.962   0.618  0.00  0.00    +0.004 A 
ATOM     21  C   UNL     1       4.373   1.387   1.700  0.00  0.00    +0.045 A 
ATOM     22  C   UNL     1       4.975   2.186   2.662  0.00  0.00    +0.121 A 
ATOM     23  C   UNL     1       4.944   3.565   2.536  0.00  0.00    +0.060 A 
BRANCH  22  24
ATOM     24  O   UNL     1       5.600   1.615   3.725  0.00  0.00    -0.495 OA
ATOM     25  C   UNL     1       5.593   0.188   3.792  0.00  0.00    +0.277 C 
ENDBRANCH  22  24
ENDBRANCH  16  18
ENDBRANCH  15  16
ENDBRANCH  12  15
ENDBRANCH   5   9
BRANCH   1  28
ATOM     26  C   UNL     1      -1.432  12.295  -3.084  0.00  0.00    +0.261 C 
ATOM     27  O   UNL     1      -0.622  12.904  -3.756  0.00  0.00    -0.269 OA
ATOM     28  N   UNL     1      -1.208  12.104  -1.769  0.00  0.00    -0.222 N 
ATOM     29  H   UNL     1      -1.855  11.618  -1.233  0.00  0.00    +0.174 HD
BRANCH  26  34
ATOM     30  C   UNL     1      -6.220  10.232  -5.520  0.00  0.00    +0.044 C 
ATOM     31  C   UNL     1      -4.966  10.772  -4.883  0.00  0.00    -0.050 A 
ATOM     32  C   UNL     1      -4.046  11.464  -5.650  0.00  0.00    +0.004 A 
ATOM     33  C   UNL     1      -2.896  11.962  -5.072  0.00  0.00    +0.013 A 
ATOM     34  C   UNL     1      -2.662  11.765  -3.710  0.00  0.00    +0.038 A 
ATOM     35  C   UNL     1      -3.591  11.061  -2.943  0.00  0.00    +0.013 A 
ATOM     36  C   UNL     1      -4.740  10.574  -3.532  0.00  0.00    +0.004 A 
ENDBRANCH  26  34
ENDBRANCH   1  28
TORSDOF 7
