REMARK  Name = ZINC65228036
REMARK  6 active torsions:
REMARK  status: ('A' for Active; 'I' for Inactive)
REMARK    1  A    between atoms: C_1  and  C_2
REMARK    2  A    between atoms: C_2  and  C_4
REMARK    3  A    between atoms: C_2  and  N_11
REMARK    4  A    between atoms: C_12  and  C_14
REMARK    5  A    between atoms: C_22  and  C_27
REMARK    6  A    between atoms: C_29  and  C_32
REMARK                            x       y       z     vdW  Elec       q    Type
REMARK                         _______ _______ _______ _____ _____    ______ ____
ROOT
ATOM      1  C   UNL     1       2.783  -1.131   2.404  0.00  0.00    +0.092 C 
ATOM      2  C   UNL     1       2.303  -2.539   2.763  0.00  0.00    +0.016 C 
ATOM      3  C   UNL     1       3.019  -3.017   4.028  0.00  0.00    +0.020 C 
ATOM      4  C   UNL     1       4.528  -3.073   3.765  0.00  0.00    +0.106 C 
ATOM      5  N   UNL     1       4.972  -1.759   3.280  0.00  0.00    -0.315 N 
ATOM      6  C   UNL     1       4.288  -1.164   2.124  0.00  0.00    +0.119 C 
ATOM      7  C   UNL     1       6.016  -1.092   3.903  0.00  0.00    +0.110 A 
ATOM      8  C   UNL     1       7.340  -1.362   3.525  0.00  0.00    +0.060 A 
ATOM      9  C   UNL     1       8.375  -0.680   4.164  0.00  0.00    +0.016 A 
ATOM     10  C   UNL     1       8.050   0.238   5.149  0.00  0.00    +0.018 A 
ATOM     11  C   UNL     1       6.722   0.451   5.468  0.00  0.00    +0.084 A 
ATOM     12  N   UNL     1       5.758  -0.201   4.847  0.00  0.00    -0.349 N 
ATOM     13  H   UNL     1       4.836  -0.026   5.091  0.00  0.00    +0.167 HD
ENDROOT
BRANCH   8  14
ATOM     14  C   UNL     1       7.633  -2.356   2.464  0.00  0.00    +0.205 A 
ATOM     15  N   UNL     1       8.857  -2.775   2.098  0.00  0.00    -0.191 NA
ATOM     16  C   UNL     1       8.761  -3.650   1.138  0.00  0.00    +0.231 A 
ATOM     17  O   UNL     1       7.465  -3.825   0.851  0.00  0.00    -0.337 OA
ATOM     18  N   UNL     1       6.741  -2.976   1.730  0.00  0.00    -0.056 NA
BRANCH  16  19
ATOM     19  C   UNL     1       9.914  -4.348   0.464  0.00  0.00    +0.078 C 
ATOM     20  C   UNL     1       9.710  -4.555  -1.047  0.00  0.00    +0.013 C 
ATOM     21  C   UNL     1      10.346  -5.943  -0.862  0.00  0.00    +0.001 C 
ATOM     22  C   UNL     1       9.872  -5.879   0.599  0.00  0.00    +0.013 C 
ENDBRANCH  16  19
ENDBRANCH   8  14
BRANCH   1  24
ATOM     23  N   UNL     1       0.710  -0.539   1.192  0.00  0.00    -0.308 N 
ATOM     24  C   UNL     1       2.053  -0.648   1.177  0.00  0.00    +0.218 C 
ATOM     25  O   UNL     1       2.675  -0.357   0.177  0.00  0.00    -0.275 OA
ATOM     26  H   UNL     1       0.213  -0.771   1.992  0.00  0.00    +0.149 HD
BRANCH  23  28
ATOM     27  C   UNL     1      -0.022   1.461  -0.012  0.00  0.00    +0.033 C 
ATOM     28  C   UNL     1       0.001  -0.069  -0.001  0.00  0.00    +0.100 C 
BRANCH  28  29
ATOM     29  C   UNL     1      -1.413  -0.592   0.017  0.00  0.00    -0.027 A 
ATOM     30  C   UNL     1      -2.123  -0.623   1.202  0.00  0.00    +0.008 A 
ATOM     31  C   UNL     1      -3.419  -1.102   1.220  0.00  0.00    +0.038 A 
ATOM     32  C   UNL     1      -4.006  -1.551   0.049  0.00  0.00    +0.123 A 
ATOM     33  C   UNL     1      -3.294  -1.520  -1.138  0.00  0.00    +0.038 A 
ATOM     34  C   UNL     1      -2.000  -1.035  -1.154  0.00  0.00    +0.008 A 
ATOM     35  F   UNL     1      -5.273  -2.020   0.065  0.00  0.00    -0.205 F 
ENDBRANCH  28  29
ENDBRANCH  23  28
ENDBRANCH   1  24
TORSDOF 5
