REMARK  Name = ZINC16917845
REMARK  6 active torsions:
REMARK  status: ('A' for Active; 'I' for Inactive)
REMARK    1  A    between atoms: C_1  and  C_2
REMARK    2  A    between atoms: C_6  and  N_8
REMARK    3  A    between atoms: C_18  and  S_19
REMARK    4  A    between atoms: S_19  and  C_20
REMARK    5  A    between atoms: C_20  and  C_22
REMARK    6  A    between atoms: C_20  and  C_23
REMARK                            x       y       z     vdW  Elec       q    Type
REMARK                         _______ _______ _______ _____ _____    ______ ____
ROOT
ATOM      1  N   UNL     1       2.291   3.931   0.001  0.00  0.00    -0.239 N 
ATOM      2  C   UNL     1       3.485   3.293  -0.013  0.00  0.00    +0.268 A 
ATOM      3  O   UNL     1       3.550   2.077  -0.020  0.00  0.00    -0.267 OA
ATOM      4  C   UNL     1       4.698   4.120  -0.021  0.00  0.00    +0.065 A 
ATOM      5  C   UNL     1       5.973   3.557  -0.036  0.00  0.00    +0.015 A 
ATOM      6  C   UNL     1       7.070   4.374  -0.043  0.00  0.00    +0.001 A 
ATOM      7  C   UNL     1       6.927   5.756  -0.034  0.00  0.00    +0.002 A 
ATOM      8  C   UNL     1       5.689   6.334  -0.018  0.00  0.00    +0.028 A 
ATOM      9  C   UNL     1       4.548   5.526  -0.012  0.00  0.00    +0.079 A 
ATOM     10  N   UNL     1       3.303   6.057   0.003  0.00  0.00    -0.223 NA
ATOM     11  C   UNL     1       2.235   5.298   0.004  0.00  0.00    +0.179 A 
ENDROOT
BRANCH   1  17
ATOM     12  C   UNL     1      -1.163   1.805   2.552  0.00  0.00    +0.065 C 
ATOM     13  C   UNL     1      -0.567   2.156   1.214  0.00  0.00    +0.041 A 
ATOM     14  C   UNL     1      -1.200   1.746   0.056  0.00  0.00    +0.023 A 
ATOM     15  C   UNL     1      -0.643   2.068  -1.173  0.00  0.00    +0.005 A 
ATOM     16  C   UNL     1       0.530   2.804  -1.195  0.00  0.00    +0.047 A 
ATOM     17  C   UNL     1       1.109   3.188   0.009  0.00  0.00    +0.142 A 
ATOM     18  N   UNL     1       0.550   2.857   1.162  0.00  0.00    -0.234 NA
ENDBRANCH   1  17
BRANCH  11  19
ATOM     19  S   UNL     1       0.653   6.074   0.015  0.00  0.00    -0.075 S 
BRANCH  19  20
ATOM     20  C   UNL     1       1.155   7.812   0.014  0.00  0.00    +0.137 C 
ATOM     21  C   UNL     1       1.874   8.135  -1.297  0.00  0.00    +0.029 C 
BRANCH  20  22
ATOM     22  C   UNL     1      -0.064   8.688   0.147  0.00  0.00    +0.233 C 
ATOM     23  O   UNL     1      -1.161   8.246  -0.125  0.00  0.00    -0.274 OA
ATOM     24  N   UNL     1       0.063   9.961   0.570  0.00  0.00    -0.260 N 
ATOM     25  C   UNL     1       1.381  10.521   0.907  0.00  0.00    +0.209 C 
ATOM     26  C   UNL     1       1.258  11.346   2.162  0.00  0.00    +0.235 C 
ATOM     27  O   UNL     1       2.213  11.458   2.901  0.00  0.00    -0.274 OA
ATOM     28  N   UNL     1       0.101  11.961   2.472  0.00  0.00    -0.283 N 
ATOM     29  C   UNL     1      -1.030  11.808   1.663  0.00  0.00    +0.055 A 
ATOM     30  C   UNL     1      -1.057  10.798   0.696  0.00  0.00    +0.058 A 
ATOM     31  C   UNL     1      -2.167  10.632  -0.111  0.00  0.00    +0.025 A 
ATOM     32  C   UNL     1      -3.254  11.477   0.035  0.00  0.00    +0.002 A 
ATOM     33  C   UNL     1      -3.231  12.482   0.983  0.00  0.00    +0.002 A 
ATOM     34  C   UNL     1      -2.123  12.647   1.806  0.00  0.00    +0.025 A 
ATOM     35  H   UNL     1       0.051  12.516   3.266  0.00  0.00    +0.155 HD
ENDBRANCH  20  22
ENDBRANCH  19  20
ENDBRANCH  11  19
TORSDOF 4
