REMARK  Name = ZINC16831387
REMARK  7 active torsions:
REMARK  status: ('A' for Active; 'I' for Inactive)
REMARK    1  A    between atoms: C_4  and  C_7
REMARK    2  A    between atoms: C_7  and  C_9
REMARK    3  A    between atoms: C_7  and  N_16
REMARK    4  A    between atoms: C_9  and  N_10
REMARK    5  A    between atoms: C_17  and  C_19
REMARK    6  A    between atoms: C_20  and  C_21
REMARK    7  A    between atoms: C_23  and  N_31
REMARK                            x       y       z     vdW  Elec       q    Type
REMARK                         _______ _______ _______ _____ _____    ______ ____
ROOT
ATOM      1  N   UNL     1      -1.311   3.407   0.027  0.00  0.00    -0.304 N 
ATOM      2  C   UNL     1      -1.292   2.060   0.019  0.00  0.00    +0.237 C 
ATOM      3  O   UNL     1      -2.338   1.437   0.021  0.00  0.00    -0.271 OA
ATOM      4  H   UNL     1      -0.366   3.970   0.025  0.00  0.00    +0.150 HD
ENDROOT
BRANCH   2   5
ATOM      5  C   UNL     1      -0.016   1.346   0.009  0.00  0.00    +0.068 C 
ATOM      6  C   UNL     1       0.002  -0.004   0.002  0.00  0.00    +0.016 C 
BRANCH   6   7
ATOM      7  C   UNL     1       1.284  -0.721  -0.014  0.00  0.00    +0.019 A 
ATOM      8  C   UNL     1       2.489  -0.010  -0.028  0.00  0.00    +0.044 A 
ATOM      9  C   UNL     1       3.687  -0.690  -0.039  0.00  0.00    +0.127 A 
ATOM     10  C   UNL     1       3.704  -2.075  -0.050  0.00  0.00    +0.042 A 
ATOM     11  C   UNL     1       2.522  -2.792  -0.042  0.00  0.00    +0.023 A 
ATOM     12  C   UNL     1       1.308  -2.126  -0.022  0.00  0.00    +0.136 A 
ATOM     13  O   UNL     1       0.141  -2.817  -0.004  0.00  0.00    -0.465 OA
ATOM     14  C   UNL     1       0.200  -4.197  -0.375  0.00  0.00    +0.395 C 
ATOM     15  O   UNL     1       1.287  -4.813   0.326  0.00  0.00    -0.339 OA
ATOM     16  C   UNL     1       2.565  -4.299  -0.061  0.00  0.00    +0.202 C 
BRANCH   9  17
ATOM     17  N   UNL     1       4.961   0.063  -0.047  0.00  0.00    +0.056 N 
ATOM     18  O   UNL     1       6.022  -0.535  -0.063  0.00  0.00    -0.126 OA
ATOM     19  O   UNL     1       4.949   1.281  -0.038  0.00  0.00    -0.126 OA
ENDBRANCH   9  17
ENDBRANCH   6   7
ENDBRANCH   2   5
BRANCH   1  20
ATOM     20  C   UNL     1      -2.589   4.122   0.037  0.00  0.00    +0.117 C 
BRANCH  20  24
ATOM     21  C   UNL     1      -4.022   4.533  -3.966  0.00  0.00    +0.000 A 
ATOM     22  C   UNL     1      -4.905   4.241  -2.943  0.00  0.00    +0.000 A 
ATOM     23  C   UNL     1      -4.441   4.108  -1.648  0.00  0.00    +0.005 A 
ATOM     24  C   UNL     1      -3.095   4.267  -1.375  0.00  0.00    -0.026 A 
ATOM     25  C   UNL     1      -2.214   4.565  -2.398  0.00  0.00    +0.005 A 
ATOM     26  C   UNL     1      -2.677   4.694  -3.694  0.00  0.00    +0.000 A 
ENDBRANCH  20  24
BRANCH  20  27
ATOM     27  C   UNL     1      -2.393   5.509   0.653  0.00  0.00    +0.111 C 
BRANCH  27  28
ATOM     28  N   UNL     1      -1.788   5.372   1.985  0.00  0.00    -0.296 NA
ATOM     29  C   UNL     1      -2.712   4.710   2.917  0.00  0.00    +0.112 C 
ATOM     30  C   UNL     1      -2.021   4.534   4.272  0.00  0.00    +0.175 C 
ATOM     31  O   UNL     1      -1.591   5.811   4.752  0.00  0.00    -0.377 OA
ATOM     32  C   UNL     1      -0.690   6.484   3.868  0.00  0.00    +0.175 C 
ATOM     33  C   UNL     1      -1.367   6.679   2.509  0.00  0.00    +0.112 C 
ENDBRANCH  27  28
ENDBRANCH  20  27
ENDBRANCH   1  20
TORSDOF 7
