REMARK  Name = ZINC36316532
REMARK  16 active torsions:
REMARK  status: ('A' for Active; 'I' for Inactive)
REMARK    1  A    between atoms: C_1  and  C_2
REMARK    2  A    between atoms: C_2  and  C_3
REMARK    3  A    between atoms: C_4  and  C_22
REMARK    4  A    between atoms: C_5  and  O_14
REMARK    5  A    between atoms: N_6  and  C_8
REMARK    6  A    between atoms: O_14  and  C_15
REMARK    7  A    between atoms: C_22  and  N_23
REMARK    8  A    between atoms: N_23  and  C_24
REMARK    9  A    between atoms: N_23  and  C_28
REMARK   10  A    between atoms: C_24  and  C_25
REMARK   11  A    between atoms: C_28  and  C_29
REMARK   12  A    between atoms: C_29  and  C_31
REMARK   13  A    between atoms: C_29  and  O_36
REMARK   14  A    between atoms: C_31  and  O_32
REMARK   15  A    between atoms: O_32  and  C_33
REMARK   16  A    between atoms: C_33  and  C_34
REMARK                            x       y       z     vdW  Elec       q    Type
REMARK                         _______ _______ _______ _____ _____    ______ ____
ROOT
ATOM      1  C   UNL     1      -2.189  -0.462  -0.586  0.00  0.00    +0.068 A 
ATOM      2  C   UNL     1      -2.309  -0.681   0.790  0.00  0.00    +0.021 A 
ATOM      3  C   UNL     1      -3.447  -1.395   1.001  0.00  0.00    +0.225 A 
ATOM      4  N   UNL     1      -4.022  -1.616  -0.212  0.00  0.00    -0.200 N 
ATOM      5  N   UNL     1      -3.213  -1.015  -1.184  0.00  0.00    -0.168 NA
ENDROOT
BRANCH   4   6
ATOM      6  C   UNL     1      -5.213  -2.317  -0.446  0.00  0.00    +0.069 A 
ATOM      7  C   UNL     1      -5.454  -3.517   0.209  0.00  0.00    +0.028 A 
ATOM      8  C   UNL     1      -6.629  -4.205  -0.024  0.00  0.00    +0.002 A 
ATOM      9  C   UNL     1      -7.564  -3.700  -0.909  0.00  0.00    +0.000 A 
ATOM     10  C   UNL     1      -7.326  -2.505  -1.563  0.00  0.00    +0.002 A 
ATOM     11  C   UNL     1      -6.156  -1.809  -1.329  0.00  0.00    +0.028 A 
ENDBRANCH   4   6
BRANCH   1  13
ATOM     12  C   UNL     1      -1.428   1.776  -1.333  0.00  0.00    +0.010 C 
ATOM     13  C   UNL     1      -1.073   0.290  -1.263  0.00  0.00    +0.054 C 
ENDBRANCH   1  13
BRANCH   3  14
ATOM     14  O   UNL     1      -3.922  -1.812   2.202  0.00  0.00    -0.438 OA
BRANCH  14  15
ATOM     15  C   UNL     1      -3.441  -2.978   2.709  0.00  0.00    +0.131 A 
ATOM     16  C   UNL     1      -2.413  -3.646   2.059  0.00  0.00    +0.049 A 
ATOM     17  C   UNL     1      -1.924  -4.830   2.576  0.00  0.00    +0.042 A 
ATOM     18  C   UNL     1      -2.461  -5.352   3.741  0.00  0.00    +0.124 A 
ATOM     19  C   UNL     1      -3.487  -4.687   4.390  0.00  0.00    +0.042 A 
ATOM     20  C   UNL     1      -3.974  -3.499   3.879  0.00  0.00    +0.049 A 
ATOM     21  F   UNL     1      -1.983  -6.511   4.244  0.00  0.00    -0.205 F 
ENDBRANCH  14  15
ENDBRANCH   3  14
BRANCH   2  22
ATOM     22  C   UNL     1      -1.349  -0.209   1.851  0.00  0.00    -0.036 C 
BRANCH  22  23
ATOM     23  N   UNL     1      -1.706   1.154   2.265  0.00  0.00    +0.384 N 
ATOM     24  H   UNL     1      -1.739   1.754   1.454  0.00  0.00    -0.081 HD
BRANCH  23  25
ATOM     25  C   UNL     1      -0.700   1.660   3.207  0.00  0.00    -0.075 C 
BRANCH  25  26
ATOM     26  C   UNL     1       0.663   1.722   2.514  0.00  0.00    -0.028 C 
ATOM     27  C   UNL     1       1.774   0.821   3.057  0.00  0.00    +0.002 C 
ATOM     28  C   UNL     1       1.827   2.331   3.297  0.00  0.00    +0.002 C 
ENDBRANCH  25  26
ENDBRANCH  23  25
BRANCH  23  29
ATOM     29  C   UNL     1      -3.023   1.138   2.916  0.00  0.00    -0.044 C 
BRANCH  29  30
ATOM     30  C   UNL     1      -3.481   2.575   3.174  0.00  0.00    +0.124 C 
BRANCH  30  31
ATOM     31  O   UNL     1      -2.646   3.169   4.170  0.00  0.00    -0.391 OA
ATOM     32  H   UNL     1      -2.659   2.708   5.021  0.00  0.00    +0.210 HD
ENDBRANCH  30  31
BRANCH  30  33
ATOM     33  C   UNL     1      -4.931   2.568   3.662  0.00  0.00    +0.189 C 
BRANCH  33  34
ATOM     34  O   UNL     1      -5.397   3.913   3.792  0.00  0.00    -0.373 OA
BRANCH  34  35
ATOM     35  C   UNL     1      -6.748   4.019   4.245  0.00  0.00    +0.186 C 
BRANCH  35  36
ATOM     36  C   UNL     1      -7.131   5.473   4.345  0.00  0.00    -0.007 C 
ATOM     37  C   UNL     1      -8.286   5.880   3.878  0.00  0.00    +0.006 C 
ENDBRANCH  35  36
ENDBRANCH  34  35
ENDBRANCH  33  34
ENDBRANCH  30  33
ENDBRANCH  29  30
ENDBRANCH  23  29
ENDBRANCH  22  23
ENDBRANCH   2  22
TORSDOF 15
