REMARK  Name = ZINC12587972
REMARK  6 active torsions:
REMARK  status: ('A' for Active; 'I' for Inactive)
REMARK    1  A    between atoms: C_4  and  C_7
REMARK    2  A    between atoms: C_13  and  O_22
REMARK    3  A    between atoms: C_17  and  C_18
REMARK    4  A    between atoms: O_22  and  C_23
REMARK    5  A    between atoms: C_23  and  C_24
REMARK    6  A    between atoms: N_26  and  C_27
REMARK                            x       y       z     vdW  Elec       q    Type
REMARK                         _______ _______ _______ _____ _____    ______ ____
ROOT
ATOM      1  C   UNL     1      -4.297   9.264   6.774  0.00  0.00    +0.076 A 
ATOM      2  C   UNL     1      -4.503   7.808   6.695  0.00  0.00    +0.201 A 
ATOM      3  O   UNL     1      -5.399   7.255   7.309  0.00  0.00    -0.286 OA
ATOM      4  C   UNL     1      -3.573   7.052   5.836  0.00  0.00    +0.065 A 
ATOM      5  C   UNL     1      -3.683   5.668   5.694  0.00  0.00    +0.019 A 
ATOM      6  C   UNL     1      -2.809   4.998   4.886  0.00  0.00    +0.046 A 
ATOM      7  C   UNL     1      -1.802   5.689   4.214  0.00  0.00    +0.125 A 
ATOM      8  C   UNL     1      -1.681   7.062   4.345  0.00  0.00    +0.092 A 
ATOM      9  C   UNL     1      -2.565   7.759   5.158  0.00  0.00    +0.143 A 
ATOM     10  O   UNL     1      -2.460   9.095   5.298  0.00  0.00    -0.450 OA
ATOM     11  C   UNL     1      -3.280   9.819   6.064  0.00  0.00    +0.219 A 
ENDROOT
BRANCH   1  15
ATOM     12  C   UNL     1      -6.836  11.685   9.176  0.00  0.00    +0.000 A 
ATOM     13  C   UNL     1      -5.941  10.818   9.776  0.00  0.00    +0.001 A 
ATOM     14  C   UNL     1      -5.114  10.030   9.001  0.00  0.00    +0.009 A 
ATOM     15  C   UNL     1      -5.183  10.109   7.612  0.00  0.00    -0.011 A 
ATOM     16  C   UNL     1      -6.082  10.988   7.012  0.00  0.00    +0.009 A 
ATOM     17  C   UNL     1      -6.908  11.768   7.797  0.00  0.00    +0.001 A 
ENDBRANCH   1  15
BRANCH  11  18
ATOM     18  C   UNL     1      -3.069  11.309   6.145  0.00  0.00    +0.451 C 
ATOM     19  F   UNL     1      -2.996  11.697   7.487  0.00  0.00    -0.163 F 
ATOM     20  F   UNL     1      -1.876  11.646   5.497  0.00  0.00    -0.163 F 
ATOM     21  F   UNL     1      -4.138  11.966   5.527  0.00  0.00    -0.163 F 
ENDBRANCH  11  18
BRANCH   7  22
ATOM     22  O   UNL     1      -0.937   5.011   3.418  0.00  0.00    -0.483 OA
BRANCH  22  23
ATOM     23  C   UNL     1      -1.115   3.596   3.324  0.00  0.00    +0.324 C 
BRANCH  23  24
ATOM     24  C   UNL     1      -0.071   3.018   2.404  0.00  0.00    +0.251 C 
ATOM     25  O   UNL     1       0.746   3.746   1.880  0.00  0.00    -0.272 OA
ATOM     26  N   UNL     1      -0.044   1.692   2.163  0.00  0.00    -0.307 N 
ATOM     27  H   UNL     1      -0.697   1.110   2.581  0.00  0.00    +0.149 HD
BRANCH  26  28
ATOM     28  C   UNL     1       0.971   1.131   1.268  0.00  0.00    +0.035 C 
ATOM     29  C   UNL     1       2.364   1.433   1.824  0.00  0.00    +0.029 C 
ATOM     30  C   UNL     1       3.425   0.847   0.890  0.00  0.00    -0.008 C 
ATOM     31  C   UNL     1       3.234  -0.668   0.789  0.00  0.00    +0.007 C 
ATOM     32  C   UNL     1       1.841  -0.971   0.233  0.00  0.00    -0.008 C 
ATOM     33  C   UNL     1       0.780  -0.384   1.167  0.00  0.00    +0.029 C 
ATOM     34  C   UNL     1       1.699  -0.345  -1.156  0.00  0.00    +0.007 C 
ATOM     35  C   UNL     1       1.890   1.170  -1.055  0.00  0.00    -0.008 C 
ATOM     36  C   UNL     1       3.283   1.472  -0.499  0.00  0.00    +0.007 C 
ATOM     37  C   UNL     1       0.829   1.756  -0.121  0.00  0.00    +0.029 C 
ENDBRANCH  26  28
ENDBRANCH  23  24
ENDBRANCH  22  23
ENDBRANCH   7  22
TORSDOF 6
