REMARK  Name = ZINC51147077
REMARK  5 active torsions:
REMARK  status: ('A' for Active; 'I' for Inactive)
REMARK    1  A    between atoms: C_1  and  C_2
REMARK    2  A    between atoms: N_11  and  C_12
REMARK    3  A    between atoms: C_12  and  C_13
REMARK    4  A    between atoms: C_14  and  N_18
REMARK    5  A    between atoms: N_18  and  N_19
REMARK                            x       y       z     vdW  Elec       q    Type
REMARK                         _______ _______ _______ _____ _____    ______ ____
ROOT
ATOM      1  C   UNL     1       2.092  -0.290   1.308  0.00  0.00    +0.165 C 
ENDROOT
BRANCH   1  11
ATOM      2  C   UNL     1       0.192   1.743  -0.152  0.00  0.00    +0.028 C 
ATOM      3  C   UNL     1       0.145   0.225  -0.335  0.00  0.00    +0.075 C 
ATOM      4  C   UNL     1      -1.312  -0.258  -0.411  0.00  0.00    +0.059 C 
ATOM      5  C   UNL     1      -1.463  -1.198   0.764  0.00  0.00    -0.025 A 
ATOM      6  C   UNL     1      -2.548  -1.931   1.205  0.00  0.00    +0.005 A 
ATOM      7  C   UNL     1      -2.436  -2.731   2.327  0.00  0.00    +0.000 A 
ATOM      8  C   UNL     1      -1.234  -2.796   3.007  0.00  0.00    +0.002 A 
ATOM      9  C   UNL     1      -0.149  -2.067   2.572  0.00  0.00    +0.023 A 
ATOM     10  C   UNL     1      -0.254  -1.256   1.439  0.00  0.00    +0.034 A 
ATOM     11  N   UNL     1       0.713  -0.446   0.837  0.00  0.00    -0.321 N 
ENDBRANCH   1  11
BRANCH   1  12
ATOM     12  C   UNL     1       2.987  -1.252   0.569  0.00  0.00    +0.111 A 
ATOM     13  C   UNL     1       3.333  -2.463   1.096  0.00  0.00    +0.124 A 
ATOM     14  S   UNL     1       4.312  -3.101  -0.112  0.00  0.00    +0.053 S 
ATOM     15  N   UNL     1       4.238  -1.832  -1.203  0.00  0.00    -0.108 NA
ATOM     16  N   UNL     1       3.473  -0.973  -0.619  0.00  0.00    -0.143 NA
BRANCH  13  17
ATOM     17  N   UNL     1       2.970  -3.024   2.318  0.00  0.00    -0.274 N 
ATOM     18  H   UNL     1       2.491  -2.492   2.973  0.00  0.00    +0.167 HD
BRANCH  17  19
ATOM     19  N   UNL     1       3.288  -4.324   2.594  0.00  0.00    -0.256 NA
ATOM     20  H   UNL     1       2.961  -4.589   3.511  0.00  0.00    +0.140 HD
ATOM     21  H   UNL     1       2.921  -4.944   1.887  0.00  0.00    +0.140 HD
ENDBRANCH  17  19
ENDBRANCH  13  17
ENDBRANCH   1  12
TORSDOF 4
