REMARK  Name = ZINC09096868
REMARK  8 active torsions:
REMARK  status: ('A' for Active; 'I' for Inactive)
REMARK    1  A    between atoms: C_1  and  N_2
REMARK    2  A    between atoms: N_2  and  C_3
REMARK    3  A    between atoms: N_2  and  S_24
REMARK    4  A    between atoms: C_6  and  O_9
REMARK    5  A    between atoms: O_9  and  C_10
REMARK    6  A    between atoms: C_10  and  C_11
REMARK    7  A    between atoms: N_13  and  C_14
REMARK    8  A    between atoms: S_24  and  C_27
REMARK                            x       y       z     vdW  Elec       q    Type
REMARK                         _______ _______ _______ _____ _____    ______ ____
ROOT
ATOM      1  C   UNL     1       0.582   0.332  -5.255  0.00  0.00    +0.051 A 
ATOM      2  C   UNL     1      -0.614   1.029  -5.367  0.00  0.00    +0.028 A 
ATOM      3  C   UNL     1      -1.383   1.264  -4.245  0.00  0.00    +0.047 A 
ATOM      4  C   UNL     1      -0.963   0.805  -3.006  0.00  0.00    +0.121 A 
ATOM      5  C   UNL     1       0.234   0.114  -2.892  0.00  0.00    +0.047 A 
ATOM      6  C   UNL     1       1.003  -0.127  -4.014  0.00  0.00    +0.028 A 
ENDROOT
BRANCH   1   8
ATOM      7  C   UNL     1       0.734   0.032  -7.713  0.00  0.00    +0.157 C 
ATOM      8  N   UNL     1       1.363   0.094  -6.391  0.00  0.00    -0.206 N 
BRANCH   8   9
ATOM      9  S   UNL     1       2.999  -0.119  -6.242  0.00  0.00    +0.074 S 
ATOM     10  O   UNL     1       3.572   0.255  -7.487  0.00  0.00    -0.150 OA
ATOM     11  O   UNL     1       3.377   0.491  -5.016  0.00  0.00    -0.150 OA
BRANCH   9  12
ATOM     12  C   UNL     1       3.285  -1.847  -6.055  0.00  0.00    +0.109 A 
ATOM     13  C   UNL     1       3.447  -2.388  -4.793  0.00  0.00    +0.030 A 
ATOM     14  C   UNL     1       3.666  -3.744  -4.645  0.00  0.00    +0.022 A 
ATOM     15  C   UNL     1       3.734  -4.560  -5.761  0.00  0.00    +0.041 A 
ATOM     16  C   UNL     1       3.577  -4.017  -7.024  0.00  0.00    +0.022 A 
ATOM     17  C   UNL     1       3.353  -2.661  -7.170  0.00  0.00    +0.030 A 
ATOM     18 CL   UNL     1       4.015  -6.263  -5.577  0.00  0.00    -0.084 Cl
ENDBRANCH   9  12
ENDBRANCH   8   9
ENDBRANCH   1   8
BRANCH   4  19
ATOM     19  O   UNL     1      -1.721   1.037  -1.901  0.00  0.00    -0.483 OA
BRANCH  19  20
ATOM     20  C   UNL     1      -1.228   0.536  -0.658  0.00  0.00    +0.324 C 
BRANCH  20  21
ATOM     21  C   UNL     1      -2.194   0.886   0.444  0.00  0.00    +0.251 C 
ATOM     22  O   UNL     1      -3.206   1.504   0.190  0.00  0.00    -0.272 OA
ATOM     23  N   UNL     1      -1.933   0.512   1.713  0.00  0.00    -0.307 N 
ATOM     24  H   UNL     1      -1.124   0.018   1.916  0.00  0.00    +0.149 HD
BRANCH  23  25
ATOM     25  C   UNL     1      -2.873   0.853   2.784  0.00  0.00    +0.035 C 
ATOM     26  C   UNL     1      -3.019   2.373   2.870  0.00  0.00    +0.029 C 
ATOM     27  C   UNL     1      -4.000   2.729   3.989  0.00  0.00    -0.008 C 
ATOM     28  C   UNL     1      -3.472   2.192   5.320  0.00  0.00    +0.007 C 
ATOM     29  C   UNL     1      -3.325   0.671   5.235  0.00  0.00    -0.008 C 
ATOM     30  C   UNL     1      -2.344   0.316   4.116  0.00  0.00    +0.029 C 
ATOM     31  C   UNL     1      -4.688   0.043   4.937  0.00  0.00    +0.007 C 
ATOM     32  C   UNL     1      -5.217   0.580   3.605  0.00  0.00    -0.008 C 
ATOM     33  C   UNL     1      -5.363   2.101   3.691  0.00  0.00    +0.007 C 
ATOM     34  C   UNL     1      -4.236   0.225   2.486  0.00  0.00    +0.029 C 
ENDBRANCH  23  25
ENDBRANCH  20  21
ENDBRANCH  19  20
ENDBRANCH   4  19
TORSDOF 7
