REMARK  Name = ZINC20240946
REMARK  15 active torsions:
REMARK  status: ('A' for Active; 'I' for Inactive)
REMARK    1  A    between atoms: C_1  and  C_2
REMARK    2  A    between atoms: C_2  and  C_3
REMARK    3  A    between atoms: C_3  and  C_4
REMARK    4  A    between atoms: C_4  and  S_5
REMARK    5  A    between atoms: S_5  and  C_6
REMARK    6  A    between atoms: C_6  and  C_7
REMARK    7  A    between atoms: C_7  and  C_8
REMARK    8  A    between atoms: C_8  and  N_9
REMARK    9  A    between atoms: C_10  and  C_12
REMARK   10  A    between atoms: N_17  and  C_19
REMARK   11  A    between atoms: C_19  and  C_20
REMARK   12  A    between atoms: C_21  and  C_33
REMARK   13  A    between atoms: C_23  and  C_25
REMARK   14  A    between atoms: C_28  and  C_31
REMARK   15  A    between atoms: C_31  and  C_32
REMARK                            x       y       z     vdW  Elec       q    Type
REMARK                         _______ _______ _______ _____ _____    ______ ____
ROOT
ATOM      1  C   UNL     1       3.702  -9.202   6.010  0.00  0.00    +0.058 C 
ATOM      2  C   UNL     1       3.009  -8.782   7.309  0.00  0.00    +0.009 C 
ATOM      3  C   UNL     1       3.681  -9.491   8.488  0.00  0.00    -0.018 C 
ATOM      4  C   UNL     1       3.626 -11.004   8.265  0.00  0.00    -0.078 C 
ATOM      5  N   UNL     1       4.328 -11.345   7.021  0.00  0.00    +0.384 N 
ATOM      6  C   UNL     1       3.647 -10.726   5.878  0.00  0.00    -0.066 C 
ATOM      7  H   UNL     1       5.278 -11.006   7.069  0.00  0.00    -0.081 HD
ENDROOT
BRANCH   1   9
ATOM      8  N   UNL     1       2.921  -7.228   4.742  0.00  0.00    -0.315 N 
ATOM      9  C   UNL     1       2.999  -8.570   4.837  0.00  0.00    +0.214 C 
ATOM     10  O   UNL     1       2.504  -9.269   3.978  0.00  0.00    -0.276 OA
ATOM     11  H   UNL     1       3.317  -6.669   5.429  0.00  0.00    +0.149 HD
BRANCH   8  12
ATOM     12  C   UNL     1       2.237  -6.613   3.601  0.00  0.00    +0.105 C 
BRANCH  12  13
ATOM     13  C   UNL     1       2.291  -5.090   3.735  0.00  0.00    +0.029 C 
BRANCH  13  14
ATOM     14  C   UNL     1       1.577  -4.448   2.544  0.00  0.00    +0.070 C 
BRANCH  14  15
ATOM     15  S   UNL     1       1.640  -2.642   2.703  0.00  0.00    -0.161 S 
BRANCH  15  16
ATOM     16  C   UNL     1       0.763  -2.041   1.233  0.00  0.00    +0.069 C 
BRANCH  16  17
ATOM     17  C   UNL     1       0.742  -0.511   1.242  0.00  0.00    +0.010 C 
BRANCH  17  19
ATOM     18  C   UNL     1      -0.019   1.526   0.010  0.00  0.00    +0.004 C 
ATOM     19  C   UNL     1       0.002  -0.004   0.002  0.00  0.00    -0.003 C 
ENDBRANCH  17  19
ENDBRANCH  16  17
ENDBRANCH  15  16
ENDBRANCH  14  15
ENDBRANCH  13  14
ENDBRANCH  12  13
ENDBRANCH   8  12
ENDBRANCH   1   9
BRANCH   5  20
ATOM     20  C   UNL     1       4.340 -12.804   6.851  0.00  0.00    -0.019 C 
BRANCH  20  21
ATOM     21  C   UNL     1       5.153 -13.431   7.954  0.00  0.00    +0.066 A 
ATOM     22  C   UNL     1       6.475 -13.678   7.922  0.00  0.00    +0.124 A 
ATOM     23  O   UNL     1       6.806 -14.242   9.100  0.00  0.00    -0.440 OA
ATOM     24  C   UNL     1       5.686 -14.335   9.838  0.00  0.00    +0.228 A 
ATOM     25  N   UNL     1       4.688 -13.838   9.145  0.00  0.00    -0.216 NA
ATOM     26  C   UNL     1       7.413 -13.378   6.781  0.00  0.00    +0.088 C 
BRANCH  24  27
ATOM     27  C   UNL     1       5.595 -14.897  11.202  0.00  0.00    +0.037 A 
ATOM     28  C   UNL     1       4.365 -14.941  11.861  0.00  0.00    +0.013 A 
ATOM     29  C   UNL     1       4.286 -15.467  13.134  0.00  0.00    +0.004 A 
ATOM     30  C   UNL     1       5.423 -15.949  13.758  0.00  0.00    -0.048 A 
ATOM     31  C   UNL     1       6.645 -15.908  13.110  0.00  0.00    +0.004 A 
ATOM     32  C   UNL     1       6.737 -15.390  11.835  0.00  0.00    +0.013 A 
BRANCH  30  33
ATOM     33  C   UNL     1       5.330 -16.522  15.149  0.00  0.00    +0.032 C 
ATOM     34  C   UNL     1       5.048 -18.023  15.064  0.00  0.00    +0.009 C 
ENDBRANCH  30  33
ENDBRANCH  24  27
ENDBRANCH  20  21
ENDBRANCH   5  20
TORSDOF 12
