REMARK  Name = ZINC40568735
REMARK  6 active torsions:
REMARK  status: ('A' for Active; 'I' for Inactive)
REMARK    1  A    between atoms: C_1  and  C_2
REMARK    2  A    between atoms: C_2  and  C_3
REMARK    3  A    between atoms: C_3  and  C_4
REMARK    4  A    between atoms: C_12  and  C_20
REMARK    5  A    between atoms: C_14  and  C_18
REMARK    6  A    between atoms: C_15  and  N_17
REMARK                            x       y       z     vdW  Elec       q    Type
REMARK                         _______ _______ _______ _____ _____    ______ ____
ROOT
ATOM      1  C   UNL     1       0.739  -2.004  -1.265  0.00  0.00    +0.023 A 
ATOM      2  C   UNL     1      -0.218  -2.679  -1.938  0.00  0.00    +0.068 A 
ATOM      3  C   UNL     1      -0.203  -4.090  -1.949  0.00  0.00    +0.141 A 
ATOM      4  C   UNL     1       0.796  -4.753  -1.268  0.00  0.00    +0.072 A 
ATOM      5  C   UNL     1       1.766  -4.010  -0.583  0.00  0.00    +0.257 A 
ATOM      6  O   UNL     1       2.657  -4.584   0.025  0.00  0.00    -0.267 OA
ATOM      7  N   UNL     1       1.722  -2.665  -0.600  0.00  0.00    -0.326 N 
ATOM      8  H   UNL     1       2.401  -2.159  -0.126  0.00  0.00    +0.169 HD
ATOM      9  C   UNL     1       0.850  -6.256  -1.254  0.00  0.00    +0.104 C 
ATOM     10  C   UNL     1      -0.469  -6.826  -1.695  0.00  0.00    +0.098 C 
ATOM     11  C   UNL     1      -1.383  -6.064  -2.342  0.00  0.00    +0.199 C 
ATOM     12  O   UNL     1      -1.158  -4.768  -2.621  0.00  0.00    -0.441 OA
ENDROOT
BRANCH   9  13
ATOM     13  C   UNL     1       1.932  -6.724  -2.193  0.00  0.00    -0.021 A 
ATOM     14  C   UNL     1       1.873  -6.398  -3.535  0.00  0.00    +0.005 A 
ATOM     15  C   UNL     1       2.865  -6.827  -4.396  0.00  0.00    +0.000 A 
ATOM     16  C   UNL     1       3.918  -7.583  -3.915  0.00  0.00    +0.001 A 
ATOM     17  C   UNL     1       3.979  -7.910  -2.574  0.00  0.00    +0.015 A 
ATOM     18  C   UNL     1       2.988  -7.476  -1.711  0.00  0.00    +0.022 A 
ATOM     19 BR   UNL     1       3.074  -7.918   0.126  0.00  0.00    -0.050 Br
ENDBRANCH   9  13
BRANCH  11  20
ATOM     20  N   UNL     1      -2.572  -6.631  -2.724  0.00  0.00    -0.328 N 
ATOM     21  H   UNL     1      -2.749  -7.564  -2.530  0.00  0.00    +0.145 HD
ATOM     22  H   UNL     1      -3.237  -6.098  -3.188  0.00  0.00    +0.145 HD
ENDBRANCH  11  20
BRANCH  10  23
ATOM     23  C   UNL     1      -0.766  -8.200  -1.426  0.00  0.00    +0.101 C 
ATOM     24  N   UNL     1      -1.001  -9.291  -1.213  0.00  0.00    -0.191 NA
ENDBRANCH  10  23
BRANCH   1  25
ATOM     25  C   UNL     1       0.718  -0.497  -1.257  0.00  0.00    +0.053 C 
BRANCH  25  27
ATOM     26  C   UNL     1      -0.019   1.526   0.010  0.00  0.00    +0.004 C 
ATOM     27  C   UNL     1       0.002  -0.004   0.002  0.00  0.00    +0.003 C 
ENDBRANCH  25  27
ENDBRANCH   1  25
TORSDOF 5
