REMARK  Name = ZINC41584528
REMARK  11 active torsions:
REMARK  status: ('A' for Active; 'I' for Inactive)
REMARK    1  A    between atoms: C_1  and  C_2
REMARK    2  A    between atoms: C_2  and  C_3
REMARK    3  A    between atoms: C_3  and  N_4
REMARK    4  A    between atoms: N_4  and  C_5
REMARK    5  A    between atoms: N_4  and  C_8
REMARK    6  A    between atoms: C_5  and  C_6
REMARK    7  A    between atoms: C_6  and  C_7
REMARK    8  A    between atoms: C_8  and  C_9
REMARK    9  A    between atoms: C_10  and  O_31
REMARK   10  A    between atoms: C_16  and  C_27
REMARK   11  A    between atoms: C_17  and  C_20
REMARK                            x       y       z     vdW  Elec       q    Type
REMARK                         _______ _______ _______ _____ _____    ______ ____
ROOT
ATOM      1  C   UNL     1       0.112  -1.993   3.274  0.00  0.00    +0.020 A 
ATOM      2  C   UNL     1       0.482  -0.822   3.913  0.00  0.00    +0.122 A 
ATOM      3  C   UNL     1      -0.221  -0.368   5.027  0.00  0.00    +0.046 A 
ATOM      4  C   UNL     1      -1.290  -1.075   5.503  0.00  0.00    +0.019 A 
ATOM      5  C   UNL     1      -1.675  -2.255   4.867  0.00  0.00    +0.065 A 
ATOM      6  C   UNL     1      -0.973  -2.723   3.742  0.00  0.00    +0.144 A 
ATOM      7  O   UNL     1      -1.342  -3.869   3.138  0.00  0.00    -0.450 OA
ATOM      8  C   UNL     1      -2.530  -4.432   3.365  0.00  0.00    +0.219 A 
ATOM      9  C   UNL     1      -3.316  -4.089   4.419  0.00  0.00    +0.076 A 
ATOM     10  C   UNL     1      -2.828  -3.044   5.342  0.00  0.00    +0.201 A 
ATOM     11  O   UNL     1      -3.352  -2.837   6.423  0.00  0.00    -0.286 OA
ENDROOT
BRANCH   9  12
ATOM     12  C   UNL     1      -4.623  -4.754   4.642  0.00  0.00    -0.011 A 
ATOM     13  C   UNL     1      -4.670  -6.064   5.117  0.00  0.00    +0.010 A 
ATOM     14  C   UNL     1      -5.888  -6.678   5.323  0.00  0.00    +0.016 A 
ATOM     15  C   UNL     1      -7.063  -5.995   5.060  0.00  0.00    +0.018 A 
ATOM     16  C   UNL     1      -7.023  -4.694   4.588  0.00  0.00    +0.016 A 
ATOM     17  C   UNL     1      -5.809  -4.069   4.383  0.00  0.00    +0.010 A 
ATOM     18 BR   UNL     1      -8.729  -6.843   5.345  0.00  0.00    -0.050 Br
ENDBRANCH   9  12
BRANCH   8  19
ATOM     19  C   UNL     1      -3.020  -5.493   2.413  0.00  0.00    +0.451 C 
ATOM     20  F   UNL     1      -4.346  -5.816   2.718  0.00  0.00    -0.163 F 
ATOM     21  F   UNL     1      -2.946  -5.012   1.101  0.00  0.00    -0.163 F 
ATOM     22  F   UNL     1      -2.221  -6.635   2.537  0.00  0.00    -0.163 F 
ENDBRANCH   8  19
BRANCH   2  23
ATOM     23  O   UNL     1       1.540  -0.108   3.450  0.00  0.00    -0.506 OA
ATOM     24  H   UNL     1       1.306   0.557   2.788  0.00  0.00    +0.292 HD
ENDBRANCH   2  23
BRANCH   1  25
ATOM     25  C   UNL     1       0.882  -2.472   2.070  0.00  0.00    -0.036 C 
BRANCH  25  26
ATOM     26  N   UNL     1       0.288  -1.903   0.852  0.00  0.00    +0.383 N 
ATOM     27  H   UNL     1      -0.694  -2.131   0.819  0.00  0.00    -0.081 HD
BRANCH  26  28
ATOM     28  C   UNL     1       0.452  -0.444   0.863  0.00  0.00    -0.079 C 
BRANCH  28  30
ATOM     29  C   UNL     1      -0.198   1.684  -0.274  0.00  0.00    +0.002 C 
ATOM     30  C   UNL     1      -0.250   0.157  -0.356  0.00  0.00    -0.022 C 
ENDBRANCH  28  30
ENDBRANCH  26  28
BRANCH  26  31
ATOM     31  C   UNL     1       0.961  -2.463  -0.328  0.00  0.00    -0.079 C 
BRANCH  31  32
ATOM     32  C   UNL     1       0.670  -3.962  -0.418  0.00  0.00    -0.022 C 
ATOM     33  C   UNL     1       1.256  -4.518  -1.717  0.00  0.00    +0.002 C 
ENDBRANCH  31  32
ENDBRANCH  26  31
ENDBRANCH  25  26
ENDBRANCH   1  25
TORSDOF 9
