REMARK  Name = ZINC09630159
REMARK  11 active torsions:
REMARK  status: ('A' for Active; 'I' for Inactive)
REMARK    1  A    between atoms: C_1  and  C_2
REMARK    2  A    between atoms: C_5  and  S_8
REMARK    3  A    between atoms: S_8  and  C_9
REMARK    4  A    between atoms: C_9  and  C_10
REMARK    5  A    between atoms: C_10  and  C_11
REMARK    6  A    between atoms: N_13  and  C_14
REMARK    7  A    between atoms: C_15  and  C_29
REMARK    8  A    between atoms: C_22  and  C_23
REMARK    9  A    between atoms: C_22  and  N_61
REMARK   10  A    between atoms: C_29  and  O_31
REMARK   11  A    between atoms: O_31  and  C_32
REMARK                            x       y       z     vdW  Elec       q    Type
REMARK                         _______ _______ _______ _____ _____    ______ ____
ROOT
ATOM      1  C   UNL     1       2.655   5.804  -6.073  0.00  0.00    +0.086 A 
ATOM      2  C   UNL     1       3.767   5.680  -5.249  0.00  0.00    +0.091 A 
ATOM      3  C   UNL     1       3.535   5.293  -3.869  0.00  0.00    -0.025 A 
ATOM      4  C   UNL     1       2.241   5.092  -3.535  0.00  0.00    -0.021 A 
ATOM      5  S   UNL     1       1.335   5.411  -5.021  0.00  0.00    -0.079 S 
ATOM      6  C   UNL     1       1.723   4.687  -2.190  0.00  0.00    -0.035 C 
ATOM      7  C   UNL     1       3.982   5.141  -1.440  0.00  0.00    -0.073 C 
ATOM      8  C   UNL     1       4.632   5.111  -2.826  0.00  0.00    +0.018 C 
ATOM      9  N   UNL     1       2.867   4.171  -1.400  0.00  0.00    +0.386 N 
ATOM     10  H   UNL     1       3.182   3.283  -1.808  0.00  0.00    -0.081 HD
ENDROOT
BRANCH   1  13
ATOM     11  C   UNL     1       1.428   6.227  -8.054  0.00  0.00    +0.218 C 
ATOM     12  O   UNL     1       0.401   5.980  -7.458  0.00  0.00    -0.275 OA
ATOM     13  N   UNL     1       2.612   6.157  -7.413  0.00  0.00    -0.279 N 
ATOM     14  H   UNL     1       3.433   6.355  -7.889  0.00  0.00    +0.155 HD
BRANCH  11  15
ATOM     15  C   UNL     1       1.381   6.611  -9.510  0.00  0.00    +0.107 C 
BRANCH  15  16
ATOM     16  C   UNL     1      -0.071   6.614  -9.990  0.00  0.00    +0.083 C 
BRANCH  16  17
ATOM     17  S   UNL     1      -0.128   7.077 -11.743  0.00  0.00    -0.125 S 
BRANCH  17  22
ATOM     18  C   UNL     1      -6.007   6.933 -13.103  0.00  0.00    +0.044 C 
ATOM     19  C   UNL     1      -4.539   6.969 -12.763  0.00  0.00    -0.050 A 
ATOM     20  C   UNL     1      -3.615   7.308 -13.735  0.00  0.00    +0.004 A 
ATOM     21  C   UNL     1      -2.269   7.342 -13.427  0.00  0.00    +0.015 A 
ATOM     22  C   UNL     1      -1.844   7.035 -12.140  0.00  0.00    +0.008 A 
ATOM     23  C   UNL     1      -2.776   6.690 -11.168  0.00  0.00    +0.015 A 
ATOM     24  C   UNL     1      -4.120   6.664 -11.481  0.00  0.00    +0.004 A 
ENDBRANCH  17  22
ENDBRANCH  16  17
ENDBRANCH  15  16
ENDBRANCH  11  15
ENDBRANCH   1  13
BRANCH   2  25
ATOM     25  C   UNL     1       5.119   5.930  -5.752  0.00  0.00    +0.342 C 
ATOM     26  O   UNL     1       5.768   5.019  -6.231  0.00  0.00    -0.245 OA
BRANCH  25  27
ATOM     27  O   UNL     1       5.645   7.170  -5.684  0.00  0.00    -0.464 OA
ATOM     28  C   UNL     1       6.990   7.344  -6.202  0.00  0.00    +0.280 C 
ENDBRANCH  25  27
ENDBRANCH   2  25
BRANCH   9  29
ATOM     29  C   UNL     1       2.451   3.937  -0.001  0.00  0.00    -0.043 C 
BRANCH  29  30
ATOM     30  C   UNL     1       1.156   3.165   0.008  0.00  0.00    -0.064 A 
ATOM     31  C   UNL     1       1.175   1.783   0.000  0.00  0.00    +0.002 A 
ATOM     32  C   UNL     1      -0.013   1.076   0.008  0.00  0.00    +0.000 A 
ATOM     33  C   UNL     1      -1.219   1.751   0.017  0.00  0.00    +0.000 A 
ATOM     34  C   UNL     1      -1.238   3.133   0.030  0.00  0.00    +0.000 A 
ATOM     35  C   UNL     1      -0.050   3.840   0.023  0.00  0.00    +0.002 A 
ENDBRANCH  29  30
ENDBRANCH   9  29
TORSDOF 9
