REMARK  Name = ZINC12657724
REMARK  8 active torsions:
REMARK  status: ('A' for Active; 'I' for Inactive)
REMARK    1  A    between atoms: C_1  and  C_2
REMARK    2  A    between atoms: C_9  and  O_20
REMARK    3  A    between atoms: C_12  and  C_14
REMARK    4  A    between atoms: C_23  and  O_40
REMARK    5  A    between atoms: C_24  and  C_31
REMARK    6  A    between atoms: C_27  and  O_30
REMARK    7  A    between atoms: N_32  and  N_33
REMARK    8  A    between atoms: N_33  and  C_34
REMARK                            x       y       z     vdW  Elec       q    Type
REMARK                         _______ _______ _______ _____ _____    ______ ____
ROOT
ATOM      1  C   UNL     1       6.824   4.276   4.083  0.00  0.00    +0.014 C 
ATOM      2  C   UNL     1       6.772   5.767   3.745  0.00  0.00    +0.004 C 
ATOM      3  C   UNL     1       5.332   6.282   3.685  0.00  0.00    +0.010 C 
ATOM      4  C   UNL     1       4.614   5.737   2.453  0.00  0.00    +0.005 C 
ATOM      5  C   UNL     1       5.329   6.232   1.210  0.00  0.00    +0.009 C 
ATOM      6  C   UNL     1       6.754   5.685   1.195  0.00  0.00    +0.025 C 
ATOM      7  C   UNL     1       7.517   6.081   2.436  0.00  0.00    +0.075 C 
ATOM      8  C   UNL     1       7.751   7.600   2.529  0.00  0.00    +0.036 C 
ATOM      9  C   UNL     1       8.125   7.823   4.006  0.00  0.00    +0.011 C 
ATOM     10  C   UNL     1       7.515   6.644   4.788  0.00  0.00    +0.027 C 
ATOM     11  C   UNL     1       7.479   6.179  -0.059  0.00  0.00    +0.009 C 
ATOM     12  C   UNL     1       6.733   5.695  -1.304  0.00  0.00    +0.036 C 
ATOM     13  C   UNL     1       5.305   6.245  -1.289  0.00  0.00    +0.079 C 
ATOM     14  C   UNL     1       4.581   5.749  -0.035  0.00  0.00    +0.039 C 
ATOM     15  C   UNL     1       3.154   6.300  -0.019  0.00  0.00    +0.018 C 
ATOM     16  C   UNL     1       3.196   7.829  -0.015  0.00  0.00    +0.032 C 
ATOM     17  C   UNL     1       3.920   8.323  -1.269  0.00  0.00    +0.117 C 
ATOM     18  C   UNL     1       5.348   7.773  -1.284  0.00  0.00    +0.067 C 
ENDROOT
BRANCH  10  19
ATOM     19  C   UNL     1       8.606   5.845   5.453  0.00  0.00    -0.022 C 
ATOM     20  C   UNL     1       8.654   5.482   6.732  0.00  0.00    +0.094 C 
ATOM     21  C   UNL     1       9.878   4.715   6.978  0.00  0.00    +0.332 C 
ATOM     22  O   UNL     1      10.204   4.247   8.051  0.00  0.00    -0.246 OA
ATOM     23  O   UNL     1      10.588   4.607   5.840  0.00  0.00    -0.457 OA
ATOM     24  C   UNL     1       9.850   5.298   4.793  0.00  0.00    +0.264 C 
ENDBRANCH  10  19
BRANCH   7  25
ATOM     25  O   UNL     1       8.780   5.412   2.444  0.00  0.00    -0.388 OA
ATOM     26  H   UNL     1       9.335   5.611   1.678  0.00  0.00    +0.210 HD
ENDBRANCH   7  25
BRANCH  17  27
ATOM     27  O   UNL     1       3.222   7.869  -2.431  0.00  0.00    -0.392 OA
ATOM     28  H   UNL     1       2.308   8.180  -2.488  0.00  0.00    +0.210 HD
ENDBRANCH  17  27
BRANCH  14  29
ATOM     29  C   UNL     1       4.538   4.243  -0.043  0.00  0.00    +0.113 C 
ATOM     30  N   UNL     1       3.412   3.635  -0.035  0.00  0.00    -0.194 NA
BRANCH  30  31
ATOM     31  N   UNL     1       3.372   2.234  -0.042  0.00  0.00    -0.238 N 
ATOM     32  H   UNL     1       4.198   1.726  -0.052  0.00  0.00    +0.174 HD
BRANCH  31  33
ATOM     33  C   UNL     1       2.144   1.571  -0.033  0.00  0.00    +0.048 A 
ATOM     34  C   UNL     1       0.960   2.298  -0.018  0.00  0.00    +0.025 A 
ATOM     35  C   UNL     1      -0.253   1.638  -0.010  0.00  0.00    +0.002 A 
ATOM     36  C   UNL     1      -0.290   0.256  -0.017  0.00  0.00    +0.000 A 
ATOM     37  C   UNL     1       0.886  -0.471  -0.031  0.00  0.00    +0.002 A 
ATOM     38  C   UNL     1       2.103   0.182  -0.040  0.00  0.00    +0.025 A 
ENDBRANCH  31  33
ENDBRANCH  30  31
ENDBRANCH  14  29
BRANCH  13  39
ATOM     39  O   UNL     1       4.609   5.791  -2.451  0.00  0.00    -0.388 OA
ATOM     40  H   UNL     1       5.013   6.069  -3.285  0.00  0.00    +0.210 HD
ENDBRANCH  13  39
TORSDOF 7
