REMARK  Name = ZINC35926294
REMARK  6 active torsions:
REMARK  status: ('A' for Active; 'I' for Inactive)
REMARK    1  A    between atoms: C_4  and  S_7
REMARK    2  A    between atoms: S_7  and  C_8
REMARK    3  A    between atoms: C_8  and  C_9
REMARK    4  A    between atoms: C_23  and  C_25
REMARK    5  A    between atoms: C_25  and  N_26
REMARK    6  A    between atoms: N_29  and  C_32
REMARK                            x       y       z     vdW  Elec       q    Type
REMARK                         _______ _______ _______ _____ _____    ______ ____
ROOT
ATOM      1  C   UNL     1       4.473  -3.404  -2.430  0.00  0.00    +0.226 C 
ATOM      2  O   UNL     1       3.495  -2.718  -2.224  0.00  0.00    -0.275 OA
ATOM      3  N   UNL     1       4.364  -4.747  -2.437  0.00  0.00    -0.298 N 
ATOM      4  C   UNL     1       5.543  -5.592  -2.680  0.00  0.00    +0.127 C 
ATOM      5  C   UNL     1       5.691  -6.575  -1.512  0.00  0.00    +0.127 C 
ATOM      6  N   UNL     1       4.393  -7.221  -1.275  0.00  0.00    -0.298 N 
ATOM      7  C   UNL     1       3.215  -6.377  -1.032  0.00  0.00    +0.127 C 
ATOM      8  C   UNL     1       3.067  -5.394  -2.194  0.00  0.00    +0.127 C 
ATOM      9  C   UNL     1       4.282  -8.586  -1.281  0.00  0.00    +0.198 A 
ATOM     10  N   UNL     1       5.405  -9.347  -1.389  0.00  0.00    -0.295 N 
ATOM     11  H   UNL     1       6.275  -8.923  -1.461  0.00  0.00    +0.172 HD
ATOM     12  C   UNL     1       5.305 -10.693  -1.395  0.00  0.00    +0.253 A 
ATOM     13  O   UNL     1       6.301 -11.391  -1.491  0.00  0.00    -0.268 OA
ATOM     14  C   UNL     1       4.029 -11.276  -1.289  0.00  0.00    +0.091 A 
ATOM     15  C   UNL     1       2.939 -10.463  -1.183  0.00  0.00    +0.034 A 
ATOM     16  N   UNL     1       3.091  -9.140  -1.177  0.00  0.00    -0.223 NA
ENDROOT
BRANCH   1  17
ATOM     17  C   UNL     1       5.810  -2.755  -2.681  0.00  0.00    +0.170 C 
BRANCH  17  18
ATOM     18  S   UNL     1       5.629  -0.951  -2.608  0.00  0.00    -0.116 S 
BRANCH  18  22
ATOM     19  C   UNL     1       9.809   0.601  -3.400  0.00  0.00    +0.000 A 
ATOM     20  C   UNL     1       8.774   1.491  -3.179  0.00  0.00    +0.001 A 
ATOM     21  C   UNL     1       7.498   1.021  -2.937  0.00  0.00    +0.015 A 
ATOM     22  C   UNL     1       7.255  -0.347  -2.917  0.00  0.00    +0.008 A 
ATOM     23  C   UNL     1       8.298  -1.238  -3.140  0.00  0.00    +0.015 A 
ATOM     24  C   UNL     1       9.572  -0.761  -3.381  0.00  0.00    +0.001 A 
ENDBRANCH  18  22
ENDBRANCH  17  18
ENDBRANCH   1  17
BRANCH  15  25
ATOM     25  C   UNL     1       1.561 -11.062  -1.068  0.00  0.00    -0.022 C 
BRANCH  25  26
ATOM     26  N   UNL     1       0.993 -10.734   0.246  0.00  0.00    +0.385 N 
ATOM     27  C   UNL     1       1.794 -11.373   1.297  0.00  0.00    -0.059 C 
ATOM     28  C   UNL     1       1.272 -10.939   2.671  0.00  0.00    +0.086 C 
ATOM     29  N   UNL     1      -0.167 -11.238   2.739  0.00  0.00    -0.331 N 
ATOM     30  C   UNL     1      -1.024 -10.774   1.637  0.00  0.00    +0.086 C 
ATOM     31  C   UNL     1      -0.393 -11.216   0.312  0.00  0.00    -0.059 C 
ATOM     32  H   UNL     1       1.007  -9.734   0.377  0.00  0.00    -0.081 HD
BRANCH  29  33
ATOM     33  C   UNL     1      -0.704 -11.944   3.820  0.00  0.00    +0.065 A 
ATOM     34  C   UNL     1      -1.165 -11.261   4.937  0.00  0.00    +0.026 A 
ATOM     35  C   UNL     1      -1.696 -11.961   6.003  0.00  0.00    +0.002 A 
ATOM     36  C   UNL     1      -1.769 -13.341   5.959  0.00  0.00    +0.003 A 
ATOM     37  C   UNL     1      -1.312 -14.026   4.849  0.00  0.00    +0.040 A 
ATOM     38  C   UNL     1      -0.784 -13.332   3.775  0.00  0.00    +0.144 A 
ATOM     39  F   UNL     1      -0.343 -14.001   2.688  0.00  0.00    -0.204 F 
ENDBRANCH  29  33
ENDBRANCH  25  26
ENDBRANCH  15  25
TORSDOF 6
