REMARK  Name = ZINC39449114
REMARK  4 active torsions:
REMARK  status: ('A' for Active; 'I' for Inactive)
REMARK    1  A    between atoms: C_4  and  C_7
REMARK    2  A    between atoms: C_7  and  C_8
REMARK    3  A    between atoms: C_18  and  C_21
REMARK    4  A    between atoms: C_26  and  O_27
REMARK                            x       y       z     vdW  Elec       q    Type
REMARK                         _______ _______ _______ _____ _____    ______ ____
ROOT
ATOM      1  C   UNL     1       4.171  -0.963   1.399  0.00  0.00    +0.082 C 
ATOM      2  C   UNL     1       5.452  -1.806   1.389  0.00  0.00    +0.103 C 
ATOM      3  C   UNL     1       6.585  -0.987   0.829  0.00  0.00    +0.186 C 
ATOM      4  O   UNL     1       7.490  -1.539   0.236  0.00  0.00    -0.290 OA
ATOM      5  C   UNL     1       6.604   0.417   0.985  0.00  0.00    +0.144 A 
ATOM      6  C   UNL     1       5.545   1.054   1.606  0.00  0.00    +0.084 A 
ATOM      7  C   UNL     1       5.569   2.513   1.776  0.00  0.00    +0.099 A 
ATOM      8  C   UNL     1       6.685   3.223   1.280  0.00  0.00    +0.070 A 
ATOM      9  C   UNL     1       6.732   4.608   1.426  0.00  0.00    +0.025 A 
ATOM     10  C   UNL     1       5.661   5.235   2.064  0.00  0.00    +0.004 A 
ATOM     11  C   UNL     1       4.591   4.461   2.528  0.00  0.00    +0.120 A 
ATOM     12  N   UNL     1       4.574   3.156   2.375  0.00  0.00    -0.252 NA
ATOM     13  C   UNL     1       7.768   2.478   0.622  0.00  0.00    +0.289 A 
ATOM     14  O   UNL     1       8.737   3.071   0.186  0.00  0.00    -0.265 OA
ATOM     15  N   UNL     1       7.688   1.140   0.502  0.00  0.00    -0.136 N 
ATOM     16  F   UNL     1       8.657   0.503  -0.084  0.00  0.00    -0.090 F 
ATOM     17  N   UNL     1       4.467   0.317   2.061  0.00  0.00    -0.337 N 
ATOM     18  H   UNL     1       3.921   0.634   2.797  0.00  0.00    +0.146 HD
ENDROOT
BRANCH  10  19
ATOM     19  C   UNL     1       5.655   6.705   2.248  0.00  0.00    +0.025 A 
ATOM     20  C   UNL     1       6.768   7.347   2.789  0.00  0.00    +0.012 A 
ATOM     21  C   UNL     1       6.758   8.716   2.958  0.00  0.00    +0.001 A 
ATOM     22  C   UNL     1       5.647   9.456   2.592  0.00  0.00    +0.004 A 
ATOM     23  C   UNL     1       4.538   8.830   2.055  0.00  0.00    +0.046 A 
ATOM     24  C   UNL     1       4.536   7.456   1.875  0.00  0.00    +0.125 A 
BRANCH  24  25
ATOM     25  O   UNL     1       3.449   6.840   1.343  0.00  0.00    -0.506 OA
ATOM     26  H   UNL     1       2.795   6.560   1.998  0.00  0.00    +0.292 HD
ENDBRANCH  24  25
ENDBRANCH  10  19
BRANCH   1  27
ATOM     27  C   UNL     1       3.711  -0.707  -0.038  0.00  0.00    +0.057 C 
BRANCH  27  31
ATOM     28  C   UNL     1      -0.017   1.378   0.010  0.00  0.00    +0.000 A 
ATOM     29  C   UNL     1       1.171   2.086   0.002  0.00  0.00    +0.000 A 
ATOM     30  C   UNL     1       2.377   1.411  -0.013  0.00  0.00    +0.004 A 
ATOM     31  C   UNL     1       2.396   0.029  -0.020  0.00  0.00    -0.046 A 
ATOM     32  C   UNL     1       1.208  -0.679  -0.012  0.00  0.00    +0.004 A 
ATOM     33  C   UNL     1       0.002  -0.004   0.002  0.00  0.00    +0.000 A 
ENDBRANCH  27  31
ENDBRANCH   1  27
TORSDOF 4
