REMARK  Name = ZINC08798243
REMARK  16 active torsions:
REMARK  status: ('A' for Active; 'I' for Inactive)
REMARK    1  A    between atoms: C_1  and  C_2
REMARK    2  A    between atoms: C_2  and  C_3
REMARK    3  A    between atoms: C_3  and  C_4
REMARK    4  A    between atoms: C_4  and  N_5
REMARK    5  A    between atoms: N_5  and  C_6
REMARK    6  A    between atoms: N_5  and  S_10
REMARK    7  A    between atoms: C_6  and  C_7
REMARK    8  A    between atoms: C_7  and  C_8
REMARK    9  A    between atoms: C_8  and  C_9
REMARK   10  A    between atoms: S_10  and  C_13
REMARK   11  A    between atoms: C_16  and  C_19
REMARK   12  A    between atoms: C_19  and  N_21
REMARK   13  A    between atoms: N_23  and  C_34
REMARK   14  A    between atoms: C_25  and  O_32
REMARK   15  A    between atoms: C_28  and  C_31
REMARK   16  A    between atoms: O_32  and  C_33
REMARK                            x       y       z     vdW  Elec       q    Type
REMARK                         _______ _______ _______ _____ _____    ______ ____
ROOT
ATOM      1  C   UNL     1      -1.195  -9.792   2.304  0.00  0.00    +0.106 A 
ATOM      2  C   UNL     1      -0.523 -10.037   1.119  0.00  0.00    +0.029 A 
ATOM      3  C   UNL     1      -0.093  -8.985   0.337  0.00  0.00    +0.015 A 
ATOM      4  C   UNL     1      -0.336  -7.673   0.743  0.00  0.00    +0.039 A 
ATOM      5  C   UNL     1      -1.009  -7.433   1.941  0.00  0.00    +0.015 A 
ATOM      6  C   UNL     1      -1.440  -8.493   2.712  0.00  0.00    +0.029 A 
ENDROOT
BRANCH   1   7
ATOM      7  S   UNL     1      -1.742 -11.141   3.297  0.00  0.00    +0.061 S 
ATOM      8  O   UNL     1      -2.824 -10.656   4.081  0.00  0.00    -0.153 OA
ATOM      9  O   UNL     1      -1.872 -12.258   2.428  0.00  0.00    -0.153 OA
BRANCH   7  10
ATOM     10  N   UNL     1      -0.517 -11.501   4.351  0.00  0.00    -0.177 NA
BRANCH  10  11
ATOM     11  C   UNL     1      -0.460 -10.844   5.659  0.00  0.00    +0.109 C 
BRANCH  11  12
ATOM     12  C   UNL     1      -1.131 -11.734   6.707  0.00  0.00    +0.017 C 
BRANCH  12  14
ATOM     13  C   UNL     1      -1.743 -11.938   9.121  0.00  0.00    +0.004 C 
ATOM     14  C   UNL     1      -1.072 -11.048   8.073  0.00  0.00    -0.002 C 
ENDBRANCH  12  14
ENDBRANCH  11  12
ENDBRANCH  10  11
BRANCH  10  15
ATOM     15  C   UNL     1       0.509 -12.477   3.976  0.00  0.00    +0.109 C 
BRANCH  15  16
ATOM     16  C   UNL     1       1.719 -11.745   3.392  0.00  0.00    +0.017 C 
BRANCH  16  17
ATOM     17  C   UNL     1       2.792 -12.763   3.000  0.00  0.00    -0.002 C 
ATOM     18  C   UNL     1       4.001 -12.031   2.416  0.00  0.00    +0.004 C 
ENDBRANCH  16  17
ENDBRANCH  15  16
ENDBRANCH  10  15
ENDBRANCH   7  10
ENDBRANCH   1   7
BRANCH   4  19
ATOM     19  C   UNL     1       0.123  -6.539  -0.092  0.00  0.00    +0.269 C 
ATOM     20  O   UNL     1       0.716  -6.751  -1.135  0.00  0.00    -0.268 OA
BRANCH  19  21
ATOM     21  N   UNL     1      -0.111  -5.283   0.299  0.00  0.00    -0.152 NA
ATOM     22  C   UNL     1       0.301  -4.265  -0.450  0.00  0.00    +0.167 A 
ATOM     23  N   UNL     1       0.156  -2.933  -0.217  0.00  0.00    -0.321 N 
ATOM     24  C   UNL     1       0.662  -2.013  -1.118  0.00  0.00    +0.100 A 
ATOM     25  C   UNL     1       0.606  -0.607  -1.056  0.00  0.00    +0.145 A 
ATOM     26  C   UNL     1       1.162   0.163  -2.055  0.00  0.00    +0.048 A 
ATOM     27  C   UNL     1       1.786  -0.419  -3.146  0.00  0.00    +0.008 A 
ATOM     28  C   UNL     1       1.849  -1.798  -3.233  0.00  0.00    -0.034 A 
ATOM     29  C   UNL     1       1.295  -2.570  -2.237  0.00  0.00    +0.045 A 
ATOM     30  S   UNL     1       1.155  -4.317  -1.958  0.00  0.00    -0.052 S 
ATOM     31  C   UNL     1       2.524  -2.452  -4.411  0.00  0.00    +0.045 C 
ATOM     32  C   UNL     1      -0.532  -2.472   0.991  0.00  0.00    +0.151 C 
BRANCH  25  33
ATOM     33  O   UNL     1       0.002  -0.004   0.002  0.00  0.00    -0.493 OA
ATOM     34  C   UNL     1      -0.017   1.425   0.010  0.00  0.00    +0.277 C 
ENDBRANCH  25  33
ENDBRANCH  19  21
ENDBRANCH   4  19
TORSDOF 11
