REMARK  Name = ZINC23682867
REMARK  6 active torsions:
REMARK  status: ('A' for Active; 'I' for Inactive)
REMARK    1  A    between atoms: C_1  and  C_2
REMARK    2  A    between atoms: C_5  and  C_9
REMARK    3  A    between atoms: C_7  and  C_8
REMARK    4  A    between atoms: C_15  and  C_17
REMARK    5  A    between atoms: C_17  and  N_18
REMARK    6  A    between atoms: C_26  and  C_28
REMARK                            x       y       z     vdW  Elec       q    Type
REMARK                         _______ _______ _______ _____ _____    ______ ____
ROOT
ATOM      1  C   UNL     1      -1.724   0.299  10.067  0.00  0.00    +0.080 A 
ATOM      2  C   UNL     1      -0.436   0.336   9.611  0.00  0.00    +0.076 A 
ATOM      3  S   UNL     1      -0.712   0.353   7.844  0.00  0.00    -0.060 S 
ATOM      4  C   UNL     1      -2.498   0.319   7.896  0.00  0.00    +0.165 A 
ATOM      5  N   UNL     1      -2.723   0.291   9.197  0.00  0.00    -0.225 NA
ATOM      6  N   UNL     1      -3.409   0.315   6.847  0.00  0.00    -0.263 N 
ATOM      7  C   UNL     1      -2.969   0.347   5.573  0.00  0.00    +0.237 C 
ATOM      8  O   UNL     1      -1.778   0.378   5.343  0.00  0.00    -0.274 OA
ATOM      9  H   UNL     1      -4.488   0.287   7.055  0.00  0.00    +0.157 HD
ENDROOT
BRANCH   1  14
ATOM     10  C   UNL     1      -2.800   0.177  15.723  0.00  0.00    +0.044 C 
ATOM     11  C   UNL     1      -2.518   0.209  14.243  0.00  0.00    -0.047 A 
ATOM     12  C   UNL     1      -1.218   0.351  13.792  0.00  0.00    +0.004 A 
ATOM     13  C   UNL     1      -0.955   0.381  12.438  0.00  0.00    +0.010 A 
ATOM     14  C   UNL     1      -2.001   0.268  11.524  0.00  0.00    +0.001 A 
ATOM     15  C   UNL     1      -3.310   0.131  11.984  0.00  0.00    +0.013 A 
ATOM     16  C   UNL     1      -3.561   0.097  13.341  0.00  0.00    -0.047 A 
ATOM     17  C   UNL     1      -4.974  -0.058  13.841  0.00  0.00    +0.044 C 
ENDBRANCH   1  14
BRANCH   7  18
ATOM     18  C   UNL     1      -3.956   0.343   4.435  0.00  0.00    +0.214 C 
BRANCH  18  19
ATOM     19  N   UNL     1      -3.233   0.381   3.161  0.00  0.00    -0.215 N 
ATOM     20  C   UNL     1      -2.885   1.517   2.521  0.00  0.00    +0.247 C 
ATOM     21  O   UNL     1      -3.102   2.655   2.875  0.00  0.00    -0.273 OA
ATOM     22  C   UNL     1      -2.167   1.069   1.268  0.00  0.00    +0.115 C 
ATOM     23  C   UNL     1      -2.911   1.550   0.027  0.00  0.00    +0.035 C 
ATOM     24  C   UNL     1      -2.186   1.056  -1.227  0.00  0.00    +0.003 C 
ATOM     25  C   UNL     1      -0.753   1.593  -1.231  0.00  0.00    +0.000 C 
ATOM     26  C   UNL     1      -0.013   1.086   0.008  0.00  0.00    +0.006 C 
ATOM     27  C   UNL     1      -0.730   1.580   1.267  0.00  0.00    +0.018 C 
ATOM     28  C   UNL     1      -0.002   1.056   2.507  0.00  0.00    +0.010 C 
ATOM     29  N   UNL     1      -2.191  -0.397   1.347  0.00  0.00    -0.285 N 
ATOM     30  C   UNL     1      -2.836  -0.706   2.489  0.00  0.00    +0.310 C 
ATOM     31  O   UNL     1      -3.035  -1.844   2.866  0.00  0.00    -0.252 OA
ATOM     32  H   UNL     1      -1.730  -0.998   0.550  0.00  0.00    +0.151 HD
ENDBRANCH  18  19
ENDBRANCH   7  18
TORSDOF 3
