REMARK  Name = ZINC39911912
REMARK  12 active torsions:
REMARK  status: ('A' for Active; 'I' for Inactive)
REMARK    1  A    between atoms: C_1  and  C_2
REMARK    2  A    between atoms: C_2  and  C_3
REMARK    3  A    between atoms: C_3  and  C_4
REMARK    4  A    between atoms: C_4  and  N_5
REMARK    5  A    between atoms: C_6  and  C_25
REMARK    6  A    between atoms: C_9  and  C_16
REMARK    7  A    between atoms: C_18  and  C_24
REMARK    8  A    between atoms: C_20  and  C_23
REMARK    9  A    between atoms: C_21  and  O_22
REMARK   10  A    between atoms: C_27  and  O_33
REMARK   11  A    between atoms: C_28  and  O_32
REMARK   12  A    between atoms: O_33  and  C_34
REMARK                            x       y       z     vdW  Elec       q    Type
REMARK                         _______ _______ _______ _____ _____    ______ ____
ROOT
ATOM      1  N   UNL     1      -2.897  -2.889  -0.242  0.00  0.00    -0.285 N 
ATOM      2  C   UNL     1      -3.396  -2.936   1.138  0.00  0.00    +0.141 C 
ATOM      3  C   UNL     1      -4.875  -3.191   1.038  0.00  0.00    +0.035 A 
ATOM      4  C   UNL     1      -6.088  -3.378   1.711  0.00  0.00    +0.102 A 
ATOM      5  N   UNL     1      -7.020  -3.563   0.797  0.00  0.00    -0.173 NA
ATOM      6  N   UNL     1      -6.517  -3.510  -0.385  0.00  0.00    -0.272 N 
ATOM      7  H   UNL     1      -7.018  -3.618  -1.208  0.00  0.00    +0.189 HD
ATOM      8  C   UNL     1      -5.173  -3.279  -0.308  0.00  0.00    +0.126 A 
ATOM      9  C   UNL     1      -3.937  -3.085  -1.073  0.00  0.00    +0.265 C 
ATOM     10  O   UNL     1      -3.862  -3.100  -2.287  0.00  0.00    -0.268 OA
ENDROOT
BRANCH   4  11
ATOM     11  C   UNL     1      -6.287  -3.372   3.181  0.00  0.00    +0.044 A 
ATOM     12  C   UNL     1      -5.237  -3.025   4.028  0.00  0.00    +0.017 A 
ATOM     13  C   UNL     1      -5.427  -3.021   5.395  0.00  0.00    -0.049 A 
ATOM     14  C   UNL     1      -6.658  -3.360   5.928  0.00  0.00    +0.010 A 
ATOM     15  C   UNL     1      -7.707  -3.706   5.097  0.00  0.00    -0.008 A 
ATOM     16  C   UNL     1      -7.531  -3.709   3.722  0.00  0.00    +0.129 A 
ATOM     17  C   UNL     1      -9.044  -4.074   5.686  0.00  0.00    +0.047 C 
ATOM     18  C   UNL     1      -4.290  -2.645   6.310  0.00  0.00    +0.044 C 
BRANCH  16  19
ATOM     19  O   UNL     1      -8.562  -4.044   2.904  0.00  0.00    -0.506 OA
ATOM     20  H   UNL     1      -8.615  -4.988   2.704  0.00  0.00    +0.292 HD
ENDBRANCH  16  19
ENDBRANCH   4  11
BRANCH   2  21
ATOM     21  C   UNL     1      -2.726  -4.054   1.895  0.00  0.00    -0.018 A 
ATOM     22  C   UNL     1      -2.620  -5.308   1.322  0.00  0.00    +0.055 A 
ATOM     23  C   UNL     1      -2.005  -6.337   2.015  0.00  0.00    +0.163 A 
ATOM     24  C   UNL     1      -1.492  -6.106   3.289  0.00  0.00    +0.173 A 
ATOM     25  C   UNL     1      -1.601  -4.846   3.857  0.00  0.00    +0.063 A 
ATOM     26  C   UNL     1      -2.213  -3.822   3.157  0.00  0.00    +0.025 A 
ATOM     27 BR   UNL     1      -0.906  -4.526   5.587  0.00  0.00    -0.046 Br
BRANCH  24  28
ATOM     28  O   UNL     1      -0.887  -7.113   3.974  0.00  0.00    -0.503 OA
ATOM     29  H   UNL     1       0.065  -7.178   3.818  0.00  0.00    +0.292 HD
ENDBRANCH  24  28
BRANCH  23  30
ATOM     30  O   UNL     1      -1.901  -7.571   1.454  0.00  0.00    -0.491 OA
ATOM     31  C   UNL     1      -2.557  -7.770   0.200  0.00  0.00    +0.277 C 
ENDBRANCH  23  30
ENDBRANCH   2  21
BRANCH   1  32
ATOM     32  C   UNL     1      -1.507  -2.663  -0.645  0.00  0.00    +0.109 C 
BRANCH  32  33
ATOM     33  C   UNL     1      -1.264  -1.163  -0.819  0.00  0.00    +0.019 C 
BRANCH  33  35
ATOM     34  C   UNL     1       0.431   0.574  -1.413  0.00  0.00    +0.004 C 
ATOM     35  C   UNL     1       0.188  -0.927  -1.240  0.00  0.00    -0.002 C 
ENDBRANCH  33  35
ENDBRANCH  32  33
ENDBRANCH   1  32
TORSDOF 8
