REMARK  Name = ZINC36313768
REMARK  15 active torsions:
REMARK  status: ('A' for Active; 'I' for Inactive)
REMARK    1  A    between atoms: C_1  and  C_2
REMARK    2  A    between atoms: C_2  and  C_3
REMARK    3  A    between atoms: C_3  and  C_4
REMARK    4  A    between atoms: C_4  and  C_5
REMARK    5  A    between atoms: C_5  and  C_7
REMARK    6  A    between atoms: C_5  and  O_34
REMARK    7  A    between atoms: C_7  and  N_8
REMARK    8  A    between atoms: N_8  and  C_9
REMARK    9  A    between atoms: N_8  and  C_30
REMARK   10  A    between atoms: C_9  and  C_10
REMARK   11  A    between atoms: C_11  and  C_24
REMARK   12  A    between atoms: N_13  and  C_23
REMARK   13  A    between atoms: C_14  and  O_15
REMARK   14  A    between atoms: O_15  and  C_16
REMARK   15  A    between atoms: C_30  and  C_31
REMARK                            x       y       z     vdW  Elec       q    Type
REMARK                         _______ _______ _______ _____ _____    ______ ____
ROOT
ATOM      1  C   UNL     1       2.226  -5.757  -6.352  0.00  0.00    +0.025 A 
ATOM      2  C   UNL     1       1.855  -4.872  -7.381  0.00  0.00    +0.098 A 
ATOM      3  N   UNL     1       2.492  -5.229  -8.477  0.00  0.00    -0.168 NA
ATOM      4  N   UNL     1       3.283  -6.346  -8.181  0.00  0.00    -0.235 N 
ATOM      5  C   UNL     1       3.109  -6.650  -6.869  0.00  0.00    +0.221 A 
ATOM      6  C   UNL     1       4.152  -7.059  -9.121  0.00  0.00    +0.176 C 
ENDROOT
BRANCH   2   7
ATOM      7  C   UNL     1       0.910  -3.735  -7.255  0.00  0.00    +0.002 A 
ATOM      8  C   UNL     1      -0.269  -3.883  -6.527  0.00  0.00    +0.010 A 
ATOM      9  C   UNL     1      -1.144  -2.822  -6.412  0.00  0.00    +0.001 A 
ATOM     10  C   UNL     1      -0.853  -1.613  -7.018  0.00  0.00    +0.000 A 
ATOM     11  C   UNL     1       0.316  -1.461  -7.741  0.00  0.00    +0.001 A 
ATOM     12  C   UNL     1       1.202  -2.513  -7.857  0.00  0.00    +0.010 A 
ENDBRANCH   2   7
BRANCH   1  13
ATOM     13  C   UNL     1       1.736  -5.717  -4.927  0.00  0.00    -0.035 C 
BRANCH  13  14
ATOM     14  N   UNL     1       2.172  -4.465  -4.294  0.00  0.00    +0.384 N 
ATOM     15  H   UNL     1       1.895  -3.683  -4.870  0.00  0.00    -0.081 HD
BRANCH  14  16
ATOM     16  C   UNL     1       1.548  -4.342  -2.970  0.00  0.00    -0.047 C 
BRANCH  16  17
ATOM     17  C   UNL     1       1.863  -2.965  -2.383  0.00  0.00    +0.098 C 
BRANCH  17  18
ATOM     18  O   UNL     1       3.261  -2.877  -2.100  0.00  0.00    -0.394 OA
ATOM     19  H   UNL     1       3.577  -3.536  -1.466  0.00  0.00    +0.210 HD
ENDBRANCH  17  18
BRANCH  17  20
ATOM     20  C   UNL     1       1.068  -2.767  -1.091  0.00  0.00    +0.029 C 
BRANCH  20  21
ATOM     21  C   UNL     1       1.286  -1.345  -0.571  0.00  0.00    +0.002 C 
BRANCH  21  23
ATOM     22  C   UNL     1       0.709   0.276   1.241  0.00  0.00    +0.004 C 
ATOM     23  C   UNL     1       0.490  -1.146   0.721  0.00  0.00    -0.003 C 
ENDBRANCH  21  23
ENDBRANCH  20  21
ENDBRANCH  17  20
ENDBRANCH  16  17
ENDBRANCH  14  16
BRANCH  14  24
ATOM     24  C   UNL     1       3.634  -4.473  -4.149  0.00  0.00    -0.075 C 
BRANCH  24  25
ATOM     25  C   UNL     1       4.042  -5.567  -3.161  0.00  0.00    -0.028 C 
ATOM     26  C   UNL     1       4.929  -6.698  -3.686  0.00  0.00    +0.002 C 
ATOM     27  C   UNL     1       5.514  -5.637  -2.752  0.00  0.00    +0.002 C 
ENDBRANCH  24  25
ENDBRANCH  14  24
ENDBRANCH  13  14
ENDBRANCH   1  13
BRANCH   5  28
ATOM     28  O   UNL     1       3.707  -7.665  -6.196  0.00  0.00    -0.437 OA
BRANCH  28  29
ATOM     29  C   UNL     1       3.139  -8.898  -6.264  0.00  0.00    +0.149 A 
ATOM     30  C   UNL     1       2.009  -9.100  -7.044  0.00  0.00    +0.048 A 
ATOM     31  C   UNL     1       1.433 -10.354  -7.111  0.00  0.00    +0.004 A 
ATOM     32  C   UNL     1       1.980 -11.407  -6.401  0.00  0.00    +0.002 A 
ATOM     33  C   UNL     1       3.105 -11.209  -5.623  0.00  0.00    +0.024 A 
ATOM     34  C   UNL     1       3.690  -9.958  -5.557  0.00  0.00    +0.083 A 
ATOM     35 CL   UNL     1       5.108  -9.711  -4.586  0.00  0.00    -0.080 Cl
ENDBRANCH  28  29
ENDBRANCH   5  28
TORSDOF 13
