REMARK  Name = ZINC30982896
REMARK  11 active torsions:
REMARK  status: ('A' for Active; 'I' for Inactive)
REMARK    1  A    between atoms: C_1  and  C_2
REMARK    2  A    between atoms: C_2  and  C_4
REMARK    3  A    between atoms: C_2  and  N_14
REMARK    4  A    between atoms: C_7  and  C_10
REMARK    5  A    between atoms: C_10  and  C_11
REMARK    6  A    between atoms: C_10  and  C_12
REMARK    7  A    between atoms: C_10  and  C_13
REMARK    8  A    between atoms: C_15  and  C_17
REMARK    9  A    between atoms: N_20  and  C_23
REMARK   10  A    between atoms: C_23  and  C_24
REMARK   11  A    between atoms: C_26  and  C_29
REMARK                            x       y       z     vdW  Elec       q    Type
REMARK                         _______ _______ _______ _____ _____    ______ ____
ROOT
ATOM      1  C   UNL     1      -1.741   5.215   0.626  0.00  0.00    +0.071 C 
ATOM      2  C   UNL     1      -1.868   5.717   2.067  0.00  0.00    -0.006 C 
ATOM      3  C   UNL     1      -1.949   7.246   2.065  0.00  0.00    -0.077 C 
ATOM      4  N   UNL     1      -3.110   7.674   1.274  0.00  0.00    +0.386 N 
ATOM      5  C   UNL     1      -2.988   7.244  -0.125  0.00  0.00    -0.077 C 
ATOM      6  C   UNL     1      -2.938   5.715  -0.187  0.00  0.00    -0.006 C 
ATOM      7  H   UNL     1      -4.002   7.188   1.698  0.00  0.00    -0.081 HD
ENDROOT
BRANCH   1   9
ATOM      8  N   UNL     1      -0.749   3.044   1.275  0.00  0.00    -0.309 N 
ATOM      9  C   UNL     1      -1.720   3.708   0.618  0.00  0.00    +0.216 C 
ATOM     10  O   UNL     1      -2.578   3.094   0.021  0.00  0.00    -0.276 OA
ATOM     11  H   UNL     1       0.029   3.602   1.817  0.00  0.00    +0.149 HD
BRANCH   8  13
ATOM     12  C   UNL     1      -0.013   1.086   0.008  0.00  0.00    +0.033 C 
ATOM     13  C   UNL     1      -0.729   1.579   1.267  0.00  0.00    +0.100 C 
BRANCH  13  14
ATOM     14  C   UNL     1       0.000   1.080   2.488  0.00  0.00    -0.027 A 
ATOM     15  C   UNL     1       1.144   1.724   2.921  0.00  0.00    +0.006 A 
ATOM     16  C   UNL     1       1.810   1.269   4.044  0.00  0.00    +0.004 A 
ATOM     17  C   UNL     1       1.338   0.164   4.727  0.00  0.00    -0.042 A 
ATOM     18  C   UNL     1       0.197  -0.483   4.290  0.00  0.00    +0.004 A 
ATOM     19  C   UNL     1      -0.472  -0.025   3.171  0.00  0.00    +0.006 A 
BRANCH  17  20
ATOM     20  C   UNL     1       2.067  -0.336   5.947  0.00  0.00    -0.013 C 
ATOM     21  C   UNL     1       2.526  -1.777   5.713  0.00  0.00    +0.015 C 
ATOM     22  C   UNL     1       3.285   0.551   6.212  0.00  0.00    +0.015 C 
ATOM     23  C   UNL     1       1.130  -0.290   7.156  0.00  0.00    +0.015 C 
ENDBRANCH  17  20
ENDBRANCH  13  14
ENDBRANCH   8  13
ENDBRANCH   1   9
BRANCH   4  24
ATOM     24  C   UNL     1      -3.301   9.128   1.363  0.00  0.00    +0.022 C 
BRANCH  24  25
ATOM     25  C   UNL     1      -3.665   9.501   2.777  0.00  0.00    +0.211 A 
ATOM     26  N   UNL     1      -2.833   9.813   3.738  0.00  0.00    -0.193 NA
ATOM     27  C   UNL     1      -3.605  10.072   4.818  0.00  0.00    +0.202 A 
ATOM     28  N   UNL     1      -4.849   9.904   4.452  0.00  0.00    -0.056 NA
ATOM     29  O   UNL     1      -4.900   9.581   3.284  0.00  0.00    -0.340 OA
BRANCH  27  30
ATOM     30  C   UNL     1      -3.130  10.472   6.165  0.00  0.00    +0.023 A 
ATOM     31  C   UNL     1      -1.765  10.607   6.413  0.00  0.00    +0.014 A 
ATOM     32  C   UNL     1      -1.328  10.984   7.667  0.00  0.00    +0.039 A 
ATOM     33  C   UNL     1      -2.243  11.217   8.681  0.00  0.00    +0.123 A 
ATOM     34  C   UNL     1      -3.600  11.079   8.440  0.00  0.00    +0.039 A 
ATOM     35  C   UNL     1      -4.046  10.708   7.188  0.00  0.00    +0.014 A 
ATOM     36  F   UNL     1      -1.810  11.581   9.908  0.00  0.00    -0.205 F 
ENDBRANCH  27  30
ENDBRANCH  24  25
ENDBRANCH   4  24
TORSDOF 7
