REMARK  Name = ZINC35702692
REMARK  7 active torsions:
REMARK  status: ('A' for Active; 'I' for Inactive)
REMARK    1  A    between atoms: C_4  and  C_7
REMARK    2  A    between atoms: C_7  and  C_8
REMARK    3  A    between atoms: C_8  and  N_9
REMARK    4  A    between atoms: N_9  and  C_10
REMARK    5  A    between atoms: C_10  and  C_11
REMARK    6  A    between atoms: C_22  and  C_25
REMARK    7  A    between atoms: C_28  and  C_31
REMARK                            x       y       z     vdW  Elec       q    Type
REMARK                         _______ _______ _______ _____ _____    ______ ____
ROOT
ATOM      1  C   UNL     1       7.365  -2.770   2.632  0.00  0.00    +0.199 C 
ATOM      2  O   UNL     1       7.776  -3.221   1.584  0.00  0.00    -0.278 OA
ATOM      3  N   UNL     1       7.965  -3.105   3.792  0.00  0.00    -0.300 N 
ATOM      4  C   UNL     1       7.474  -2.571   5.070  0.00  0.00    +0.126 C 
ATOM      5  C   UNL     1       7.169  -3.747   6.007  0.00  0.00    +0.125 C 
ATOM      6  N   UNL     1       8.327  -4.652   6.016  0.00  0.00    -0.311 N 
ATOM      7  C   UNL     1       8.818  -5.186   4.738  0.00  0.00    +0.125 C 
ATOM      8  C   UNL     1       9.119  -4.016   3.801  0.00  0.00    +0.126 C 
ATOM      9  C   UNL     1       8.946  -4.998   7.211  0.00  0.00    +0.144 A 
ATOM     10  C   UNL     1       8.347  -4.668   8.429  0.00  0.00    +0.047 A 
ATOM     11  C   UNL     1       9.000  -5.032   9.592  0.00  0.00    +0.033 A 
ATOM     12  C   UNL     1      10.220  -5.709   9.477  0.00  0.00    +0.093 A 
ATOM     13  N   UNL     1      10.712  -5.979   8.276  0.00  0.00    -0.147 NA
ATOM     14  N   UNL     1      10.102  -5.645   7.197  0.00  0.00    -0.134 NA
ENDROOT
BRANCH  12  15
ATOM     15  C   UNL     1      10.959  -6.121  10.694  0.00  0.00    +0.002 A 
ATOM     16  C   UNL     1      10.437  -5.840  11.956  0.00  0.00    +0.010 A 
ATOM     17  C   UNL     1      11.124  -6.223  13.087  0.00  0.00    +0.009 A 
ATOM     18  C   UNL     1      12.342  -6.892  12.969  0.00  0.00    -0.018 A 
ATOM     19  C   UNL     1      12.865  -7.173  11.707  0.00  0.00    +0.009 A 
ATOM     20  C   UNL     1      12.175  -6.795  10.576  0.00  0.00    +0.010 A 
BRANCH  18  21
ATOM     21  C   UNL     1      13.082  -7.304  14.186  0.00  0.00    -0.018 A 
ATOM     22  C   UNL     1      12.560  -7.029  15.449  0.00  0.00    +0.008 A 
ATOM     23  C   UNL     1      13.253  -7.415  16.578  0.00  0.00    +0.001 A 
ATOM     24  C   UNL     1      14.464  -8.073  16.459  0.00  0.00    +0.000 A 
ATOM     25  C   UNL     1      14.987  -8.349  15.208  0.00  0.00    +0.001 A 
ATOM     26  C   UNL     1      14.300  -7.973  14.072  0.00  0.00    +0.008 A 
ENDBRANCH  18  21
ENDBRANCH  12  15
BRANCH   1  27
ATOM     27  C   UNL     1       6.183  -1.836   2.638  0.00  0.00    +0.015 C 
BRANCH  27  28
ATOM     28  N   UNL     1       5.713  -1.631   1.262  0.00  0.00    +0.385 N 
ATOM     29  H   UNL     1       5.440  -2.517   0.864  0.00  0.00    -0.085 HD
ATOM     30  H   UNL     1       6.457  -1.230   0.709  0.00  0.00    -0.085 HD
BRANCH  28  31
ATOM     31  C   UNL     1       4.561  -0.720   1.267  0.00  0.00    -0.077 C 
BRANCH  31  32
ATOM     32  C   UNL     1       4.072  -0.506  -0.167  0.00  0.00    +0.016 C 
BRANCH  32  36
ATOM     33  C   UNL     1       0.721   2.143  -0.152  0.00  0.00    +0.000 A 
ATOM     34  C   UNL     1       2.002   2.649  -0.266  0.00  0.00    +0.000 A 
ATOM     35  C   UNL     1       3.087   1.792  -0.270  0.00  0.00    +0.003 A 
ATOM     36  C   UNL     1       2.890   0.428  -0.161  0.00  0.00    -0.049 A 
ATOM     37  C   UNL     1       1.609  -0.078  -0.046  0.00  0.00    +0.003 A 
ATOM     38  C   UNL     1       0.525   0.779  -0.043  0.00  0.00    +0.000 A 
ENDBRANCH  32  36
ENDBRANCH  31  32
ENDBRANCH  28  31
ENDBRANCH  27  28
ENDBRANCH   1  27
TORSDOF 7
