REMARK  Name = ZINC09374435
REMARK  16 active torsions:
REMARK  status: ('A' for Active; 'I' for Inactive)
REMARK    1  A    between atoms: C_1  and  C_2
REMARK    2  A    between atoms: C_2  and  C_3
REMARK    3  A    between atoms: C_3  and  O_4
REMARK    4  A    between atoms: O_4  and  C_5
REMARK    5  A    between atoms: C_8  and  C_14
REMARK    6  A    between atoms: C_10  and  O_11
REMARK    7  A    between atoms: O_11  and  C_12
REMARK    8  A    between atoms: C_12  and  C_13
REMARK    9  A    between atoms: C_16  and  C_27
REMARK   10  A    between atoms: N_20  and  C_21
REMARK   11  A    between atoms: C_21  and  C_22
REMARK   12  A    between atoms: C_22  and  C_23
REMARK   13  A    between atoms: C_23  and  O_24
REMARK   14  A    between atoms: O_24  and  C_25
REMARK   15  A    between atoms: C_27  and  C_29
REMARK   16  A    between atoms: C_36  and  C_39
REMARK                            x       y       z     vdW  Elec       q    Type
REMARK                         _______ _______ _______ _____ _____    ______ ____
ROOT
ATOM      1  C   UNL     1      -1.439  -1.409  -0.036  0.00  0.00    +0.145 C 
ATOM      2  C   UNL     1      -2.755  -0.676   0.088  0.00  0.00    +0.076 C 
ATOM      3  C   UNL     1      -3.732  -1.600  -0.058  0.00  0.00    +0.249 C 
ATOM      4  C   UNL     1      -3.118  -2.925  -0.286  0.00  0.00    +0.288 C 
ATOM      5  O   UNL     1      -3.732  -3.959  -0.456  0.00  0.00    -0.266 OA
ATOM      6  N   UNL     1      -1.776  -2.818  -0.270  0.00  0.00    -0.283 N 
ATOM      7  O   UNL     1      -5.061  -1.351  -0.007  0.00  0.00    -0.282 OA
ENDROOT
BRANCH   1  11
ATOM      8  C   UNL     1       0.808  -1.016   3.580  0.00  0.00    +0.162 A 
ATOM      9  C   UNL     1      -0.331  -1.803   3.552  0.00  0.00    +0.050 A 
ATOM     10  C   UNL     1      -1.059  -1.924   2.382  0.00  0.00    +0.009 A 
ATOM     11  C   UNL     1      -0.646  -1.269   1.237  0.00  0.00    -0.019 A 
ATOM     12  C   UNL     1       0.490  -0.481   1.259  0.00  0.00    +0.055 A 
ATOM     13  C   UNL     1       1.221  -0.352   2.429  0.00  0.00    +0.162 A 
BRANCH   8  14
ATOM     14  O   UNL     1       1.522  -0.891   4.731  0.00  0.00    -0.488 OA
BRANCH  14  15
ATOM     15  C   UNL     1       1.039  -1.601   5.874  0.00  0.00    +0.229 C 
BRANCH  15  17
ATOM     16  C   UNL     1       1.448  -2.102   8.287  0.00  0.00    +0.007 C 
ATOM     17  C   UNL     1       1.965  -1.341   7.064  0.00  0.00    +0.038 C 
ENDBRANCH  15  17
ENDBRANCH  14  15
ENDBRANCH   8  14
BRANCH  13  18
ATOM     18  O   UNL     1       2.339   0.422   2.452  0.00  0.00    -0.489 OA
BRANCH  18  19
ATOM     19  C   UNL     1       2.767   0.981   1.209  0.00  0.00    +0.226 C 
ATOM     20  C   UNL     1       4.095   1.714   1.409  0.00  0.00    +0.048 C 
ENDBRANCH  18  19
ENDBRANCH  13  18
ENDBRANCH   1  11
BRANCH   2  21
ATOM     21  C   UNL     1      -2.937   0.759   0.327  0.00  0.00    +0.195 C 
ATOM     22  O   UNL     1      -3.433   1.145   1.369  0.00  0.00    -0.287 OA
BRANCH  21  23
ATOM     23  C   UNL     1      -2.519   1.737  -0.697  0.00  0.00    +0.023 A 
ATOM     24  C   UNL     1      -1.891   1.305  -1.869  0.00  0.00    +0.015 A 
ATOM     25  C   UNL     1      -1.510   2.216  -2.826  0.00  0.00    +0.046 A 
ATOM     26  C   UNL     1      -1.740   3.580  -2.634  0.00  0.00    +0.124 A 
ATOM     27  C   UNL     1      -2.356   4.005  -1.460  0.00  0.00    -0.002 A 
ATOM     28  C   UNL     1      -2.743   3.104  -0.500  0.00  0.00    +0.019 A 
ATOM     29  C   UNL     1      -2.454   5.517  -1.534  0.00  0.00    +0.083 C 
ATOM     30  C   UNL     1      -1.467   5.846  -2.679  0.00  0.00    +0.175 C 
ATOM     31  O   UNL     1      -1.456   4.632  -3.448  0.00  0.00    -0.488 OA
ATOM     32  C   UNL     1      -1.983   7.015  -3.519  0.00  0.00    +0.052 C 
ENDBRANCH  21  23
ENDBRANCH   2  21
BRANCH   6  33
ATOM     33  C   UNL     1      -0.822  -3.914  -0.454  0.00  0.00    +0.111 C 
BRANCH  33  34
ATOM     34  C   UNL     1      -0.487  -4.532   0.905  0.00  0.00    +0.047 C 
BRANCH  34  35
ATOM     35  C   UNL     1       0.510  -5.676   0.713  0.00  0.00    +0.161 C 
BRANCH  35  36
ATOM     36  O   UNL     1       0.822  -6.254   1.983  0.00  0.00    -0.383 OA
ATOM     37  C   UNL     1       1.750  -7.338   1.915  0.00  0.00    +0.193 C 
ENDBRANCH  35  36
ENDBRANCH  34  35
ENDBRANCH  33  34
ENDBRANCH   6  33
TORSDOF 12
