REMARK  Name = ZINC41584452
REMARK  11 active torsions:
REMARK  status: ('A' for Active; 'I' for Inactive)
REMARK    1  A    between atoms: C_1  and  C_2
REMARK    2  A    between atoms: C_2  and  C_3
REMARK    3  A    between atoms: C_3  and  N_4
REMARK    4  A    between atoms: N_4  and  C_5
REMARK    5  A    between atoms: N_4  and  C_8
REMARK    6  A    between atoms: C_5  and  C_6
REMARK    7  A    between atoms: C_6  and  C_7
REMARK    8  A    between atoms: C_8  and  C_9
REMARK    9  A    between atoms: C_10  and  O_28
REMARK   10  A    between atoms: C_12  and  C_27
REMARK   11  A    between atoms: C_17  and  C_18
REMARK                            x       y       z     vdW  Elec       q    Type
REMARK                         _______ _______ _______ _____ _____    ______ ____
ROOT
ATOM      1  C   UNL     1       3.506  -1.899  -2.119  0.00  0.00    +0.020 A 
ATOM      2  C   UNL     1       3.968  -0.784  -2.801  0.00  0.00    +0.122 A 
ATOM      3  C   UNL     1       5.284  -0.356  -2.650  0.00  0.00    +0.050 A 
ATOM      4  C   UNL     1       6.135  -1.034  -1.824  0.00  0.00    -0.033 A 
ATOM      5  C   UNL     1       5.684  -2.158  -1.131  0.00  0.00    +0.071 A 
ATOM      6  C   UNL     1       4.357  -2.596  -1.271  0.00  0.00    +0.145 A 
ATOM      7  O   UNL     1       4.154  -3.689  -0.503  0.00  0.00    -0.451 OA
ATOM      8  C   UNL     1       5.270  -4.041   0.176  0.00  0.00    +0.176 C 
ATOM      9  C   UNL     1       5.393  -5.089   1.028  0.00  0.00    +0.058 C 
ATOM     10  C   UNL     1       6.331  -3.088  -0.188  0.00  0.00    +0.232 C 
ATOM     11  O   UNL     1       7.482  -3.064   0.212  0.00  0.00    -0.283 OA
ATOM     12  C   UNL     1       7.560  -0.569  -1.662  0.00  0.00    +0.045 C 
ENDROOT
BRANCH   9  13
ATOM     13  C   UNL     1       6.614  -5.246   1.829  0.00  0.00    -0.021 A 
ATOM     14  C   UNL     1       7.240  -4.124   2.385  0.00  0.00    +0.009 A 
ATOM     15  C   UNL     1       8.386  -4.280   3.135  0.00  0.00    +0.016 A 
ATOM     16  C   UNL     1       8.918  -5.542   3.340  0.00  0.00    +0.018 A 
ATOM     17  C   UNL     1       8.305  -6.658   2.793  0.00  0.00    +0.016 A 
ATOM     18  C   UNL     1       7.155  -6.519   2.046  0.00  0.00    +0.009 A 
ATOM     19 BR   UNL     1      10.491  -5.744   4.370  0.00  0.00    -0.050 Br
ENDBRANCH   9  13
BRANCH   2  20
ATOM     20  O   UNL     1       3.130  -0.104  -3.625  0.00  0.00    -0.506 OA
ATOM     21  H   UNL     1       2.642   0.607  -3.189  0.00  0.00    +0.292 HD
ENDBRANCH   2  20
BRANCH   1  22
ATOM     22  C   UNL     1       2.079  -2.351  -2.293  0.00  0.00    -0.036 C 
BRANCH  22  23
ATOM     23  N   UNL     1       1.230  -1.686  -1.296  0.00  0.00    +0.383 N 
ATOM     24  H   UNL     1       1.597  -1.859  -0.372  0.00  0.00    -0.081 HD
BRANCH  23  25
ATOM     25  C   UNL     1       1.214  -0.239  -1.553  0.00  0.00    -0.079 C 
BRANCH  25  27
ATOM     26  C   UNL     1       0.514   1.980  -0.644  0.00  0.00    +0.002 C 
ATOM     27  C   UNL     1       0.418   0.465  -0.452  0.00  0.00    -0.022 C 
ENDBRANCH  25  27
ENDBRANCH  23  25
BRANCH  23  28
ATOM     28  C   UNL     1      -0.138  -2.215  -1.387  0.00  0.00    -0.079 C 
BRANCH  28  29
ATOM     29  C   UNL     1      -0.142  -3.689  -0.976  0.00  0.00    -0.022 C 
ATOM     30  C   UNL     1      -1.583  -4.203  -0.940  0.00  0.00    +0.002 C 
ENDBRANCH  28  29
ENDBRANCH  23  28
ENDBRANCH  22  23
ENDBRANCH   1  22
TORSDOF 8
