REMARK  Name = ZINC35099452
REMARK  13 active torsions:
REMARK  status: ('A' for Active; 'I' for Inactive)
REMARK    1  A    between atoms: C_1  and  C_2
REMARK    2  A    between atoms: C_2  and  C_40
REMARK    3  A    between atoms: C_7  and  C_11
REMARK    4  A    between atoms: C_11  and  N_12
REMARK    5  A    between atoms: N_12  and  C_13
REMARK    6  A    between atoms: N_12  and  C_22
REMARK    7  A    between atoms: C_13  and  C_14
REMARK    8  A    between atoms: C_14  and  C_15
REMARK    9  A    between atoms: C_15  and  C_16
REMARK   10  A    between atoms: C_22  and  C_23
REMARK   11  A    between atoms: C_23  and  N_24
REMARK   12  A    between atoms: N_32  and  C_33
REMARK   13  A    between atoms: C_33  and  C_34
REMARK                            x       y       z     vdW  Elec       q    Type
REMARK                         _______ _______ _______ _____ _____    ______ ____
ROOT
ATOM      1  N   UNL     1       1.723  -0.625   4.295  0.00  0.00    +0.383 N 
ATOM      2  H   UNL     1       0.795  -0.860   4.614  0.00  0.00    -0.081 HD
ENDROOT
BRANCH   1   3
ATOM      3  C   UNL     1       1.665   0.594   3.477  0.00  0.00    -0.047 C 
BRANCH   3   9
ATOM      4  C   UNL     1       3.842   3.396   1.867  0.00  0.00    +0.012 C 
ATOM      5  C   UNL     1       4.779   2.709   2.862  0.00  0.00    -0.025 C 
ATOM      6  C   UNL     1       5.567   1.526   2.264  0.00  0.00    -0.000 C 
ATOM      7  C   UNL     1       4.747   0.818   1.177  0.00  0.00    +0.031 C 
ATOM      8  C   UNL     1       3.370   0.497   1.706  0.00  0.00    -0.029 C 
ATOM      9  C   UNL     1       3.032   0.887   2.914  0.00  0.00    -0.086 C 
ATOM     10  C   UNL     1       4.089   1.646   3.738  0.00  0.00    +0.019 C 
ATOM     11  C   UNL     1       5.433   0.882   3.655  0.00  0.00    +0.012 C 
ATOM     12  C   UNL     1       5.642   3.696   3.651  0.00  0.00    +0.012 C 
ENDBRANCH   3   9
ENDBRANCH   1   3
BRANCH   1  13
ATOM     13  C   UNL     1       2.597  -0.396   5.453  0.00  0.00    -0.078 C 
BRANCH  13  14
ATOM     14  C   UNL     1       1.975   0.669   6.359  0.00  0.00    -0.014 C 
BRANCH  14  15
ATOM     15  C   UNL     1       2.885   0.907   7.566  0.00  0.00    +0.033 C 
BRANCH  15  16
ATOM     16  C   UNL     1       2.272   1.956   8.457  0.00  0.00    -0.047 A 
ATOM     17  C   UNL     1       2.567   3.292   8.256  0.00  0.00    +0.003 A 
ATOM     18  C   UNL     1       2.006   4.254   9.074  0.00  0.00    +0.000 A 
ATOM     19  C   UNL     1       1.148   3.881  10.092  0.00  0.00    +0.000 A 
ATOM     20  C   UNL     1       0.852   2.546  10.293  0.00  0.00    +0.000 A 
ATOM     21  C   UNL     1       1.411   1.584   9.472  0.00  0.00    +0.003 A 
ENDBRANCH  15  16
ENDBRANCH  14  15
ENDBRANCH  13  14
ENDBRANCH   1  13
BRANCH   1  22
ATOM     22  C   UNL     1       2.258  -1.730   3.488  0.00  0.00    -0.063 C 
BRANCH  22  23
ATOM     23  C   UNL     1       1.272  -2.068   2.368  0.00  0.00    +0.066 C 
BRANCH  23  24
ATOM     24  N   UNL     1       1.859  -3.092   1.492  0.00  0.00    -0.301 NA
ATOM     25  C   UNL     1       1.907  -4.396   2.166  0.00  0.00    +0.103 C 
ATOM     26  C   UNL     1       2.685  -5.388   1.295  0.00  0.00    +0.124 C 
ATOM     27  N   UNL     1       2.083  -5.404  -0.047  0.00  0.00    -0.283 N 
ATOM     28  C   UNL     1       1.875  -4.119  -0.731  0.00  0.00    +0.124 C 
ATOM     29  C   UNL     1       1.129  -3.176   0.220  0.00  0.00    +0.103 C 
ATOM     30  C   UNL     1       1.732  -6.565  -0.634  0.00  0.00    +0.303 C 
ATOM     31  O   UNL     1       1.822  -7.609  -0.018  0.00  0.00    -0.253 OA
ATOM     32  N   UNL     1       1.280  -6.568  -1.904  0.00  0.00    -0.295 N 
ATOM     33  H   UNL     1       1.278  -5.747  -2.420  0.00  0.00    +0.151 HD
BRANCH  32  34
ATOM     34  C   UNL     1       0.792  -7.812  -2.505  0.00  0.00    +0.141 C 
BRANCH  34  35
ATOM     35  C   UNL     1       0.349  -7.546  -3.920  0.00  0.00    -0.030 A 
ATOM     36  C   UNL     1      -0.958  -7.175  -4.176  0.00  0.00    +0.005 A 
ATOM     37  C   UNL     1      -1.365  -6.931  -5.475  0.00  0.00    +0.000 A 
ATOM     38  C   UNL     1      -0.465  -7.058  -6.516  0.00  0.00    +0.000 A 
ATOM     39  C   UNL     1       0.842  -7.428  -6.260  0.00  0.00    +0.000 A 
ATOM     40  C   UNL     1       1.250  -7.668  -4.961  0.00  0.00    +0.005 A 
ENDBRANCH  34  35
ENDBRANCH  32  34
ENDBRANCH  23  24
ENDBRANCH  22  23
ENDBRANCH   1  22
TORSDOF 11
