REMARK  Name = ZINC12433491
REMARK  10 active torsions:
REMARK  status: ('A' for Active; 'I' for Inactive)
REMARK    1  A    between atoms: C_1  and  C_2
REMARK    2  A    between atoms: C_6  and  C_8
REMARK    3  A    between atoms: C_8  and  C_9
REMARK    4  A    between atoms: C_9  and  N_10
REMARK    5  A    between atoms: C_11  and  C_13
REMARK    6  A    between atoms: C_13  and  C_14
REMARK    7  A    between atoms: C_21  and  C_22
REMARK    8  A    between atoms: C_21  and  N_62
REMARK    9  A    between atoms: C_26  and  O_28
REMARK   10  A    between atoms: O_28  and  C_29
REMARK                            x       y       z     vdW  Elec       q    Type
REMARK                         _______ _______ _______ _____ _____    ______ ____
ROOT
ATOM      1  C   UNL     1       2.601   1.980  -0.250  0.00  0.00    +0.028 C 
ATOM      2  C   UNL     1       1.375   2.847  -0.191  0.00  0.00    +0.200 C 
ATOM      3  O   UNL     1       1.514   4.052  -0.210  0.00  0.00    -0.278 OA
ATOM      4  N   UNL     1       0.138   2.346  -0.118  0.00  0.00    -0.318 N 
ATOM      5  C   UNL     1      -0.135   0.913  -0.053  0.00  0.00    +0.085 C 
ATOM      6  C   UNL     1       1.087   0.124  -0.526  0.00  0.00    -0.058 C 
ATOM      7  H   UNL     1      -0.612   2.961  -0.113  0.00  0.00    +0.149 HD
ATOM      8  N   UNL     1       2.265   0.621   0.212  0.00  0.00    +0.391 N 
ATOM      9  H   UNL     1       2.045   0.651   1.215  0.00  0.00    -0.080 HD
ENDROOT
BRANCH   1  10
ATOM     10  C   UNL     1       3.680   2.564   0.665  0.00  0.00    +0.089 C 
BRANCH  10  12
ATOM     11  N   UNL     1       3.917   3.149   3.057  0.00  0.00    -0.315 N 
ATOM     12  C   UNL     1       3.189   2.555   2.090  0.00  0.00    +0.212 C 
ATOM     13  O   UNL     1       2.140   2.014   2.366  0.00  0.00    -0.276 OA
ATOM     14  H   UNL     1       4.756   3.582   2.835  0.00  0.00    +0.149 HD
BRANCH  11  15
ATOM     15  C   UNL     1       3.440   3.140   4.442  0.00  0.00    +0.112 C 
BRANCH  15  16
ATOM     16  C   UNL     1       4.444   3.876   5.332  0.00  0.00    +0.093 C 
BRANCH  16  22
ATOM     17  C   UNL     1       1.517   4.508   9.349  0.00  0.00    +0.067 C 
ATOM     18  C   UNL     1       2.699   4.136   8.491  0.00  0.00    +0.056 A 
ATOM     19  C   UNL     1       3.848   3.583   8.924  0.00  0.00    +0.107 A 
ATOM     20  N   UNL     1       4.645   3.412   7.824  0.00  0.00    -0.348 N 
ATOM     21  H   UNL     1       5.566   3.024   7.813  0.00  0.00    +0.166 HD
ATOM     22  C   UNL     1       3.954   3.867   6.756  0.00  0.00    +0.109 A 
ATOM     23  N   UNL     1       2.793   4.303   7.164  0.00  0.00    -0.238 NA
ENDBRANCH  16  22
ENDBRANCH  15  16
ENDBRANCH  11  15
ENDBRANCH  10  12
ENDBRANCH   1  10
BRANCH   8  24
ATOM     24  C   UNL     1       3.417  -0.286   0.001  0.00  0.00    -0.042 C 
BRANCH  24  25
ATOM     25  C   UNL     1       3.211  -1.536   0.817  0.00  0.00    -0.060 A 
ATOM     26  C   UNL     1       2.557  -2.622   0.264  0.00  0.00    +0.002 A 
ATOM     27  C   UNL     1       2.366  -3.770   1.010  0.00  0.00    +0.004 A 
ATOM     28  C   UNL     1       2.828  -3.835   2.311  0.00  0.00    +0.046 A 
ATOM     29  C   UNL     1       3.485  -2.747   2.868  0.00  0.00    +0.129 A 
ATOM     30  C   UNL     1       3.680  -1.597   2.115  0.00  0.00    +0.048 A 
BRANCH  29  31
ATOM     31  O   UNL     1       3.941  -2.808   4.146  0.00  0.00    -0.456 OA
BRANCH  31  32
ATOM     32  C   UNL     1       3.229  -2.164   5.109  0.00  0.00    +0.128 A 
ATOM     33  C   UNL     1       2.025  -1.553   4.791  0.00  0.00    +0.046 A 
ATOM     34  C   UNL     1       1.302  -0.904   5.772  0.00  0.00    +0.004 A 
ATOM     35  C   UNL     1       1.782  -0.853   7.068  0.00  0.00    +0.000 A 
ATOM     36  C   UNL     1       2.984  -1.457   7.386  0.00  0.00    +0.004 A 
ATOM     37  C   UNL     1       3.709  -2.113   6.410  0.00  0.00    +0.046 A 
ENDBRANCH  31  32
ENDBRANCH  29  31
ENDBRANCH  24  25
ENDBRANCH   8  24
TORSDOF 9
