REMARK  Name = ZINC35747245
REMARK  11 active torsions:
REMARK  status: ('A' for Active; 'I' for Inactive)
REMARK    1  A    between atoms: C_1  and  C_2
REMARK    2  A    between atoms: C_7  and  C_8
REMARK    3  A    between atoms: C_17  and  C_19
REMARK    4  A    between atoms: C_19  and  N_20
REMARK    5  A    between atoms: N_20  and  C_21
REMARK    6  A    between atoms: N_20  and  C_29
REMARK    7  A    between atoms: C_21  and  C_22
REMARK    8  A    between atoms: C_22  and  C_24
REMARK    9  A    between atoms: C_22  and  O_28
REMARK   10  A    between atoms: C_24  and  C_25
REMARK   11  A    between atoms: C_25  and  C_26
REMARK                            x       y       z     vdW  Elec       q    Type
REMARK                         _______ _______ _______ _____ _____    ______ ____
ROOT
ATOM      1  C   UNL     1      -0.636   0.880   1.115  0.00  0.00    +0.004 A 
ATOM      2  C   UNL     1       0.454   0.464   1.803  0.00  0.00    +0.056 A 
ATOM      3  S   UNL     1       0.134   1.027   3.464  0.00  0.00    -0.076 S 
ATOM      4  C   UNL     1      -1.440   1.802   3.197  0.00  0.00    +0.116 A 
ATOM      5  C   UNL     1      -1.678   1.610   1.826  0.00  0.00    +0.080 A 
ATOM      6  C   UNL     1      -2.906   2.152   1.328  0.00  0.00    +0.260 A 
ATOM      7  O   UNL     1      -3.203   2.032   0.152  0.00  0.00    -0.267 OA
ATOM      8  N   UNL     1      -3.727   2.795   2.179  0.00  0.00    -0.312 N 
ATOM      9  H   UNL     1      -4.561   3.164   1.847  0.00  0.00    +0.170 HD
ATOM     10  C   UNL     1      -3.413   2.937   3.492  0.00  0.00    +0.094 A 
ATOM     11  N   UNL     1      -2.304   2.446   3.977  0.00  0.00    -0.229 NA
ENDROOT
BRANCH   1  18
ATOM     12  C   UNL     1      -0.638   3.079  -0.766  0.00  0.00    +0.044 C 
ATOM     13  C   UNL     1      -0.765   1.658  -1.251  0.00  0.00    -0.043 A 
ATOM     14  C   UNL     1      -0.878   1.395  -2.601  0.00  0.00    +0.004 A 
ATOM     15  C   UNL     1      -0.995   0.091  -3.047  0.00  0.00    +0.000 A 
ATOM     16  C   UNL     1      -0.999  -0.957  -2.144  0.00  0.00    +0.001 A 
ATOM     17  C   UNL     1      -0.887  -0.707  -0.792  0.00  0.00    +0.009 A 
ATOM     18  C   UNL     1      -0.763   0.605  -0.337  0.00  0.00    -0.014 A 
ENDBRANCH   1  18
BRANCH  10  19
ATOM     19  C   UNL     1      -4.364   3.665   4.406  0.00  0.00    -0.003 C 
BRANCH  19  20
ATOM     20  N   UNL     1      -3.811   3.690   5.767  0.00  0.00    +0.388 N 
ATOM     21  H   UNL     1      -3.608   2.748   6.065  0.00  0.00    -0.081 HD
BRANCH  20  22
ATOM     22  C   UNL     1      -2.575   4.484   5.779  0.00  0.00    -0.068 C 
ATOM     23  C   UNL     1      -1.274   3.761   6.132  0.00  0.00    -0.017 C 
ATOM     24  C   UNL     1      -1.907   4.729   7.134  0.00  0.00    -0.017 C 
ENDBRANCH  20  22
BRANCH  20  25
ATOM     25  C   UNL     1      -4.790   4.293   6.682  0.00  0.00    -0.046 C 
BRANCH  25  26
ATOM     26  C   UNL     1      -5.204   5.668   6.152  0.00  0.00    +0.098 C 
BRANCH  26  27
ATOM     27  O   UNL     1      -4.071   6.538   6.149  0.00  0.00    -0.394 OA
ATOM     28  H   UNL     1      -3.678   6.676   7.022  0.00  0.00    +0.210 HD
ENDBRANCH  26  27
BRANCH  26  29
ATOM     29  C   UNL     1      -6.295   6.253   7.051  0.00  0.00    +0.033 C 
BRANCH  29  30
ATOM     30  C   UNL     1      -6.797   7.569   6.452  0.00  0.00    +0.029 C 
BRANCH  30  31
ATOM     31  C   UNL     1      -7.872   8.145   7.337  0.00  0.00    -0.034 C 
ATOM     32  C   UNL     1      -7.756   9.366   7.798  0.00  0.00    +0.004 C 
ENDBRANCH  30  31
ENDBRANCH  29  30
ENDBRANCH  26  29
ENDBRANCH  25  26
ENDBRANCH  20  25
ENDBRANCH  19  20
ENDBRANCH  10  19
TORSDOF 10
