REMARK  Name = ZINC63489295
REMARK  11 active torsions:
REMARK  status: ('A' for Active; 'I' for Inactive)
REMARK    1  A    between atoms: C_1  and  C_2
REMARK    2  A    between atoms: C_2  and  C_3
REMARK    3  A    between atoms: C_6  and  N_9
REMARK    4  A    between atoms: C_10  and  C_12
REMARK    5  A    between atoms: C_12  and  S_13
REMARK    6  A    between atoms: S_13  and  C_14
REMARK    7  A    between atoms: C_18  and  C_29
REMARK    8  A    between atoms: N_20  and  C_21
REMARK    9  A    between atoms: C_24  and  O_27
REMARK   10  A    between atoms: O_27  and  C_28
REMARK   11  A    between atoms: C_29  and  C_30
REMARK                            x       y       z     vdW  Elec       q    Type
REMARK                         _______ _______ _______ _____ _____    ______ ____
ROOT
ATOM      1  C   UNL     1      -9.801  -3.116  -2.602  0.00  0.00    +0.217 C 
ATOM      2  N   UNL     1     -10.523  -2.137  -1.758  0.00  0.00    -0.226 NA
ATOM      3  N   UNL     1     -11.442  -2.955  -0.952  0.00  0.00    -0.234 NA
ATOM      4  C   UNL     1     -10.637  -4.170  -0.659  0.00  0.00    +0.163 C 
ATOM      5  N   UNL     1      -9.875  -4.411  -1.902  0.00  0.00    -0.287 N 
ATOM      6  H   UNL     1      -9.882  -1.626  -1.169  0.00  0.00    +0.143 HD
ATOM      7  H   UNL     1     -12.272  -3.189  -1.476  0.00  0.00    +0.143 HD
ENDROOT
BRANCH   5   8
ATOM      8  C   UNL     1      -9.330  -5.627  -2.330  0.00  0.00    +0.033 A 
ATOM      9  C   UNL     1      -9.490  -6.769  -1.558  0.00  0.00    +0.027 A 
ATOM     10  C   UNL     1      -8.953  -7.969  -1.981  0.00  0.00    +0.047 A 
ATOM     11  C   UNL     1      -8.254  -8.033  -3.177  0.00  0.00    +0.120 A 
ATOM     12  C   UNL     1      -8.093  -6.892  -3.949  0.00  0.00    +0.047 A 
ATOM     13  C   UNL     1      -8.635  -5.692  -3.530  0.00  0.00    +0.027 A 
BRANCH  11  14
ATOM     14  O   UNL     1      -7.725  -9.215  -3.593  0.00  0.00    -0.495 OA
ATOM     15  C   UNL     1      -7.017  -9.208  -4.834  0.00  0.00    +0.277 C 
ENDBRANCH  11  14
ENDBRANCH   5   8
BRANCH   1  16
ATOM     16  S   UNL     1      -8.069  -2.613  -2.797  0.00  0.00    -0.112 S 
BRANCH  16  17
ATOM     17  C   UNL     1      -7.446  -2.518  -1.097  0.00  0.00    +0.168 C 
BRANCH  17  19
ATOM     18  N   UNL     1      -5.320  -1.968   0.042  0.00  0.00    -0.285 N 
ATOM     19  C   UNL     1      -5.997  -2.104  -1.115  0.00  0.00    +0.227 C 
ATOM     20  O   UNL     1      -5.440  -1.894  -2.172  0.00  0.00    -0.275 OA
ATOM     21  H   UNL     1      -5.742  -2.209   0.882  0.00  0.00    +0.155 HD
BRANCH  18  25
ATOM     22  C   UNL     1      -1.419  -0.507   0.015  0.00  0.00    -0.048 A 
ATOM     23  C   UNL     1      -2.333  -0.051  -0.916  0.00  0.00    +0.005 A 
ATOM     24  C   UNL     1      -3.627  -0.533  -0.910  0.00  0.00    +0.023 A 
ATOM     25  C   UNL     1      -4.010  -1.478   0.033  0.00  0.00    +0.033 A 
ATOM     26  C   UNL     1      -3.089  -1.935   0.967  0.00  0.00    +0.023 A 
ATOM     27  C   UNL     1      -1.795  -1.452   0.952  0.00  0.00    +0.005 A 
BRANCH  22  29
ATOM     28  C   UNL     1       0.858  -0.854  -0.904  0.00  0.00    +0.009 C 
ATOM     29  C   UNL     1      -0.007   0.021   0.005  0.00  0.00    +0.032 C 
ENDBRANCH  22  29
ENDBRANCH  18  25
ENDBRANCH  17  19
ENDBRANCH  16  17
ENDBRANCH   1  16
BRANCH   4  30
ATOM     30  C   UNL     1      -9.688  -3.913   0.513  0.00  0.00    +0.093 C 
BRANCH  30  31
ATOM     31  C   UNL     1     -10.490  -3.705   1.772  0.00  0.00    +0.029 A 
ATOM     32  N   UNL     1     -10.990  -2.467   2.071  0.00  0.00    -0.311 N 
ATOM     33  C   UNL     1     -11.708  -2.270   3.193  0.00  0.00    +0.327 A 
ATOM     34  O   UNL     1     -12.143  -1.162   3.439  0.00  0.00    -0.247 OA
ATOM     35  N   UNL     1     -11.951  -3.283   4.045  0.00  0.00    -0.275 N 
ATOM     36  C   UNL     1     -11.475  -4.518   3.786  0.00  0.00    +0.254 A 
ATOM     37  O   UNL     1     -11.694  -5.435   4.557  0.00  0.00    -0.268 OA
ATOM     38  C   UNL     1     -10.723  -4.740   2.608  0.00  0.00    +0.091 A 
ATOM     39  H   UNL     1     -12.470  -3.124   4.849  0.00  0.00    +0.173 HD
ATOM     40  H   UNL     1     -10.826  -1.724   1.470  0.00  0.00    +0.170 HD
ENDBRANCH  30  31
ENDBRANCH   4  30
TORSDOF 9
