REMARK  Name = ZINC39573224
REMARK  12 active torsions:
REMARK  status: ('A' for Active; 'I' for Inactive)
REMARK    1  A    between atoms: C_1  and  C_2
REMARK    2  A    between atoms: C_2  and  O_3
REMARK    3  A    between atoms: O_3  and  C_4
REMARK    4  A    between atoms: C_4  and  C_6
REMARK    5  A    between atoms: C_12  and  C_14
REMARK    6  A    between atoms: C_14  and  C_16
REMARK    7  A    between atoms: C_14  and  S_17
REMARK    8  A    between atoms: S_17  and  C_18
REMARK    9  A    between atoms: C_21  and  C_30
REMARK   10  A    between atoms: N_22  and  C_23
REMARK   11  A    between atoms: C_23  and  C_24
REMARK   12  A    between atoms: C_30  and  N_31
REMARK                            x       y       z     vdW  Elec       q    Type
REMARK                         _______ _______ _______ _____ _____    ______ ____
ROOT
ATOM      1  C   UNL     1      -6.648  -8.882   1.962  0.00  0.00    +0.193 A 
ATOM      2  N   UNL     1      -5.894  -9.443   1.046  0.00  0.00    -0.123 NA
ATOM      3  N   UNL     1      -6.013 -10.721   1.105  0.00  0.00    -0.135 NA
ATOM      4  C   UNL     1      -6.843 -11.050   2.054  0.00  0.00    +0.118 A 
ATOM      5  N   UNL     1      -7.273  -9.890   2.638  0.00  0.00    -0.303 N 
ENDROOT
BRANCH   1   6
ATOM      6  S   UNL     1      -6.816  -7.155   2.267  0.00  0.00    -0.074 S 
BRANCH   6   7
ATOM      7  C   UNL     1      -5.732  -6.384   1.034  0.00  0.00    +0.137 C 
ATOM      8  C   UNL     1      -4.279  -6.770   1.319  0.00  0.00    +0.029 C 
BRANCH   7  15
ATOM      9  C   UNL     1      -4.040  -2.578  -1.755  0.00  0.00    +0.101 C 
ATOM     10  C   UNL     1      -4.417  -2.033  -0.376  0.00  0.00    +0.033 C 
ATOM     11  C   UNL     1      -5.735  -2.667   0.078  0.00  0.00    +0.108 C 
ATOM     12  N   UNL     1      -5.599  -4.130   0.024  0.00  0.00    -0.301 N 
ATOM     13  C   UNL     1      -5.154  -4.752  -1.230  0.00  0.00    +0.108 C 
ATOM     14  C   UNL     1      -3.842  -4.093  -1.669  0.00  0.00    +0.033 C 
ATOM     15  C   UNL     1      -5.877  -4.885   1.105  0.00  0.00    +0.229 C 
ATOM     16  O   UNL     1      -6.243  -4.359   2.135  0.00  0.00    -0.274 OA
BRANCH   9  17
ATOM     17  C   UNL     1      -2.761  -1.930  -2.219  0.00  0.00    +0.310 C 
ATOM     18  O   UNL     1      -1.791  -2.610  -2.457  0.00  0.00    -0.251 OA
BRANCH  17  19
ATOM     19  O   UNL     1      -2.700  -0.598  -2.368  0.00  0.00    -0.465 OA
BRANCH  19  21
ATOM     20  C   UNL     1      -1.578   1.470  -2.922  0.00  0.00    +0.048 C 
ATOM     21  C   UNL     1      -1.456  -0.051  -2.812  0.00  0.00    +0.229 C 
ENDBRANCH  19  21
ENDBRANCH  17  19
ENDBRANCH   9  17
ENDBRANCH   7  15
ENDBRANCH   6   7
ENDBRANCH   1   6
BRANCH   5  22
ATOM     22  C   UNL     1      -8.211  -9.758   3.755  0.00  0.00    +0.160 C 
BRANCH  22  23
ATOM     23  C   UNL     1      -9.600  -9.526   3.219  0.00  0.00    -0.028 A 
ATOM     24  C   UNL     1     -10.046  -8.238   2.987  0.00  0.00    +0.005 A 
ATOM     25  C   UNL     1     -11.320  -8.025   2.495  0.00  0.00    +0.000 A 
ATOM     26  C   UNL     1     -12.149  -9.100   2.235  0.00  0.00    +0.000 A 
ATOM     27  C   UNL     1     -11.703 -10.388   2.466  0.00  0.00    +0.000 A 
ATOM     28  C   UNL     1     -10.428 -10.601   2.953  0.00  0.00    +0.005 A 
ENDBRANCH  22  23
ENDBRANCH   5  22
BRANCH   4  29
ATOM     29  C   UNL     1      -7.249 -12.449   2.440  0.00  0.00    -0.001 C 
BRANCH  29  30
ATOM     30  N   UNL     1      -8.343 -12.899   1.570  0.00  0.00    +0.384 N 
ATOM     31  C   UNL     1      -7.843 -13.115   0.189  0.00  0.00    -0.078 C 
ATOM     32  C   UNL     1      -8.891 -14.080  -0.421  0.00  0.00    -0.020 C 
ATOM     33  C   UNL     1      -9.238 -15.008   0.766  0.00  0.00    -0.020 C 
ATOM     34  C   UNL     1      -8.849 -14.212   2.026  0.00  0.00    -0.078 C 
ATOM     35  H   UNL     1      -9.089 -12.220   1.569  0.00  0.00    -0.081 HD
ENDBRANCH  29  30
ENDBRANCH   4  29
TORSDOF 10
