REMARK  Name = ZINC16956898
REMARK  5 active torsions:
REMARK  status: ('A' for Active; 'I' for Inactive)
REMARK    1  A    between atoms: C_1  and  C_2
REMARK    2  A    between atoms: C_2  and  N_3
REMARK    3  A    between atoms: C_13  and  S_14
REMARK    4  A    between atoms: S_14  and  C_15
REMARK    5  A    between atoms: C_15  and  C_16
REMARK                            x       y       z     vdW  Elec       q    Type
REMARK                         _______ _______ _______ _____ _____    ______ ____
ROOT
ATOM      1  C   UNL     1      -1.154   3.800   0.028  0.00  0.00    +0.229 C 
ATOM      2  O   UNL     1      -0.087   4.376   0.026  0.00  0.00    -0.275 OA
ATOM      3  N   UNL     1      -1.193   2.453   0.021  0.00  0.00    -0.265 N 
ATOM      4  C   UNL     1      -0.021   1.732   0.012  0.00  0.00    +0.146 A 
ATOM      5  N   UNL     1       1.171   2.312   0.003  0.00  0.00    -0.304 N 
ATOM      6  C   UNL     1       2.345   1.722  -0.012  0.00  0.00    +0.259 A 
ATOM      7  O   UNL     1       3.304   2.476  -0.017  0.00  0.00    -0.267 OA
ATOM      8  C   UNL     1       2.676   0.298  -0.022  0.00  0.00    +0.053 A 
ATOM      9  C   UNL     1       4.000  -0.152  -0.037  0.00  0.00    +0.014 A 
ATOM     10  C   UNL     1       4.262  -1.503  -0.047  0.00  0.00    +0.001 A 
ATOM     11  C   UNL     1       3.235  -2.436  -0.042  0.00  0.00    +0.001 A 
ATOM     12  C   UNL     1       1.916  -2.017  -0.028  0.00  0.00    +0.016 A 
ATOM     13  C   UNL     1       1.647  -0.668  -0.017  0.00  0.00    +0.028 A 
ATOM     14  S   UNL     1       0.002  -0.004   0.002  0.00  0.00    -0.055 S 
ATOM     15  H   UNL     1      -2.161   1.931   0.023  0.00  0.00    +0.157 HD
ATOM     16  H   UNL     1       1.249   3.409   0.009  0.00  0.00    +0.171 HD
ENDROOT
BRANCH   1  17
ATOM     17  C   UNL     1      -2.437   4.591   0.039  0.00  0.00    +0.173 C 
BRANCH  17  18
ATOM     18  S   UNL     1      -2.055   6.360   0.047  0.00  0.00    -0.078 S 
BRANCH  18  29
ATOM     19  N   UNL     1      -3.837   8.383   0.072  0.00  0.00    -0.288 N 
ATOM     20  C   UNL     1      -5.071   8.937   0.075  0.00  0.00    +0.262 A 
ATOM     21  O   UNL     1      -5.222  10.145   0.083  0.00  0.00    -0.267 OA
ATOM     22  C   UNL     1      -6.224   8.025   0.076  0.00  0.00    +0.065 A 
ATOM     23  C   UNL     1      -7.536   8.497   0.085  0.00  0.00    +0.015 A 
ATOM     24  C   UNL     1      -8.572   7.605   0.085  0.00  0.00    +0.001 A 
ATOM     25  C   UNL     1      -8.331   6.237   0.075  0.00  0.00    +0.002 A 
ATOM     26  C   UNL     1      -7.055   5.747   0.067  0.00  0.00    +0.028 A 
ATOM     27  C   UNL     1      -5.974   6.634   0.067  0.00  0.00    +0.079 A 
ATOM     28  N   UNL     1      -4.700   6.194   0.059  0.00  0.00    -0.223 NA
ATOM     29  C   UNL     1      -3.687   7.025   0.058  0.00  0.00    +0.173 A 
BRANCH  19  31
ATOM     30  C   UNL     1      -2.244   9.559  -1.364  0.00  0.00    +0.027 C 
ATOM     31  C   UNL     1      -2.652   9.245   0.076  0.00  0.00    +0.124 C 
ENDBRANCH  19  31
ENDBRANCH  18  29
ENDBRANCH  17  18
ENDBRANCH   1  17
TORSDOF 4
