REMARK  Name = ZINC40008760
REMARK  6 active torsions:
REMARK  status: ('A' for Active; 'I' for Inactive)
REMARK    1  A    between atoms: C_1  and  C_2
REMARK    2  A    between atoms: C_2  and  C_3
REMARK    3  A    between atoms: C_2  and  C_4
REMARK    4  A    between atoms: C_10  and  C_26
REMARK    5  A    between atoms: C_29  and  O_32
REMARK    6  A    between atoms: O_32  and  C_33
REMARK                            x       y       z     vdW  Elec       q    Type
REMARK                         _______ _______ _______ _____ _____    ______ ____
ROOT
ATOM      1  C   UNL     1      -1.412  -0.526   0.013  0.00  0.00    +0.106 A 
ATOM      2  N   UNL     1      -2.375  -0.345   0.895  0.00  0.00    -0.144 NA
ATOM      3  N   UNL     1      -3.518  -0.858   0.755  0.00  0.00    -0.125 NA
ATOM      4  C   UNL     1      -3.823  -1.613  -0.292  0.00  0.00    +0.191 A 
ATOM      5  S   UNL     1      -2.265  -1.561  -1.173  0.00  0.00    -0.035 S 
ATOM      6  N   UNL     1      -5.011  -2.255  -0.615  0.00  0.00    -0.230 N 
ATOM      7  C   UNL     1      -6.253  -2.227   0.176  0.00  0.00    +0.151 C 
ATOM      8  C   UNL     1      -7.235  -3.062  -0.578  0.00  0.00    +0.072 A 
ATOM      9  C   UNL     1      -8.628  -3.413  -0.288  0.00  0.00    +0.199 A 
ATOM     10  O   UNL     1      -9.275  -2.894   0.605  0.00  0.00    -0.287 OA
ATOM     11  C   UNL     1      -9.176  -4.462  -1.185  0.00  0.00    +0.065 A 
ATOM     12  C   UNL     1     -10.414  -5.046  -0.914  0.00  0.00    +0.030 A 
ATOM     13  C   UNL     1     -10.905  -6.021  -1.754  0.00  0.00    +0.019 A 
ATOM     14  C   UNL     1     -10.168  -6.419  -2.863  0.00  0.00    +0.019 A 
ATOM     15  C   UNL     1      -8.947  -5.849  -3.140  0.00  0.00    +0.048 A 
ATOM     16  C   UNL     1      -8.430  -4.858  -2.306  0.00  0.00    +0.140 A 
ATOM     17  O   UNL     1      -7.231  -4.307  -2.608  0.00  0.00    -0.450 OA
ATOM     18  C   UNL     1      -6.612  -3.523  -1.704  0.00  0.00    +0.199 A 
ATOM     19  C   UNL     1      -5.232  -3.009  -1.711  0.00  0.00    +0.289 C 
ATOM     20  O   UNL     1      -4.410  -3.234  -2.578  0.00  0.00    -0.266 OA
ATOM     21 BR   UNL     1     -12.581  -6.819  -1.397  0.00  0.00    -0.050 Br
ENDROOT
BRANCH   7  22
ATOM     22  C   UNL     1      -6.758  -0.812   0.299  0.00  0.00    -0.022 A 
ATOM     23  C   UNL     1      -6.668   0.050  -0.778  0.00  0.00    +0.009 A 
ATOM     24  C   UNL     1      -7.130   1.347  -0.667  0.00  0.00    +0.046 A 
ATOM     25  C   UNL     1      -7.685   1.784   0.527  0.00  0.00    +0.120 A 
ATOM     26  C   UNL     1      -7.775   0.918   1.606  0.00  0.00    +0.046 A 
ATOM     27  C   UNL     1      -7.316  -0.380   1.488  0.00  0.00    +0.009 A 
BRANCH  25  28
ATOM     28  O   UNL     1      -8.140   3.060   0.638  0.00  0.00    -0.495 OA
ATOM     29  C   UNL     1      -8.699   3.442   1.897  0.00  0.00    +0.277 C 
ENDBRANCH  25  28
ENDBRANCH   7  22
BRANCH   1  31
ATOM     30  C   UNL     1      -0.019   1.526   0.010  0.00  0.00    +0.014 C 
ATOM     31  C   UNL     1       0.002  -0.004   0.002  0.00  0.00    +0.040 C 
ATOM     32  C   UNL     1       0.742  -0.511   1.242  0.00  0.00    +0.014 C 
ENDBRANCH   1  31
TORSDOF 3
