REMARK  Name = ZINC36005189
REMARK  13 active torsions:
REMARK  status: ('A' for Active; 'I' for Inactive)
REMARK    1  A    between atoms: C_1  and  C_2
REMARK    2  A    between atoms: C_2  and  O_3
REMARK    3  A    between atoms: O_3  and  C_4
REMARK    4  A    between atoms: C_4  and  C_6
REMARK    5  A    between atoms: C_7  and  C_25
REMARK    6  A    between atoms: N_8  and  C_24
REMARK    7  A    between atoms: C_12  and  C_14
REMARK    8  A    between atoms: C_17  and  C_20
REMARK    9  A    between atoms: C_20  and  C_21
REMARK   10  A    between atoms: C_20  and  C_22
REMARK   11  A    between atoms: C_20  and  C_23
REMARK   12  A    between atoms: C_25  and  N_26
REMARK   13  A    between atoms: C_32  and  C_34
REMARK                            x       y       z     vdW  Elec       q    Type
REMARK                         _______ _______ _______ _____ _____    ______ ____
ROOT
ATOM      1  C   UNL     1       1.784  -2.509   2.630  0.00  0.00    +0.080 C 
ATOM      2  C   UNL     1       1.709  -3.839   2.847  0.00  0.00    +0.041 C 
ATOM      3  N   UNL     1       2.280  -4.406   3.951  0.00  0.00    -0.260 N 
ATOM      4  C   UNL     1       2.944  -3.711   4.883  0.00  0.00    +0.307 C 
ATOM      5  O   UNL     1       3.418  -4.305   5.832  0.00  0.00    -0.252 OA
ATOM      6  N   UNL     1       3.103  -2.375   4.804  0.00  0.00    -0.288 N 
ATOM      7  C   UNL     1       2.528  -1.668   3.647  0.00  0.00    +0.144 C 
ATOM      8  C   UNL     1       2.160  -5.856   4.124  0.00  0.00    +0.139 C 
ATOM      9  H   UNL     1       3.587  -1.891   5.491  0.00  0.00    +0.151 HD
ENDROOT
BRANCH   7  10
ATOM     10  C   UNL     1       1.577  -0.624   4.172  0.00  0.00    -0.022 A 
ATOM     11  C   UNL     1       0.657  -0.956   5.150  0.00  0.00    +0.006 A 
ATOM     12  C   UNL     1      -0.215   0.002   5.631  0.00  0.00    +0.004 A 
ATOM     13  C   UNL     1      -0.168   1.292   5.136  0.00  0.00    -0.042 A 
ATOM     14  C   UNL     1       0.752   1.624   4.160  0.00  0.00    +0.004 A 
ATOM     15  C   UNL     1       1.628   0.667   3.681  0.00  0.00    +0.006 A 
BRANCH  13  16
ATOM     16  C   UNL     1      -1.120   2.336   5.661  0.00  0.00    -0.013 C 
ATOM     17  C   UNL     1      -0.907   2.510   7.166  0.00  0.00    +0.015 C 
ATOM     18  C   UNL     1      -0.859   3.666   4.952  0.00  0.00    +0.015 C 
ATOM     19  C   UNL     1      -2.560   1.891   5.397  0.00  0.00    +0.015 C 
ENDBRANCH  13  16
ENDBRANCH   7  10
BRANCH   1  20
ATOM     20  C   UNL     1       1.193  -1.920   1.487  0.00  0.00    +0.339 C 
ATOM     21  O   UNL     1       1.891  -1.560   0.558  0.00  0.00    -0.245 OA
BRANCH  20  22
ATOM     22  O   UNL     1      -0.145  -1.758   1.427  0.00  0.00    -0.462 OA
BRANCH  22  24
ATOM     23  C   UNL     1      -2.196  -1.057   0.358  0.00  0.00    +0.048 C 
ATOM     24  C   UNL     1      -0.674  -1.157   0.244  0.00  0.00    +0.229 C 
ENDBRANCH  22  24
ENDBRANCH  20  22
ENDBRANCH   1  20
BRANCH   2  25
ATOM     25  C   UNL     1       0.982  -4.713   1.857  0.00  0.00    +0.136 C 
BRANCH  25  26
ATOM     26  N   UNL     1       1.937  -5.628   1.219  0.00  0.00    -0.294 NA
ATOM     27  C   UNL     1       2.906  -4.889   0.398  0.00  0.00    +0.104 C 
ATOM     28  C   UNL     1       3.987  -5.853  -0.101  0.00  0.00    +0.123 C 
ATOM     29  N   UNL     1       3.330  -6.981  -0.780  0.00  0.00    -0.295 N 
ATOM     30  C   UNL     1       2.251  -7.686  -0.071  0.00  0.00    +0.123 C 
ATOM     31  C   UNL     1       1.238  -6.649   0.427  0.00  0.00    +0.104 C 
ATOM     32  C   UNL     1       3.708  -7.359  -2.017  0.00  0.00    +0.249 C 
ATOM     33  O   UNL     1       3.094  -8.231  -2.600  0.00  0.00    -0.270 OA
BRANCH  32  34
ATOM     34  C   UNL     1       4.867  -6.713  -2.665  0.00  0.00    +0.072 A 
ATOM     35  C   UNL     1       6.090  -6.632  -1.996  0.00  0.00    +0.016 A 
ATOM     36  C   UNL     1       7.169  -6.029  -2.606  0.00  0.00    +0.001 A 
ATOM     37  C   UNL     1       7.043  -5.502  -3.881  0.00  0.00    +0.003 A 
ATOM     38  C   UNL     1       5.837  -5.576  -4.551  0.00  0.00    +0.039 A 
ATOM     39  C   UNL     1       4.747  -6.184  -3.954  0.00  0.00    +0.135 A 
ATOM     40  F   UNL     1       3.570  -6.261  -4.611  0.00  0.00    -0.205 F 
ENDBRANCH  32  34
ENDBRANCH  25  26
ENDBRANCH   2  25
TORSDOF 8
