REMARK  Name = ZINC09008399
REMARK  8 active torsions:
REMARK  status: ('A' for Active; 'I' for Inactive)
REMARK    1  A    between atoms: C_1  and  C_2
REMARK    2  A    between atoms: C_2  and  C_3
REMARK    3  A    between atoms: C_2  and  C_4
REMARK    4  A    between atoms: C_5  and  O_15
REMARK    5  A    between atoms: C_7  and  S_11
REMARK    6  A    between atoms: C_9  and  O_10
REMARK    7  A    between atoms: S_11  and  C_12
REMARK    8  A    between atoms: C_12  and  C_13
REMARK                            x       y       z     vdW  Elec       q    Type
REMARK                         _______ _______ _______ _____ _____    ______ ____
ROOT
ATOM      1  C   UNL     1      -0.718   1.572   1.248  0.00  0.00    +0.078 A 
ATOM      2  C   UNL     1      -0.865   2.932   1.495  0.00  0.00    +0.223 A 
ATOM      3  N   UNL     1      -1.498   3.325   2.596  0.00  0.00    -0.187 NA
ATOM      4  C   UNL     1      -1.975   2.438   3.457  0.00  0.00    +0.195 A 
ATOM      5  N   UNL     1      -1.848   1.134   3.256  0.00  0.00    -0.187 NA
ATOM      6  C   UNL     1      -1.232   0.670   2.174  0.00  0.00    +0.223 A 
ENDROOT
BRANCH   1   8
ATOM      7  C   UNL     1       1.423   1.615  -0.003  0.00  0.00    +0.012 C 
ATOM      8  C   UNL     1      -0.013   1.086   0.008  0.00  0.00    +0.023 C 
ATOM      9  C   UNL     1      -0.753   1.593  -1.232  0.00  0.00    +0.012 C 
ENDBRANCH   1   8
BRANCH   6  10
ATOM     10  O   UNL     1      -1.105  -0.664   1.975  0.00  0.00    -0.492 OA
ATOM     11  H   UNL     1      -0.299  -1.043   2.352  0.00  0.00    +0.294 HD
ENDBRANCH   6  10
BRANCH   2  12
ATOM     12  O   UNL     1      -0.375   3.846   0.623  0.00  0.00    -0.492 OA
ATOM     13  H   UNL     1      -1.001   4.107  -0.067  0.00  0.00    +0.294 HD
ENDBRANCH   2  12
BRANCH   4  14
ATOM     14  S   UNL     1      -2.800   3.006   4.907  0.00  0.00    -0.074 S 
BRANCH  14  15
ATOM     15  C   UNL     1      -2.678   4.795   4.657  0.00  0.00    +0.202 C 
BRANCH  15  16
ATOM     16  C   UNL     1      -3.337   5.509   5.809  0.00  0.00    +0.366 C 
ATOM     17  O   UNL     1      -3.838   4.874   6.707  0.00  0.00    -0.245 OA
ATOM     18  O   UNL     1      -3.367   6.850   5.838  0.00  0.00    -0.245 OA
ENDBRANCH  15  16
ENDBRANCH  14  15
ENDBRANCH   4  14
TORSDOF 6
