REMARK  Name = ZINC04631471
REMARK  8 active torsions:
REMARK  status: ('A' for Active; 'I' for Inactive)
REMARK    1  A    between atoms: C_1  and  C_2
REMARK    2  A    between atoms: C_9  and  N_25
REMARK    3  A    between atoms: C_10  and  C_23
REMARK    4  A    between atoms: C_11  and  C_13
REMARK    5  A    between atoms: C_16  and  O_19
REMARK    6  A    between atoms: O_19  and  C_20
REMARK    7  A    between atoms: C_20  and  C_21
REMARK    8  A    between atoms: C_20  and  C_22
REMARK                            x       y       z     vdW  Elec       q    Type
REMARK                         _______ _______ _______ _____ _____    ______ ____
ROOT
ATOM      1  C   UNL     1      -0.368   0.789  -0.584  0.00  0.00    +0.065 C 
ATOM      2  C   UNL     1      -0.289  -0.699  -0.809  0.00  0.00    +0.041 A 
ATOM      3  C   UNL     1      -0.149  -1.314  -1.993  0.00  0.00    +0.049 A 
ATOM      4  C   UNL     1      -0.120  -2.707  -1.763  0.00  0.00    +0.245 A 
ATOM      5  N   UNL     1      -0.237  -2.906  -0.482  0.00  0.00    -0.135 NA
ATOM      6  N   UNL     1      -0.341  -1.655   0.147  0.00  0.00    -0.278 N 
ATOM      7  H   UNL     1      -0.435  -1.503   1.100  0.00  0.00    +0.189 HD
ATOM      8  O   UNL     1       0.010  -3.603  -2.777  0.00  0.00    -0.421 OA
ATOM      9  C   UNL     1      -0.161  -3.146  -4.034  0.00  0.00    +0.201 C 
ATOM     10  C   UNL     1      -0.193  -1.841  -4.376  0.00  0.00    +0.098 C 
ATOM     11  C   UNL     1      -0.035  -0.725  -3.376  0.00  0.00    +0.101 C 
ENDROOT
BRANCH  11  12
ATOM     12  C   UNL     1       1.316  -0.079  -3.544  0.00  0.00    -0.034 A 
ATOM     13  C   UNL     1       2.464  -0.839  -3.417  0.00  0.00    +0.008 A 
ATOM     14  C   UNL     1       3.704  -0.250  -3.570  0.00  0.00    +0.046 A 
ATOM     15  C   UNL     1       3.797   1.105  -3.852  0.00  0.00    +0.121 A 
ATOM     16  C   UNL     1       2.643   1.865  -3.979  0.00  0.00    +0.046 A 
ATOM     17  C   UNL     1       1.405   1.270  -3.830  0.00  0.00    +0.008 A 
BRANCH  15  18
ATOM     18  O   UNL     1       5.016   1.688  -4.003  0.00  0.00    -0.489 OA
BRANCH  18  19
ATOM     19  C   UNL     1       6.160   0.873  -3.742  0.00  0.00    +0.167 C 
ATOM     20  C   UNL     1       6.516   0.075  -4.998  0.00  0.00    +0.051 C 
ATOM     21  C   UNL     1       7.342   1.764  -3.352  0.00  0.00    +0.051 C 
ENDBRANCH  18  19
ENDBRANCH  15  18
ENDBRANCH  11  12
BRANCH   9  22
ATOM     22  N   UNL     1      -0.311  -4.073  -5.035  0.00  0.00    -0.328 N 
ATOM     23  H   UNL     1      -0.293  -5.020  -4.827  0.00  0.00    +0.145 HD
ATOM     24  H   UNL     1      -0.436  -3.781  -5.952  0.00  0.00    +0.145 HD
ENDBRANCH   9  22
BRANCH  10  25
ATOM     25  C   UNL     1      -0.387  -1.501  -5.754  0.00  0.00    +0.101 C 
ATOM     26  N   UNL     1      -0.540  -1.232  -6.847  0.00  0.00    -0.191 NA
ENDBRANCH  10  25
TORSDOF 5
