REMARK  Name = ZINC28157499
REMARK  9 active torsions:
REMARK  status: ('A' for Active; 'I' for Inactive)
REMARK    1  A    between atoms: C_1  and  C_2
REMARK    2  A    between atoms: C_2  and  C_3
REMARK    3  A    between atoms: C_6  and  C_9
REMARK    4  A    between atoms: C_12  and  C_34
REMARK    5  A    between atoms: C_19  and  C_22
REMARK    6  A    between atoms: C_22  and  C_23
REMARK    7  A    between atoms: N_25  and  C_26
REMARK    8  A    between atoms: C_29  and  C_33
REMARK    9  A    between atoms: C_31  and  C_32
REMARK                            x       y       z     vdW  Elec       q    Type
REMARK                         _______ _______ _______ _____ _____    ______ ____
ROOT
ATOM      1  C   UNL     1       3.984  -1.421  -0.061  0.00  0.00    +0.136 C 
ATOM      2  C   UNL     1       4.255  -2.939  -0.065  0.00  0.00    +0.087 C 
ATOM      3  C   UNL     1       2.874  -3.555  -0.050  0.00  0.00    +0.069 C 
ATOM      4  N   UNL     1       1.986  -2.622  -0.035  0.00  0.00    -0.182 NA
ATOM      5  N   UNL     1       2.515  -1.333  -0.037  0.00  0.00    -0.195 N 
ATOM      6  C   UNL     1       1.790  -0.177  -0.024  0.00  0.00    +0.170 C 
ATOM      7  N   UNL     1       2.237   1.072  -0.026  0.00  0.00    -0.157 NA
ATOM      8  C   UNL     1       1.472   2.128  -0.013  0.00  0.00    +0.252 C 
ATOM      9  O   UNL     1       1.922   3.258  -0.016  0.00  0.00    -0.272 OA
ATOM     10  C   UNL     1      -0.026   1.849   0.005  0.00  0.00    +0.150 C 
ATOM     11  S   UNL     1       0.012   0.011  -0.001  0.00  0.00    -0.078 S 
ENDROOT
BRANCH   3  12
ATOM     12  C   UNL     1       2.588  -5.002  -0.052  0.00  0.00    -0.002 A 
ATOM     13  C   UNL     1       3.638  -5.924  -0.075  0.00  0.00    +0.012 A 
ATOM     14  C   UNL     1       3.364  -7.276  -0.072  0.00  0.00    +0.039 A 
ATOM     15  C   UNL     1       2.051  -7.720  -0.056  0.00  0.00    +0.123 A 
ATOM     16  C   UNL     1       1.006  -6.809  -0.039  0.00  0.00    +0.039 A 
ATOM     17  C   UNL     1       1.267  -5.456  -0.037  0.00  0.00    +0.012 A 
ATOM     18  F   UNL     1       1.789  -9.045  -0.058  0.00  0.00    -0.205 F 
ENDBRANCH   3  12
BRANCH   1  22
ATOM     19  C   UNL     1       5.541   0.398  -3.599  0.00  0.00    -0.048 A 
ATOM     20  C   UNL     1       6.204   0.548  -2.395  0.00  0.00    +0.004 A 
ATOM     21  C   UNL     1       5.700  -0.041  -1.250  0.00  0.00    +0.006 A 
ATOM     22  C   UNL     1       4.533  -0.779  -1.309  0.00  0.00    -0.025 A 
ATOM     23  C   UNL     1       3.873  -0.933  -2.514  0.00  0.00    +0.006 A 
ATOM     24  C   UNL     1       4.374  -0.340  -3.657  0.00  0.00    +0.004 A 
BRANCH  19  26
ATOM     25  C   UNL     1       7.043   0.066  -5.543  0.00  0.00    +0.009 C 
ATOM     26  C   UNL     1       6.090   1.040  -4.847  0.00  0.00    +0.032 C 
ENDBRANCH  19  26
ENDBRANCH   1  22
BRANCH  10  27
ATOM     27  C   UNL     1      -0.680   2.390   1.278  0.00  0.00    +0.120 C 
BRANCH  27  28
ATOM     28  C   UNL     1      -2.140   2.015   1.291  0.00  0.00    +0.219 C 
ATOM     29  O   UNL     1      -2.610   1.377   0.373  0.00  0.00    -0.275 OA
ATOM     30  N   UNL     1      -2.922   2.388   2.323  0.00  0.00    -0.285 N 
ATOM     31  H   UNL     1      -2.478   2.886   3.197  0.00  0.00    +0.155 HD
BRANCH  30  32
ATOM     32  C   UNL     1      -4.299   2.141   2.282  0.00  0.00    +0.036 A 
ATOM     33  C   UNL     1      -4.946   2.008   1.061  0.00  0.00    +0.024 A 
ATOM     34  C   UNL     1      -6.305   1.764   1.024  0.00  0.00    +0.005 A 
ATOM     35  C   UNL     1      -7.021   1.653   2.202  0.00  0.00    -0.050 A 
ATOM     36  C   UNL     1      -6.380   1.785   3.419  0.00  0.00    +0.008 A 
ATOM     37  C   UNL     1      -5.020   2.023   3.463  0.00  0.00    -0.029 A 
ATOM     38  C   UNL     1      -4.320   2.160   4.791  0.00  0.00    +0.045 C 
ATOM     39  C   UNL     1      -8.504   1.388   2.158  0.00  0.00    +0.044 C 
ENDBRANCH  30  32
ENDBRANCH  27  28
ENDBRANCH  10  27
TORSDOF 6
