REMARK  Name = ZINC59922103
REMARK  13 active torsions:
REMARK  status: ('A' for Active; 'I' for Inactive)
REMARK    1  A    between atoms: C_1  and  C_2
REMARK    2  A    between atoms: C_2  and  N_3
REMARK    3  A    between atoms: N_3  and  C_4
REMARK    4  A    between atoms: N_3  and  S_6
REMARK    5  A    between atoms: C_4  and  C_5
REMARK    6  A    between atoms: S_6  and  C_9
REMARK    7  A    between atoms: C_11  and  C_16
REMARK    8  A    between atoms: N_18  and  C_19
REMARK    9  A    between atoms: C_19  and  C_20
REMARK   10  A    between atoms: C_20  and  N_28
REMARK   11  A    between atoms: C_24  and  C_27
REMARK   12  A    between atoms: N_28  and  C_29
REMARK   13  A    between atoms: N_28  and  C_30
REMARK                            x       y       z     vdW  Elec       q    Type
REMARK                         _______ _______ _______ _____ _____    ______ ____
ROOT
ATOM      1  C   UNL     1       2.131   2.441  -6.593  0.00  0.00    +0.244 C 
ATOM      2  O   UNL     1       2.457   1.391  -7.111  0.00  0.00    -0.270 OA
ATOM      3  N   UNL     1       2.060   3.564  -7.334  0.00  0.00    -0.313 N 
ATOM      4  H   UNL     1       1.799   4.402  -6.920  0.00  0.00    +0.149 HD
ENDROOT
BRANCH   1   7
ATOM      5  C   UNL     1       1.586   1.372  -3.035  0.00  0.00    +0.124 A 
ATOM      6  C   UNL     1       1.884   1.324  -4.380  0.00  0.00    +0.043 A 
ATOM      7  C   UNL     1       1.812   2.486  -5.150  0.00  0.00    +0.039 A 
ATOM      8  C   UNL     1       1.437   3.691  -4.552  0.00  0.00    +0.014 A 
ATOM      9  C   UNL     1       1.141   3.726  -3.206  0.00  0.00    +0.023 A 
ATOM     10  C   UNL     1       1.210   2.569  -2.448  0.00  0.00    +0.067 A 
ATOM     11 CL   UNL     1       0.828   2.620  -0.755  0.00  0.00    -0.082 Cl
BRANCH   5  12
ATOM     12  S   UNL     1       1.677  -0.094  -2.061  0.00  0.00    +0.062 S 
ATOM     13  O   UNL     1       2.026  -1.149  -2.947  0.00  0.00    -0.153 OA
ATOM     14  O   UNL     1       0.501  -0.126  -1.264  0.00  0.00    -0.153 OA
BRANCH  12  15
ATOM     15  N   UNL     1       2.950   0.089  -1.018  0.00  0.00    -0.177 NA
BRANCH  15  17
ATOM     16  C   UNL     1       3.420   2.189   0.144  0.00  0.00    +0.022 C 
ATOM     17  C   UNL     1       2.766   0.809   0.244  0.00  0.00    +0.106 C 
ENDBRANCH  15  17
BRANCH  15  18
ATOM     18  C   UNL     1       4.261  -0.469  -1.358  0.00  0.00    +0.106 C 
ATOM     19  C   UNL     1       4.409  -1.851  -0.718  0.00  0.00    +0.022 C 
ENDBRANCH  15  18
ENDBRANCH  12  15
ENDBRANCH   5  12
ENDBRANCH   1   7
BRANCH   3  20
ATOM     20  C   UNL     1       2.376   3.520  -8.764  0.00  0.00    +0.092 C 
BRANCH  20  21
ATOM     21  C   UNL     1       2.071   4.880  -9.396  0.00  0.00    -0.050 C 
ATOM     22  C   UNL     1       2.793   5.979  -8.614  0.00  0.00    -0.010 C 
ATOM     23  C   UNL     1       2.488   7.338  -9.246  0.00  0.00    -0.001 C 
ATOM     24  C   UNL     1       2.970   7.345 -10.698  0.00  0.00    +0.003 C 
ATOM     25  C   UNL     1       2.248   6.246 -11.480  0.00  0.00    -0.015 C 
ATOM     26  C   UNL     1       2.553   4.886 -10.848  0.00  0.00    -0.007 C 
ATOM     27  C   UNL     1       2.730   6.253 -12.932  0.00  0.00    +0.007 C 
BRANCH  21  28
ATOM     28  N   UNL     1       0.623   5.123  -9.359  0.00  0.00    +0.381 N 
ATOM     29  C   UNL     1      -0.078   4.007 -10.009  0.00  0.00    -0.096 C 
ATOM     30  C   UNL     1       0.180   5.233  -7.963  0.00  0.00    -0.096 C 
ATOM     31  H   UNL     1       0.414   5.981  -9.847  0.00  0.00    -0.082 HD
ENDBRANCH  21  28
ENDBRANCH  20  21
ENDBRANCH   3  20
TORSDOF 8
