REMARK  Name = ZINC00679213
REMARK  10 active torsions:
REMARK  status: ('A' for Active; 'I' for Inactive)
REMARK    1  A    between atoms: C_1  and  C_2
REMARK    2  A    between atoms: C_3  and  C_32
REMARK    3  A    between atoms: C_4  and  C_25
REMARK    4  A    between atoms: C_10  and  C_15
REMARK    5  A    between atoms: C_18  and  O_23
REMARK    6  A    between atoms: C_19  and  O_21
REMARK    7  A    between atoms: O_21  and  C_22
REMARK    8  A    between atoms: O_23  and  C_24
REMARK    9  A    between atoms: C_32  and  O_34
REMARK   10  A    between atoms: O_34  and  C_35
REMARK                            x       y       z     vdW  Elec       q    Type
REMARK                         _______ _______ _______ _____ _____    ______ ____
ROOT
ATOM      1  C   UNL     1      -2.980   6.764   1.291  0.00  0.00    +0.061 C 
ATOM      2  C   UNL     1      -2.587   5.309   1.296  0.00  0.00    +0.016 C 
ATOM      3  C   UNL     1      -2.548   4.632   2.456  0.00  0.00    +0.065 C 
ATOM      4  C   UNL     1      -2.171   3.180   2.498  0.00  0.00    +0.095 C 
ATOM      5  C   UNL     1      -1.464   2.768   1.231  0.00  0.00    +0.024 C 
ATOM      6  C   UNL     1      -1.546   3.526   0.118  0.00  0.00    +0.016 C 
ATOM      7  N   UNL     1      -2.273   4.687   0.120  0.00  0.00    -0.321 N 
ATOM      8  C   UNL     1      -0.841   3.122  -1.153  0.00  0.00    +0.059 C 
ATOM      9  C   UNL     1      -0.758   1.595  -1.230  0.00  0.00    +0.032 C 
ATOM     10  C   UNL     1      -0.013   1.086   0.008  0.00  0.00    +0.088 C 
ATOM     11  C   UNL     1      -0.721   1.573   1.243  0.00  0.00    +0.162 C 
ATOM     12  O   UNL     1      -0.651   0.922   2.266  0.00  0.00    -0.292 OA
ATOM     13  H   UNL     1      -2.604   5.118  -0.836  0.00  0.00    +0.152 HD
ENDROOT
BRANCH   4  14
ATOM     14  C   UNL     1      -3.417   2.349   2.662  0.00  0.00    -0.000 A 
ATOM     15  C   UNL     1      -4.419   2.410   1.711  0.00  0.00    +0.007 A 
ATOM     16  C   UNL     1      -5.562   1.648   1.861  0.00  0.00    +0.000 A 
ATOM     17  C   UNL     1      -5.704   0.822   2.961  0.00  0.00    +0.003 A 
ATOM     18  C   UNL     1      -4.704   0.759   3.912  0.00  0.00    +0.038 A 
ATOM     19  C   UNL     1      -3.557   1.519   3.761  0.00  0.00    +0.127 A 
ATOM     20  F   UNL     1      -2.575   1.454   4.688  0.00  0.00    -0.205 F 
ENDBRANCH   4  14
BRANCH   9  21
ATOM     21  C   UNL     1      -0.009   1.191  -2.474  0.00  0.00    -0.040 A 
ATOM     22  C   UNL     1       1.289   1.627  -2.670  0.00  0.00    +0.008 A 
ATOM     23  C   UNL     1       1.982   1.254  -3.806  0.00  0.00    +0.049 A 
ATOM     24  C   UNL     1       1.373   0.452  -4.758  0.00  0.00    +0.161 A 
ATOM     25  C   UNL     1       0.065   0.018  -4.563  0.00  0.00    +0.162 A 
ATOM     26  C   UNL     1      -0.622   0.391  -3.419  0.00  0.00    +0.053 A 
BRANCH  25  27
ATOM     27  O   UNL     1      -0.537  -0.770  -5.494  0.00  0.00    -0.491 OA
ATOM     28  C   UNL     1      -1.881  -1.177  -5.227  0.00  0.00    +0.277 C 
ENDBRANCH  25  27
BRANCH  24  29
ATOM     29  O   UNL     1       2.051   0.089  -5.879  0.00  0.00    -0.491 OA
ATOM     30  C   UNL     1       3.390   0.571  -6.011  0.00  0.00    +0.277 C 
ENDBRANCH  24  29
ENDBRANCH   9  21
BRANCH   3  31
ATOM     31  C   UNL     1      -2.870   5.300   3.660  0.00  0.00    +0.338 C 
ATOM     32  O   UNL     1      -3.177   6.477   3.640  0.00  0.00    -0.245 OA
BRANCH  31  33
ATOM     33  O   UNL     1      -2.835   4.632   4.833  0.00  0.00    -0.458 OA
BRANCH  33  34
ATOM     34  C   UNL     1      -3.171   5.369   6.010  0.00  0.00    +0.177 C 
ATOM     35  C   UNL     1      -1.906   5.997   6.597  0.00  0.00    +0.044 C 
ATOM     36  C   UNL     1      -2.266   6.787   7.857  0.00  0.00    +0.004 C 
ATOM     37  C   UNL     1      -2.893   5.845   8.887  0.00  0.00    +0.000 C 
ATOM     38  C   UNL     1      -4.159   5.217   8.300  0.00  0.00    +0.004 C 
ATOM     39  C   UNL     1      -3.799   4.428   7.040  0.00  0.00    +0.044 C 
ENDBRANCH  33  34
ENDBRANCH  31  33
ENDBRANCH   3  31
TORSDOF 7
