REMARK  Name = ZINC12040686
REMARK  11 active torsions:
REMARK  status: ('A' for Active; 'I' for Inactive)
REMARK    1  A    between atoms: C_1  and  C_2
REMARK    2  A    between atoms: C_2  and  C_20
REMARK    3  A    between atoms: N_5  and  C_9
REMARK    4  A    between atoms: C_9  and  C_10
REMARK    5  A    between atoms: C_14  and  O_18
REMARK    6  A    between atoms: C_15  and  O_16
REMARK    7  A    between atoms: O_16  and  C_17
REMARK    8  A    between atoms: O_18  and  C_19
REMARK    9  A    between atoms: C_25  and  C_26
REMARK   10  A    between atoms: C_25  and  N_67
REMARK   11  A    between atoms: C_27  and  C_28
REMARK                            x       y       z     vdW  Elec       q    Type
REMARK                         _______ _______ _______ _____ _____    ______ ____
ROOT
ATOM      1  C   UNL     1      -2.125   5.435  -4.382  0.00  0.00    +0.042 C 
ATOM      2  C   UNL     1      -3.234   5.287  -3.339  0.00  0.00    +0.112 C 
ATOM      3  C   UNL     1      -2.670   5.391  -1.936  0.00  0.00    +0.247 C 
ATOM      4  O   UNL     1      -2.101   6.341  -1.444  0.00  0.00    -0.273 OA
ATOM      5  N   UNL     1      -2.932   4.206  -1.349  0.00  0.00    -0.220 N 
ATOM      6  C   UNL     1      -3.582   3.379  -2.176  0.00  0.00    +0.310 C 
ATOM      7  O   UNL     1      -3.930   2.255  -1.871  0.00  0.00    -0.252 OA
ATOM      8  N   UNL     1      -3.808   3.931  -3.382  0.00  0.00    -0.285 N 
ATOM      9  H   UNL     1      -4.261   3.517  -4.133  0.00  0.00    +0.151 HD
ENDROOT
BRANCH   2  10
ATOM     10  C   UNL     1      -4.324   6.339  -3.556  0.00  0.00    +0.018 C 
ATOM     11  C   UNL     1      -5.402   6.189  -2.480  0.00  0.00    -0.013 C 
ATOM     12  C   UNL     1      -6.519   7.202  -2.739  0.00  0.00    -0.078 C 
ATOM     13  C   UNL     1      -6.086   7.159  -5.123  0.00  0.00    -0.078 C 
ATOM     14  C   UNL     1      -4.957   6.143  -4.936  0.00  0.00    -0.013 C 
ATOM     15  N   UNL     1      -7.104   6.944  -4.073  0.00  0.00    +0.382 N 
ATOM     16  H   UNL     1      -7.423   5.969  -4.113  0.00  0.00    -0.081 HD
BRANCH  15  17
ATOM     17  C   UNL     1      -8.259   7.837  -4.299  0.00  0.00    -0.051 C 
BRANCH  17  18
ATOM     18  C   UNL     1      -9.153   7.804  -3.086  0.00  0.00    -0.045 C 
ATOM     19  C   UNL     1      -9.493   8.935  -2.483  0.00  0.00    +0.002 C 
BRANCH  19  20
ATOM     20  C   UNL     1     -10.370   8.903  -1.293  0.00  0.00    -0.025 A 
ATOM     21  C   UNL     1     -10.847   7.685  -0.807  0.00  0.00    +0.008 A 
ATOM     22  C   UNL     1     -11.660   7.662   0.308  0.00  0.00    +0.001 A 
ATOM     23  C   UNL     1     -12.013   8.843   0.935  0.00  0.00    +0.000 A 
ATOM     24  C   UNL     1     -11.549  10.054   0.454  0.00  0.00    +0.001 A 
ATOM     25  C   UNL     1     -10.730  10.091  -0.656  0.00  0.00    +0.008 A 
ENDBRANCH  19  20
ENDBRANCH  17  18
ENDBRANCH  15  17
ENDBRANCH   2  10
BRANCH   5  26
ATOM     26  C   UNL     1      -2.556   3.867   0.025  0.00  0.00    +0.157 C 
BRANCH  26  27
ATOM     27  C   UNL     1      -1.132   3.374   0.050  0.00  0.00    +0.016 A 
ATOM     28  C   UNL     1      -0.111   4.227   0.425  0.00  0.00    +0.009 A 
ATOM     29  C   UNL     1       1.197   3.779   0.443  0.00  0.00    +0.004 A 
ATOM     30  C   UNL     1       1.488   2.473   0.095  0.00  0.00    +0.049 A 
ATOM     31  C   UNL     1       0.469   1.611  -0.277  0.00  0.00    +0.162 A 
ATOM     32  C   UNL     1      -0.847   2.064  -0.300  0.00  0.00    +0.166 A 
BRANCH  32  33
ATOM     33  O   UNL     1      -1.851   1.222  -0.664  0.00  0.00    -0.491 OA
ATOM     34  C   UNL     1      -2.392   0.379   0.355  0.00  0.00    +0.277 C 
ENDBRANCH  32  33
BRANCH  31  35
ATOM     35  O   UNL     1       0.754   0.327  -0.619  0.00  0.00    -0.491 OA
ATOM     36  C   UNL     1       2.127  -0.068  -0.572  0.00  0.00    +0.277 C 
ENDBRANCH  31  35
ENDBRANCH  26  27
ENDBRANCH   5  26
TORSDOF 8
