REMARK  Name = ZINC39742899
REMARK  15 active torsions:
REMARK  status: ('A' for Active; 'I' for Inactive)
REMARK    1  A    between atoms: C_1  and  C_2
REMARK    2  A    between atoms: C_2  and  C_3
REMARK    3  A    between atoms: C_3  and  C_5
REMARK    4  A    between atoms: C_3  and  S_17
REMARK    5  A    between atoms: N_7  and  C_8
REMARK    6  A    between atoms: C_11  and  N_14
REMARK    7  A    between atoms: S_17  and  C_18
REMARK    8  A    between atoms: C_21  and  C_24
REMARK    9  A    between atoms: N_22  and  C_23
REMARK   10  A    between atoms: C_24  and  O_25
REMARK   11  A    between atoms: O_25  and  C_26
REMARK   12  A    between atoms: C_29  and  C_35
REMARK   13  A    between atoms: C_31  and  O_32
REMARK   14  A    between atoms: O_32  and  C_33
REMARK   15  A    between atoms: C_33  and  C_34
REMARK                            x       y       z     vdW  Elec       q    Type
REMARK                         _______ _______ _______ _____ _____    ______ ____
ROOT
ATOM      1  C   UNL     1       1.954   1.903  -0.792  0.00  0.00    +0.192 A 
ATOM      2  N   UNL     1       0.784   2.470  -0.612  0.00  0.00    -0.122 NA
ATOM      3  N   UNL     1       0.923   3.745  -0.538  0.00  0.00    -0.130 NA
ATOM      4  C   UNL     1       2.179   4.066  -0.665  0.00  0.00    +0.172 A 
ATOM      5  N   UNL     1       2.882   2.904  -0.825  0.00  0.00    -0.306 N 
ATOM      6  C   UNL     1       4.330   2.763  -1.000  0.00  0.00    +0.153 C 
ENDROOT
BRANCH   1   7
ATOM      7  S   UNL     1       2.269   0.177  -0.953  0.00  0.00    -0.073 S 
BRANCH   7   8
ATOM      8  C   UNL     1       0.617  -0.570  -0.976  0.00  0.00    +0.140 C 
BRANCH   8   9
ATOM      9  C   UNL     1      -0.083  -0.203  -2.259  0.00  0.00    +0.231 C 
ATOM     10  O   UNL     1       0.566   0.081  -3.244  0.00  0.00    -0.274 OA
ATOM     11  N   UNL     1      -1.430  -0.189  -2.312  0.00  0.00    -0.285 N 
ATOM     12  H   UNL     1      -1.948  -0.483  -1.546  0.00  0.00    +0.155 HD
BRANCH  11  13
ATOM     13  C   UNL     1      -2.080   0.248  -3.471  0.00  0.00    +0.034 A 
ATOM     14  C   UNL     1      -3.273   0.953  -3.376  0.00  0.00    +0.025 A 
ATOM     15  C   UNL     1      -3.912   1.384  -4.522  0.00  0.00    +0.034 A 
ATOM     16  C   UNL     1      -3.365   1.114  -5.763  0.00  0.00    +0.126 A 
ATOM     17  C   UNL     1      -2.178   0.412  -5.861  0.00  0.00    +0.034 A 
ATOM     18  C   UNL     1      -1.531  -0.016  -4.719  0.00  0.00    +0.025 A 
BRANCH  16  19
ATOM     19  N   UNL     1      -4.053   1.577  -6.989  0.00  0.00    +0.056 N 
ATOM     20  O   UNL     1      -5.091   2.191  -6.905  0.00  0.00    -0.126 OA
ATOM     21  O   UNL     1      -3.576   1.342  -8.075  0.00  0.00    -0.126 OA
ENDBRANCH  16  19
ENDBRANCH  11  13
ENDBRANCH   8   9
BRANCH   8  23
ATOM     22  C   UNL     1       1.327  -2.472   0.481  0.00  0.00    +0.005 C 
ATOM     23  C   UNL     1       0.744  -2.092  -0.882  0.00  0.00    +0.020 C 
ENDBRANCH   8  23
ENDBRANCH   7   8
ENDBRANCH   1   7
BRANCH   4  24
ATOM     24  C   UNL     1       2.753   5.460  -0.634  0.00  0.00    +0.305 C 
BRANCH  24  25
ATOM     25  O   UNL     1       3.093   5.805   0.711  0.00  0.00    -0.481 OA
BRANCH  25  26
ATOM     26  C   UNL     1       3.627   7.039   0.915  0.00  0.00    +0.163 A 
ATOM     27  C   UNL     1       3.813   7.901  -0.154  0.00  0.00    +0.050 A 
ATOM     28  C   UNL     1       4.356   9.155   0.055  0.00  0.00    +0.007 A 
ATOM     29  C   UNL     1       4.714   9.552   1.330  0.00  0.00    -0.047 A 
ATOM     30  C   UNL     1       4.531   8.697   2.401  0.00  0.00    +0.052 A 
ATOM     31  C   UNL     1       3.982   7.441   2.199  0.00  0.00    +0.162 A 
ATOM     32  C   UNL     1       5.305  10.920   1.553  0.00  0.00    +0.044 C 
BRANCH  31  33
ATOM     33  O   UNL     1       3.796   6.601   3.252  0.00  0.00    -0.489 OA
BRANCH  33  34
ATOM     34  C   UNL     1       4.184   7.081   4.541  0.00  0.00    +0.226 C 
ATOM     35  C   UNL     1       3.902   6.006   5.592  0.00  0.00    +0.048 C 
ENDBRANCH  33  34
ENDBRANCH  31  33
ENDBRANCH  25  26
ENDBRANCH  24  25
ENDBRANCH   4  24
TORSDOF 11
