REMARK  Name = ZINC66958116
REMARK  7 active torsions:
REMARK  status: ('A' for Active; 'I' for Inactive)
REMARK    1  A    between atoms: C_1  and  C_2
REMARK    2  A    between atoms: C_5  and  C_7
REMARK    3  A    between atoms: C_7  and  C_9
REMARK    4  A    between atoms: C_7  and  N_10
REMARK    5  A    between atoms: N_13  and  C_14
REMARK    6  A    between atoms: C_18  and  C_20
REMARK    7  A    between atoms: C_23  and  C_25
REMARK                            x       y       z     vdW  Elec       q    Type
REMARK                         _______ _______ _______ _____ _____    ______ ____
ROOT
ATOM      1  N   UNL     1       2.198  -4.135  -0.925  0.00  0.00    -0.292 N 
ATOM      2  C   UNL     1       2.541  -5.312  -1.487  0.00  0.00    +0.304 C 
ATOM      3  O   UNL     1       1.889  -6.311  -1.251  0.00  0.00    -0.252 OA
ATOM      4  N   UNL     1       3.605  -5.380  -2.311  0.00  0.00    -0.269 N 
ATOM      5  H   UNL     1       2.718  -3.338  -1.114  0.00  0.00    +0.151 HD
ATOM      6  H   UNL     1       4.084  -4.572  -2.553  0.00  0.00    +0.156 HD
ENDROOT
BRANCH   4   7
ATOM      7  C   UNL     1       4.019  -6.618  -2.818  0.00  0.00    +0.035 A 
ATOM      8  C   UNL     1       5.372  -6.874  -3.007  0.00  0.00    +0.023 A 
ATOM      9  C   UNL     1       5.785  -8.094  -3.507  0.00  0.00    +0.003 A 
ATOM     10  C   UNL     1       4.858  -9.066  -3.822  0.00  0.00    +0.013 A 
ATOM     11  C   UNL     1       3.497  -8.819  -3.635  0.00  0.00    +0.039 A 
ATOM     12  C   UNL     1       3.080  -7.590  -3.125  0.00  0.00    +0.036 A 
BRANCH  11  13
ATOM     13  C   UNL     1       2.501  -9.859  -3.971  0.00  0.00    +0.227 A 
ATOM     14  N   UNL     1       1.200  -9.743  -3.846  0.00  0.00    -0.217 NA
ATOM     15  C   UNL     1       0.627 -10.887  -4.248  0.00  0.00    +0.156 A 
ATOM     16  C   UNL     1       1.606 -11.726  -4.631  0.00  0.00    +0.123 A 
ATOM     17  O   UNL     1       2.776 -11.079  -4.463  0.00  0.00    -0.441 OA
ATOM     18  C   UNL     1       1.427 -13.127  -5.157  0.00  0.00    +0.088 C 
ENDBRANCH  11  13
ENDBRANCH   4   7
BRANCH   1  19
ATOM     19  C   UNL     1       1.041  -4.061  -0.030  0.00  0.00    +0.108 C 
ATOM     20  C   UNL     1       1.468  -4.446   1.388  0.00  0.00    +0.033 C 
BRANCH  19  25
ATOM     21  C   UNL     1      -0.047   1.499  -0.023  0.00  0.00    +0.051 C 
ATOM     22  C   UNL     1      -0.019  -0.008  -0.023  0.00  0.00    -0.013 A 
ATOM     23  C   UNL     1      -1.056  -0.881  -0.016  0.00  0.00    +0.011 A 
ATOM     24  C   UNL     1      -0.791  -2.237  -0.018  0.00  0.00    +0.013 A 
ATOM     25  C   UNL     1       0.499  -2.655  -0.026  0.00  0.00    +0.010 A 
ATOM     26  S   UNL     1       1.388  -1.107  -0.039  0.00  0.00    -0.097 S 
ENDBRANCH  19  25
ENDBRANCH   1  19
TORSDOF 4
