REMARK  Name = ZINC66983200
REMARK  6 active torsions:
REMARK  status: ('A' for Active; 'I' for Inactive)
REMARK    1  A    between atoms: C_1  and  N_2
REMARK    2  A    between atoms: N_2  and  C_3
REMARK    3  A    between atoms: N_2  and  C_4
REMARK    4  A    between atoms: C_4  and  C_6
REMARK    5  A    between atoms: C_4  and  C_20
REMARK    6  A    between atoms: C_6  and  N_7
REMARK                            x       y       z     vdW  Elec       q    Type
REMARK                         _______ _______ _______ _____ _____    ______ ____
ROOT
ATOM      1  N   UNL     1      -0.852  -2.635   1.132  0.00  0.00    -0.300 N 
ATOM      2  C   UNL     1      -1.060  -3.937   1.409  0.00  0.00    +0.306 C 
ATOM      3  O   UNL     1      -1.677  -4.634   0.627  0.00  0.00    -0.252 OA
ATOM      4  N   UNL     1      -0.583  -4.468   2.553  0.00  0.00    -0.255 N 
ATOM      5  C   UNL     1      -0.543  -5.899   2.863  0.00  0.00    +0.120 C 
ATOM      6  C   UNL     1       0.081  -5.991   4.264  0.00  0.00    +0.056 C 
ATOM      7  C   UNL     1       0.357  -4.556   4.654  0.00  0.00    -0.023 A 
ATOM      8  C   UNL     1      -0.048  -3.732   3.616  0.00  0.00    +0.041 A 
ATOM      9  C   UNL     1       0.113  -2.352   3.744  0.00  0.00    +0.025 A 
ATOM     10  C   UNL     1       0.670  -1.819   4.888  0.00  0.00    +0.017 A 
ATOM     11  C   UNL     1       1.074  -2.651   5.917  0.00  0.00    +0.018 A 
ATOM     12  C   UNL     1       0.910  -4.019   5.800  0.00  0.00    +0.020 A 
ATOM     13 BR   UNL     1       1.837  -1.917   7.484  0.00  0.00    -0.050 Br
ATOM     14  H   UNL     1      -0.271  -2.105   1.700  0.00  0.00    +0.150 HD
ENDROOT
BRANCH   1  15
ATOM     15  C   UNL     1      -1.504  -2.019  -0.026  0.00  0.00    +0.098 C 
BRANCH  15  16
ATOM     16  C   UNL     1      -1.206  -0.519  -0.042  0.00  0.00    +0.016 C 
BRANCH  16  17
ATOM     17  C   UNL     1       0.268  -0.301  -0.269  0.00  0.00    +0.093 A 
ATOM     18  C   UNL     1       0.844   0.027  -1.439  0.00  0.00    +0.043 A 
ATOM     19  C   UNL     1       2.233   0.129  -1.198  0.00  0.00    +0.041 A 
ATOM     20  C   UNL     1       2.423  -0.143   0.106  0.00  0.00    +0.195 A 
ATOM     21  O   UNL     1       1.229  -0.397   0.665  0.00  0.00    -0.469 OA
ENDBRANCH  16  17
BRANCH  16  23
ATOM     22  C   UNL     1      -1.413   1.528   1.193  0.00  0.00    -0.096 C 
ATOM     23  N   UNL     1      -1.595   0.071   1.246  0.00  0.00    +0.384 N 
ATOM     24  C   UNL     1      -3.006  -0.236   1.519  0.00  0.00    -0.096 C 
ATOM     25  H   UNL     1      -1.019  -0.313   1.980  0.00  0.00    -0.082 HD
ENDBRANCH  16  23
ENDBRANCH  15  16
ENDBRANCH   1  15
TORSDOF 4
