REMARK  Name = ZINC02385475
REMARK  8 active torsions:
REMARK  status: ('A' for Active; 'I' for Inactive)
REMARK    1  A    between atoms: C_1  and  C_2
REMARK    2  A    between atoms: C_7  and  N_8
REMARK    3  A    between atoms: N_11  and  N_12
REMARK    4  A    between atoms: C_13  and  C_15
REMARK    5  A    between atoms: C_15  and  O_16
REMARK    6  A    between atoms: O_16  and  C_17
REMARK    7  A    between atoms: C_24  and  C_26
REMARK    8  A    between atoms: C_24  and  C_27
REMARK                            x       y       z     vdW  Elec       q    Type
REMARK                         _______ _______ _______ _____ _____    ______ ____
ROOT
ATOM      1  N   UNL     1       1.124   3.303  -0.017  0.00  0.00    -0.230 N 
ATOM      2  C   UNL     1       2.281   3.993  -0.037  0.00  0.00    +0.267 C 
ATOM      3  O   UNL     1       3.340   3.401  -0.054  0.00  0.00    -0.271 OA
ATOM      4  H   UNL     1       0.277   3.776  -0.004  0.00  0.00    +0.173 HD
ENDROOT
BRANCH   1   8
ATOM      5  N   UNL     1      -1.191   1.870   0.018  0.00  0.00    -0.268 N 
ATOM      6  C   UNL     1      -0.014   1.212   0.005  0.00  0.00    +0.320 C 
ATOM      7  O   UNL     1       0.003  -0.004   0.007  0.00  0.00    -0.251 OA
ATOM      8  N   UNL     1       1.143   1.902  -0.015  0.00  0.00    -0.218 N 
ATOM      9  H   UNL     1      -1.205   2.836   0.099  0.00  0.00    +0.156 HD
ATOM     10  H   UNL     1       1.990   1.429  -0.029  0.00  0.00    +0.174 HD
BRANCH   5  17
ATOM     11  C   UNL     1      -3.551   3.054   1.078  0.00  0.00    +0.045 C 
ATOM     12  C   UNL     1      -3.566   1.699   0.418  0.00  0.00    -0.029 A 
ATOM     13  C   UNL     1      -4.750   0.994   0.314  0.00  0.00    +0.005 A 
ATOM     14  C   UNL     1      -4.765  -0.249  -0.291  0.00  0.00    +0.000 A 
ATOM     15  C   UNL     1      -3.596  -0.790  -0.795  0.00  0.00    +0.002 A 
ATOM     16  C   UNL     1      -2.411  -0.088  -0.699  0.00  0.00    +0.023 A 
ATOM     17  C   UNL     1      -2.391   1.158  -0.086  0.00  0.00    +0.038 A 
ENDBRANCH   5  17
ENDBRANCH   1   8
BRANCH   2  18
ATOM     18  C   UNL     1       2.260   5.500  -0.040  0.00  0.00    +0.326 C 
BRANCH  18  19
ATOM     19  O   UNL     1       3.601   5.995  -0.063  0.00  0.00    -0.479 OA
BRANCH  19  20
ATOM     20  C   UNL     1       3.760   7.345  -0.067  0.00  0.00    +0.163 A 
ATOM     21  C   UNL     1       2.650   8.171  -0.050  0.00  0.00    +0.049 A 
ATOM     22  C   UNL     1       2.804   9.545  -0.056  0.00  0.00    +0.004 A 
ATOM     23  C   UNL     1       4.073  10.095  -0.083  0.00  0.00    +0.007 A 
ATOM     24  C   UNL     1       5.181   9.276  -0.102  0.00  0.00    +0.002 A 
ATOM     25  C   UNL     1       5.044   7.895  -0.084  0.00  0.00    +0.166 A 
ATOM     26  O   UNL     1       6.259   7.279  -0.088  0.00  0.00    -0.482 OA
ATOM     27  C   UNL     1       7.259   8.204  -0.547  0.00  0.00    +0.109 C 
ATOM     28  C   UNL     1       6.667   9.575  -0.142  0.00  0.00    +0.086 C 
ATOM     29  C   UNL     1       7.427   8.112  -2.065  0.00  0.00    +0.056 C 
ATOM     30  C   UNL     1       8.592   7.958   0.164  0.00  0.00    +0.056 C 
ENDBRANCH  19  20
ENDBRANCH  18  19
ENDBRANCH   2  18
TORSDOF 5
