REMARK  Name = ZINC60158388
REMARK  9 active torsions:
REMARK  status: ('A' for Active; 'I' for Inactive)
REMARK    1  A    between atoms: C_4  and  C_26
REMARK    2  A    between atoms: C_6  and  N_7
REMARK    3  A    between atoms: C_8  and  C_10
REMARK    4  A    between atoms: C_10  and  C_11
REMARK    5  A    between atoms: C_11  and  N_12
REMARK    6  A    between atoms: N_12  and  C_13
REMARK    7  A    between atoms: C_16  and  S_22
REMARK    8  A    between atoms: C_18  and  N_19
REMARK    9  A    between atoms: S_22  and  N_25
REMARK                            x       y       z     vdW  Elec       q    Type
REMARK                         _______ _______ _______ _____ _____    ______ ____
ROOT
ATOM      1  C   UNL     1      -4.820   0.140   0.522  0.00  0.00    +0.111 C 
ENDROOT
BRANCH   1   2
ATOM      2  N   UNL     1      -6.070  -0.620   0.602  0.00  0.00    -0.342 N 
ATOM      3  H   UNL     1      -6.049  -1.590   0.610  0.00  0.00    +0.146 HD
BRANCH   2   4
ATOM      4  C   UNL     1      -7.293   0.052   0.665  0.00  0.00    +0.058 A 
ATOM      5  C   UNL     1      -7.332   1.437   0.563  0.00  0.00    +0.027 A 
ATOM      6  C   UNL     1      -8.543   2.099   0.625  0.00  0.00    +0.030 A 
ATOM      7  C   UNL     1      -9.716   1.384   0.789  0.00  0.00    +0.107 A 
ATOM      8  C   UNL     1      -9.680   0.005   0.891  0.00  0.00    +0.063 A 
ATOM      9  C   UNL     1      -8.473  -0.663   0.824  0.00  0.00    +0.149 A 
BRANCH   9  10
ATOM     10  N   UNL     1      -8.437  -2.139   0.927  0.00  0.00    +0.058 N 
ATOM     11  O   UNL     1      -7.659  -2.773   0.253  0.00  0.00    -0.126 OA
ATOM     12  O   UNL     1      -9.184  -2.710   1.686  0.00  0.00    -0.126 OA
ENDBRANCH   9  10
BRANCH   7  13
ATOM     13  S   UNL     1     -11.258   2.232   0.868  0.00  0.00    +0.056 S 
ATOM     14  O   UNL     1     -12.153   1.381   1.571  0.00  0.00    -0.153 OA
ATOM     15  O   UNL     1     -10.972   3.556   1.295  0.00  0.00    -0.153 OA
BRANCH  13  16
ATOM     16  N   UNL     1     -11.833   2.347  -0.680  0.00  0.00    -0.204 NA
ATOM     17  H   UNL     1     -12.789   2.365  -0.843  0.00  0.00    +0.144 HD
ATOM     18  H   UNL     1     -11.214   2.397  -1.425  0.00  0.00    +0.144 HD
ENDBRANCH  13  16
ENDBRANCH   7  13
ENDBRANCH   2   4
ENDBRANCH   1   2
BRANCH   1  19
ATOM     19  C   UNL     1      -3.638  -0.829   0.464  0.00  0.00    +0.114 C 
BRANCH  19  21
ATOM     20  N   UNL     1      -1.172  -0.696   0.322  0.00  0.00    -0.285 N 
ATOM     21  C   UNL     1      -2.351  -0.048   0.383  0.00  0.00    +0.219 C 
ATOM     22  O   UNL     1      -2.378   1.165   0.372  0.00  0.00    -0.275 OA
ATOM     23  H   UNL     1      -1.153  -1.664   0.254  0.00  0.00    +0.155 HD
BRANCH  20  29
ATOM     24  C   UNL     1       0.113   1.196   1.099  0.00  0.00    +0.026 A 
ATOM     25  C   UNL     1       1.296   1.907   1.132  0.00  0.00    +0.041 A 
ATOM     26  C   UNL     1       2.397   1.454   0.425  0.00  0.00    +0.135 A 
ATOM     27  C   UNL     1       2.314   0.288  -0.317  0.00  0.00    +0.092 A 
ATOM     28  C   UNL     1       1.132  -0.426  -0.353  0.00  0.00    +0.038 A 
ATOM     29  C   UNL     1       0.027   0.026   0.356  0.00  0.00    +0.034 A 
ATOM     30  F   UNL     1       3.554   2.152   0.458  0.00  0.00    -0.205 F 
BRANCH  27  31
ATOM     31  C   UNL     1       3.513  -0.202  -1.087  0.00  0.00    +0.420 C 
ATOM     32  F   UNL     1       3.188  -1.389  -1.752  0.00  0.00    -0.166 F 
ATOM     33  F   UNL     1       3.896   0.766  -2.021  0.00  0.00    -0.166 F 
ATOM     34  F   UNL     1       4.570  -0.439  -0.201  0.00  0.00    -0.166 F 
ENDBRANCH  27  31
ENDBRANCH  20  29
ENDBRANCH  19  21
ENDBRANCH   1  19
TORSDOF 9
