REMARK  Name = ZINC13052185
REMARK  12 active torsions:
REMARK  status: ('A' for Active; 'I' for Inactive)
REMARK    1  A    between atoms: C_1  and  C_2
REMARK    2  A    between atoms: C_2  and  C_4
REMARK    3  A    between atoms: C_2  and  O_34
REMARK    4  A    between atoms: C_4  and  N_5
REMARK    5  A    between atoms: C_11  and  C_32
REMARK    6  A    between atoms: C_15  and  S_16
REMARK    7  A    between atoms: S_16  and  C_17
REMARK    8  A    between atoms: C_17  and  C_18
REMARK    9  A    between atoms: N_20  and  C_21
REMARK   10  A    between atoms: N_20  and  C_27
REMARK   11  A    between atoms: C_21  and  C_22
REMARK   12  A    between atoms: C_27  and  C_28
REMARK                            x       y       z     vdW  Elec       q    Type
REMARK                         _______ _______ _______ _____ _____    ______ ____
ROOT
ATOM      1  N   UNL     1       1.090  -1.580  -1.894  0.00  0.00    -0.285 N 
ATOM      2  C   UNL     1       1.744  -1.848  -3.048  0.00  0.00    +0.262 A 
ATOM      3  O   UNL     1       1.956  -2.993  -3.401  0.00  0.00    -0.267 OA
ATOM      4  C   UNL     1       2.190  -0.704  -3.859  0.00  0.00    +0.065 A 
ATOM      5  C   UNL     1       2.872  -0.881  -5.063  0.00  0.00    +0.016 A 
ATOM      6  C   UNL     1       3.268   0.206  -5.787  0.00  0.00    +0.016 A 
ATOM      7  C   UNL     1       2.997   1.503  -5.332  0.00  0.00    +0.065 A 
ATOM      8  C   UNL     1       2.320   1.703  -4.136  0.00  0.00    +0.043 A 
ATOM      9  C   UNL     1       1.908   0.598  -3.386  0.00  0.00    +0.080 A 
ATOM     10  N   UNL     1       1.242   0.745  -2.217  0.00  0.00    -0.223 NA
ATOM     11  C   UNL     1       0.859  -0.290  -1.510  0.00  0.00    +0.173 A 
ENDROOT
BRANCH   7  12
ATOM     12  C   UNL     1       3.436   2.668  -6.131  0.00  0.00    +0.387 C 
ATOM     13  O   UNL     1       3.204   3.794  -5.741  0.00  0.00    -0.241 OA
ATOM     14  O   UNL     1       4.094   2.480  -7.292  0.00  0.00    -0.241 OA
ENDBRANCH   7  12
BRANCH   1  15
ATOM     15  C   UNL     1       0.625  -2.683  -1.050  0.00  0.00    +0.158 C 
BRANCH  15  17
ATOM     16  C   UNL     1      -1.279  -4.233  -0.583  0.00  0.00    +0.039 C 
ATOM     17  C   UNL     1      -0.793  -3.081  -1.465  0.00  0.00    +0.131 C 
BRANCH  17  18
ATOM     18  O   UNL     1      -1.667  -1.961  -1.309  0.00  0.00    -0.390 OA
ATOM     19  H   UNL     1      -1.718  -1.625  -0.403  0.00  0.00    +0.210 HD
ENDBRANCH  17  18
ENDBRANCH  15  17
ENDBRANCH   1  15
BRANCH  11  20
ATOM     20  S   UNL     1       0.002  -0.004   0.002  0.00  0.00    -0.078 S 
BRANCH  20  21
ATOM     21  C   UNL     1      -0.022   1.806   0.012  0.00  0.00    +0.173 C 
BRANCH  21  22
ATOM     22  C   UNL     1      -0.728   2.292   1.252  0.00  0.00    +0.226 C 
ATOM     23  O   UNL     1      -1.170   1.493   2.050  0.00  0.00    -0.275 OA
ATOM     24  N   UNL     1      -0.867   3.614   1.474  0.00  0.00    -0.285 N 
BRANCH  24  25
ATOM     25  C   UNL     1      -1.553   4.086   2.679  0.00  0.00    +0.182 C 
BRANCH  25  26
ATOM     26  C   UNL     1      -0.551   4.261   3.791  0.00  0.00    +0.122 A 
ATOM     27  C   UNL     1       0.137   5.385   4.060  0.00  0.00    +0.046 A 
ATOM     28  C   UNL     1       0.957   5.106   5.178  0.00  0.00    +0.041 A 
ATOM     29  C   UNL     1       0.721   3.828   5.525  0.00  0.00    +0.195 A 
ATOM     30  O   UNL     1      -0.197   3.323   4.685  0.00  0.00    -0.466 OA
ENDBRANCH  25  26
ENDBRANCH  24  25
BRANCH  24  31
ATOM     31  C   UNL     1      -0.332   4.579   0.509  0.00  0.00    +0.221 C 
BRANCH  31  32
ATOM     32  C   UNL     1      -1.402   4.901  -0.536  0.00  0.00    +0.405 C 
ATOM     33  F   UNL     1      -2.523   5.448   0.098  0.00  0.00    -0.169 F 
ATOM     34  F   UNL     1      -0.892   5.822  -1.457  0.00  0.00    -0.169 F 
ATOM     35  F   UNL     1      -1.770   3.728  -1.204  0.00  0.00    -0.169 F 
ENDBRANCH  31  32
ENDBRANCH  24  31
ENDBRANCH  21  22
ENDBRANCH  20  21
ENDBRANCH  11  20
TORSDOF 11
