REMARK  Name = ZINC09807834
REMARK  9 active torsions:
REMARK  status: ('A' for Active; 'I' for Inactive)
REMARK    1  A    between atoms: C_1  and  C_2
REMARK    2  A    between atoms: C_2  and  O_3
REMARK    3  A    between atoms: O_3  and  C_4
REMARK    4  A    between atoms: C_4  and  C_6
REMARK    5  A    between atoms: C_12  and  C_14
REMARK    6  A    between atoms: C_12  and  C_21
REMARK    7  A    between atoms: C_12  and  N_56
REMARK    8  A    between atoms: C_22  and  O_34
REMARK    9  A    between atoms: C_27  and  C_29
REMARK                            x       y       z     vdW  Elec       q    Type
REMARK                         _______ _______ _______ _____ _____    ______ ____
ROOT
ATOM      1  C   UNL     1       5.243   2.850  -0.029  0.00  0.00    +0.005 C 
ENDROOT
BRANCH   1   2
ATOM      2  C   UNL     1       3.837   2.307  -0.021  0.00  0.00    +0.045 A 
ATOM      3  C   UNL     1       3.424   1.035  -0.024  0.00  0.00    +0.225 A 
ATOM      4  N   UNL     1       2.084   0.733  -0.014  0.00  0.00    -0.173 N 
ATOM      5  C   UNL     1       1.208   1.783   0.000  0.00  0.00    +0.199 A 
ATOM      6  S   UNL     1       2.287   3.195  -0.002  0.00  0.00    -0.050 S 
ATOM      7  N   UNL     1      -0.016   1.336   0.009  0.00  0.00    -0.197 NA
ATOM      8  C   UNL     1       0.002  -0.004   0.002  0.00  0.00    +0.218 A 
ATOM      9  N   UNL     1       1.251  -0.416  -0.012  0.00  0.00    -0.138 NA
BRANCH   8  10
ATOM     10  C   UNL     1      -1.190  -0.878   0.009  0.00  0.00    +0.173 A 
ATOM     11  C   UNL     1      -2.484  -0.462   0.023  0.00  0.00    +0.053 A 
ATOM     12  C   UNL     1      -3.283  -1.623   0.024  0.00  0.00    +0.042 A 
ATOM     13  C   UNL     1      -2.446  -2.679   0.011  0.00  0.00    +0.196 A 
ATOM     14  O   UNL     1      -1.182  -2.225  -0.004  0.00  0.00    -0.460 OA
ENDBRANCH   8  10
BRANCH   3  15
ATOM     15  O   UNL     1       4.340   0.029  -0.039  0.00  0.00    -0.492 OA
ATOM     16  H   UNL     1       4.598  -0.256  -0.926  0.00  0.00    +0.294 HD
ENDBRANCH   3  15
ENDBRANCH   1   2
BRANCH   1  22
ATOM     17  C   UNL     1       5.085   4.640  -3.338  0.00  0.00    +0.081 C 
ATOM     18  C   UNL     1       6.409   5.404  -3.254  0.00  0.00    +0.011 C 
ATOM     19  C   UNL     1       6.634   5.862  -1.811  0.00  0.00    -0.018 C 
ATOM     20  C   UNL     1       6.627   4.642  -0.887  0.00  0.00    -0.077 C 
ATOM     21  C   UNL     1       5.122   3.455  -2.370  0.00  0.00    -0.063 C 
ATOM     22  N   UNL     1       5.317   3.965  -0.996  0.00  0.00    +0.388 N 
ATOM     23  H   UNL     1       4.574   4.641  -0.783  0.00  0.00    -0.080 HD
BRANCH  17  24
ATOM     24  C   UNL     1       4.883   4.134  -4.744  0.00  0.00    +0.308 C 
ATOM     25  O   UNL     1       4.780   2.948  -4.950  0.00  0.00    -0.251 OA
BRANCH  24  26
ATOM     26  O   UNL     1       4.817   5.002  -5.766  0.00  0.00    -0.465 OA
BRANCH  26  28
ATOM     27  C   UNL     1       4.573   5.577  -8.120  0.00  0.00    +0.048 C 
ATOM     28  C   UNL     1       4.622   4.444  -7.092  0.00  0.00    +0.229 C 
ENDBRANCH  26  28
ENDBRANCH  24  26
ENDBRANCH  17  24
ENDBRANCH   1  22
BRANCH   1  29
ATOM     29  C   UNL     1       5.591   3.366   1.343  0.00  0.00    -0.056 A 
ATOM     30  C   UNL     1       5.154   4.615   1.743  0.00  0.00    +0.004 A 
ATOM     31  C   UNL     1       5.468   5.086   3.004  0.00  0.00    +0.020 A 
ATOM     32  C   UNL     1       6.229   4.312   3.862  0.00  0.00    +0.041 A 
ATOM     33  C   UNL     1       6.671   3.065   3.459  0.00  0.00    +0.020 A 
ATOM     34  C   UNL     1       6.352   2.592   2.200  0.00  0.00    +0.004 A 
ATOM     35 CL   UNL     1       6.631   4.907   5.442  0.00  0.00    -0.084 Cl
ENDBRANCH   1  29
TORSDOF 8
