REMARK  Name = ZINC05051932
REMARK  14 active torsions:
REMARK  status: ('A' for Active; 'I' for Inactive)
REMARK    1  A    between atoms: C_1  and  C_2
REMARK    2  A    between atoms: C_2  and  C_32
REMARK    3  A    between atoms: C_6  and  O_30
REMARK    4  A    between atoms: C_16  and  O_27
REMARK    5  A    between atoms: C_17  and  O_25
REMARK    6  A    between atoms: C_18  and  C_19
REMARK    7  A    between atoms: C_19  and  C_20
REMARK    8  A    between atoms: C_20  and  C_21
REMARK    9  A    between atoms: C_21  and  C_22
REMARK   10  A    between atoms: C_21  and  C_23
REMARK   11  A    between atoms: C_21  and  O_24
REMARK   12  A    between atoms: O_25  and  C_26
REMARK   13  A    between atoms: O_27  and  C_28
REMARK   14  A    between atoms: O_30  and  C_31
REMARK                            x       y       z     vdW  Elec       q    Type
REMARK                         _______ _______ _______ _____ _____    ______ ____
ROOT
ATOM      1  C   UNL     1      -0.573   1.891  -1.280  0.00  0.00    +0.055 C 
ATOM      2  C   UNL     1       0.166   1.360  -0.050  0.00  0.00    +0.105 C 
ATOM      3  C   UNL     1       1.628   1.822  -0.085  0.00  0.00    +0.052 C 
ATOM      4  C   UNL     1       2.307   1.370   1.210  0.00  0.00    +0.046 C 
ATOM      5  C   UNL     1       1.996  -0.083   1.465  0.00  0.00    +0.037 A 
ATOM      6  C   UNL     1       2.790  -0.789   2.362  0.00  0.00    +0.130 A 
ATOM      7  C   UNL     1       2.529  -2.123   2.623  0.00  0.00    +0.092 A 
ATOM      8  C   UNL     1       1.469  -2.761   1.990  0.00  0.00    +0.139 A 
ATOM      9  C   UNL     1       0.680  -2.060   1.095  0.00  0.00    +0.041 A 
ATOM     10  C   UNL     1       0.944  -0.718   0.831  0.00  0.00    +0.135 A 
ATOM     11  O   UNL     1       0.145  -0.068  -0.055  0.00  0.00    -0.485 OA
ATOM     12  C   UNL     1      -0.471  -2.730   0.395  0.00  0.00    +0.081 C 
ATOM     13  C   UNL     1      -0.865  -3.990   1.116  0.00  0.00    +0.006 A 
ATOM     14  C   UNL     1       0.002  -4.593   2.013  0.00  0.00    +0.136 A 
ATOM     15  C   UNL     1      -0.382  -5.755   2.672  0.00  0.00    +0.096 A 
ATOM     16  C   UNL     1      -1.627  -6.311   2.434  0.00  0.00    +0.165 A 
ATOM     17  C   UNL     1      -2.495  -5.704   1.532  0.00  0.00    +0.165 A 
ATOM     18  C   UNL     1      -2.110  -4.547   0.877  0.00  0.00    +0.005 A 
ATOM     19  O   UNL     1       1.226  -4.066   2.261  0.00  0.00    -0.455 OA
ATOM     20  C   UNL     1      -0.508   1.881   1.221  0.00  0.00    +0.055 C 
ENDROOT
BRANCH  17  21
ATOM     21  O   UNL     1      -3.720  -6.247   1.294  0.00  0.00    -0.491 OA
ATOM     22  C   UNL     1      -4.772  -5.894   2.193  0.00  0.00    +0.277 C 
ENDBRANCH  17  21
BRANCH  16  23
ATOM     23  O   UNL     1      -2.001  -7.447   3.081  0.00  0.00    -0.491 OA
ATOM     24  C   UNL     1      -1.059  -8.014   3.993  0.00  0.00    +0.277 C 
ENDBRANCH  16  23
BRANCH   6  25
ATOM     25  O   UNL     1       3.827  -0.168   2.983  0.00  0.00    -0.495 OA
ATOM     26  C   UNL     1       4.602  -0.952   3.892  0.00  0.00    +0.277 C 
ENDBRANCH   6  25
BRANCH  18  27
ATOM     27  C   UNL     1      -3.050  -3.890  -0.101  0.00  0.00    +0.042 C 
BRANCH  27  28
ATOM     28  C   UNL     1      -2.889  -4.539  -1.477  0.00  0.00    +0.039 C 
BRANCH  28  29
ATOM     29  C   UNL     1      -3.743  -3.786  -2.499  0.00  0.00    +0.061 C 
ATOM     30  C   UNL     1      -3.681  -4.508  -3.847  0.00  0.00    +0.041 C 
ATOM     31  C   UNL     1      -5.194  -3.736  -2.014  0.00  0.00    +0.041 C 
BRANCH  29  32
ATOM     32  O   UNL     1      -3.245  -2.455  -2.649  0.00  0.00    -0.389 OA
ATOM     33  H   UNL     1      -3.740  -1.919  -3.283  0.00  0.00    +0.210 HD
ENDBRANCH  29  32
ENDBRANCH  28  29
ENDBRANCH  27  28
ENDBRANCH  18  27
TORSDOF 7
