REMARK  Name = ZINC06279982
REMARK  9 active torsions:
REMARK  status: ('A' for Active; 'I' for Inactive)
REMARK    1  A    between atoms: C_1  and  C_2
REMARK    2  A    between atoms: C_5  and  N_8
REMARK    3  A    between atoms: C_9  and  C_35
REMARK    4  A    between atoms: C_11  and  C_14
REMARK    5  A    between atoms: C_12  and  C_13
REMARK    6  A    between atoms: N_15  and  N_16
REMARK    7  A    between atoms: C_17  and  C_19
REMARK    8  A    between atoms: C_22  and  C_25
REMARK    9  A    between atoms: C_25  and  N_68
REMARK                            x       y       z     vdW  Elec       q    Type
REMARK                         _______ _______ _______ _____ _____    ______ ____
ROOT
ATOM      1  N   UNL     1       1.079   3.535   0.011  0.00  0.00    -0.203 N 
ATOM      2  C   UNL     1       2.236   4.225   0.003  0.00  0.00    +0.263 C 
ATOM      3  O   UNL     1       3.298   3.631  -0.010  0.00  0.00    -0.268 OA
ATOM      4  H   UNL     1       0.232   4.008   0.021  0.00  0.00    +0.178 HD
ENDROOT
BRANCH   2   5
ATOM      5  C   UNL     1       2.216   5.702   0.011  0.00  0.00    +0.038 A 
ATOM      6  C   UNL     1       1.000   6.387   0.021  0.00  0.00    +0.013 A 
ATOM      7  C   UNL     1       0.988   7.766   0.033  0.00  0.00    +0.002 A 
ATOM      8  C   UNL     1       2.179   8.472   0.026  0.00  0.00    -0.064 A 
ATOM      9  C   UNL     1       3.388   7.799   0.011  0.00  0.00    +0.002 A 
ATOM     10  C   UNL     1       3.414   6.420   0.004  0.00  0.00    +0.013 A 
BRANCH   8  11
ATOM     11  C   UNL     1       2.158   9.978   0.033  0.00  0.00    -0.043 C 
BRANCH  11  21
ATOM     12  C   UNL     1       2.334  11.932  -1.389  0.00  0.00    -0.073 C 
ATOM     13  C   UNL     1       2.671  12.338  -2.825  0.00  0.00    +0.017 C 
ATOM     14  C   UNL     1       1.661  11.748  -3.776  0.00  0.00    -0.048 A 
ATOM     15  C   UNL     1       1.575  12.271  -5.057  0.00  0.00    +0.004 A 
ATOM     16  C   UNL     1       0.667  11.757  -5.961  0.00  0.00    +0.000 A 
ATOM     17  C   UNL     1      -0.161  10.715  -5.587  0.00  0.00    +0.000 A 
ATOM     18  C   UNL     1      -0.077  10.194  -4.311  0.00  0.00    +0.002 A 
ATOM     19  C   UNL     1       0.834  10.710  -3.401  0.00  0.00    -0.061 A 
ATOM     20  C   UNL     1       0.886  10.112  -2.020  0.00  0.00    -0.042 C 
ATOM     21  N   UNL     1       2.156  10.467  -1.365  0.00  0.00    +0.385 N 
ATOM     22  H   UNL     1       2.931  10.026  -1.874  0.00  0.00    -0.081 HD
ENDBRANCH  11  21
ENDBRANCH   8  11
ENDBRANCH   2   5
BRANCH   1  24
ATOM     23  C   UNL     1      -0.018   1.470   0.010  0.00  0.00    +0.140 C 
ATOM     24  N   UNL     1       1.097   2.134   0.003  0.00  0.00    -0.187 NA
BRANCH  23  28
ATOM     25  N   UNL     1       0.689  -2.104  -0.015  0.00  0.00    -0.317 N 
ATOM     26  C   UNL     1      -0.676  -2.155  -0.003  0.00  0.00    +0.022 A 
ATOM     27  C   UNL     1      -1.159  -0.899   0.008  0.00  0.00    +0.032 A 
ATOM     28  C   UNL     1       0.002  -0.004   0.002  0.00  0.00    +0.016 A 
ATOM     29  C   UNL     1       1.106  -0.808  -0.018  0.00  0.00    +0.030 A 
ATOM     30  C   UNL     1       2.538  -0.342  -0.037  0.00  0.00    +0.064 C 
ATOM     31  C   UNL     1      -1.505  -3.413  -0.002  0.00  0.00    +0.064 C 
BRANCH  25  36
ATOM     32  C   UNL     1       4.119  -6.625  -0.074  0.00  0.00    +0.044 C 
ATOM     33  C   UNL     1       3.208  -5.425  -0.058  0.00  0.00    -0.050 A 
ATOM     34  C   UNL     1       2.377  -5.175  -1.135  0.00  0.00    +0.005 A 
ATOM     35  C   UNL     1       1.541  -4.076  -1.123  0.00  0.00    +0.026 A 
ATOM     36  C   UNL     1       1.536  -3.220  -0.030  0.00  0.00    +0.047 A 
ATOM     37  C   UNL     1       2.375  -3.471   1.048  0.00  0.00    +0.026 A 
ATOM     38  C   UNL     1       3.205  -4.575   1.033  0.00  0.00    +0.005 A 
ENDBRANCH  25  36
ENDBRANCH  23  28
ENDBRANCH   1  24
TORSDOF 6
