REMARK  Name = ZINC62319416
REMARK  10 active torsions:
REMARK  status: ('A' for Active; 'I' for Inactive)
REMARK    1  A    between atoms: C_1  and  C_2
REMARK    2  A    between atoms: C_2  and  C_3
REMARK    3  A    between atoms: C_3  and  C_5
REMARK    4  A    between atoms: C_3  and  N_6
REMARK    5  A    between atoms: C_7  and  C_9
REMARK    6  A    between atoms: N_11  and  C_21
REMARK    7  A    between atoms: C_16  and  N_20
REMARK    8  A    between atoms: C_21  and  C_23
REMARK    9  A    between atoms: C_21  and  C_24
REMARK   10  A    between atoms: C_24  and  C_25
REMARK                            x       y       z     vdW  Elec       q    Type
REMARK                         _______ _______ _______ _____ _____    ______ ____
ROOT
ATOM      1  C   UNL     1      -4.122   0.441  -2.636  0.00  0.00    +0.100 A 
ATOM      2  C   UNL     1      -5.484   0.661  -2.646  0.00  0.00    +0.103 A 
ATOM      3  N   UNL     1      -6.123   1.129  -3.727  0.00  0.00    -0.343 N 
ATOM      4  C   UNL     1      -5.476   1.425  -4.907  0.00  0.00    +0.055 A 
ATOM      5  C   UNL     1      -6.186   1.909  -6.001  0.00  0.00    +0.026 A 
ATOM      6  C   UNL     1      -5.531   2.203  -7.179  0.00  0.00    +0.004 A 
ATOM      7  C   UNL     1      -4.163   2.024  -7.294  0.00  0.00    +0.023 A 
ATOM      8  C   UNL     1      -3.430   1.544  -6.220  0.00  0.00    +0.037 A 
ATOM      9  C   UNL     1      -4.086   1.241  -5.018  0.00  0.00    +0.067 A 
ATOM     10  C   UNL     1      -3.345   0.735  -3.852  0.00  0.00    +0.203 A 
ATOM     11  O   UNL     1      -2.139   0.563  -3.892  0.00  0.00    -0.286 OA
ENDROOT
BRANCH   1  13
ATOM     12  N   UNL     1      -2.113  -0.174  -1.392  0.00  0.00    -0.309 N 
ATOM     13  C   UNL     1      -3.457  -0.074  -1.430  0.00  0.00    +0.249 C 
ATOM     14  O   UNL     1      -4.119  -0.409  -0.466  0.00  0.00    -0.270 OA
ATOM     15  H   UNL     1      -1.590   0.022  -2.185  0.00  0.00    +0.149 HD
BRANCH  12  16
ATOM     16  C   UNL     1      -1.444  -0.579  -0.154  0.00  0.00    +0.070 C 
ATOM     17  C   UNL     1      -1.413  -2.106  -0.066  0.00  0.00    +0.028 C 
BRANCH  16  19
ATOM     18  C   UNL     1      -0.044   1.490  -0.110  0.00  0.00    +0.005 C 
ATOM     19  C   UNL     1      -0.012  -0.039  -0.148  0.00  0.00    +0.018 C 
ENDBRANCH  16  19
ENDBRANCH  12  16
ENDBRANCH   1  13
BRANCH   8  20
ATOM     20  N   UNL     1      -2.056   1.362  -6.333  0.00  0.00    -0.357 N 
ATOM     21  H   UNL     1      -1.619   1.493  -7.189  0.00  0.00    +0.142 HD
ATOM     22  H   UNL     1      -1.535   1.105  -5.556  0.00  0.00    +0.142 HD
ENDBRANCH   8  20
BRANCH   3  23
ATOM     23  C   UNL     1      -7.572   1.333  -3.651  0.00  0.00    +0.084 C 
ATOM     24  C   UNL     1      -8.248   0.033  -3.208  0.00  0.00    +0.031 C 
BRANCH  23  25
ATOM     25  C   UNL     1      -7.879   2.438  -2.639  0.00  0.00    +0.021 C 
ATOM     26  C   UNL     1      -7.309   3.765  -3.144  0.00  0.00    +0.006 C 
ENDBRANCH  23  25
ENDBRANCH   3  23
TORSDOF 6
