REMARK  Name = ZINC01479530
REMARK  10 active torsions:
REMARK  status: ('A' for Active; 'I' for Inactive)
REMARK    1  A    between atoms: C_1  and  C_2
REMARK    2  A    between atoms: C_2  and  O_3
REMARK    3  A    between atoms: O_3  and  C_4
REMARK    4  A    between atoms: C_7  and  N_10
REMARK    5  A    between atoms: C_11  and  C_29
REMARK    6  A    between atoms: C_14  and  S_15
REMARK    7  A    between atoms: S_15  and  C_16
REMARK    8  A    between atoms: C_16  and  C_17
REMARK    9  A    between atoms: N_19  and  N_20
REMARK   10  A    between atoms: C_21  and  C_22
REMARK                            x       y       z     vdW  Elec       q    Type
REMARK                         _______ _______ _______ _____ _____    ______ ____
ROOT
ATOM      1  N   UNL     1       6.496  11.818   0.000  0.00  0.00    -0.270 N 
ATOM      2  C   UNL     1       7.873  11.835  -0.008  0.00  0.00    +0.171 A 
ATOM      3  N   UNL     1       8.274  10.585  -0.018  0.00  0.00    -0.128 NA
ATOM      4  N   UNL     1       7.258   9.798  -0.013  0.00  0.00    -0.122 NA
ATOM      5  C   UNL     1       6.144  10.496   0.002  0.00  0.00    +0.197 A 
ENDROOT
BRANCH   1   9
ATOM      6  C   UNL     1       3.933  15.110   0.023  0.00  0.00    +0.121 A 
ATOM      7  C   UNL     1       3.967  14.250   1.112  0.00  0.00    +0.047 A 
ATOM      8  C   UNL     1       4.815  13.160   1.104  0.00  0.00    +0.030 A 
ATOM      9  C   UNL     1       5.634  12.925   0.008  0.00  0.00    +0.051 A 
ATOM     10  C   UNL     1       5.603  13.789  -1.078  0.00  0.00    +0.030 A 
ATOM     11  C   UNL     1       4.751  14.875  -1.073  0.00  0.00    +0.047 A 
BRANCH   6  12
ATOM     12  O   UNL     1       3.098  16.183   0.031  0.00  0.00    -0.492 OA
BRANCH  12  14
ATOM     13  C   UNL     1       2.118  18.171  -0.932  0.00  0.00    +0.048 C 
ATOM     14  C   UNL     1       3.115  17.026  -1.123  0.00  0.00    +0.225 C 
ENDBRANCH  12  14
ENDBRANCH   6  12
ENDBRANCH   1   9
BRANCH   2  15
ATOM     15  C   UNL     1       8.737  13.035  -0.010  0.00  0.00    +0.038 A 
ATOM     16  C   UNL     1      10.095  12.933  -0.336  0.00  0.00    +0.014 A 
ATOM     17  C   UNL     1      10.860  14.086  -0.324  0.00  0.00    +0.020 A 
ATOM     18  C   UNL     1      10.265  15.290   0.007  0.00  0.00    +0.111 A 
ATOM     19  N   UNL     1       8.983  15.356   0.310  0.00  0.00    -0.263 NA
ATOM     20  C   UNL     1       8.212  14.288   0.307  0.00  0.00    +0.122 A 
ENDBRANCH   2  15
BRANCH   5  21
ATOM     21  S   UNL     1       4.505   9.850   0.013  0.00  0.00    -0.076 S 
BRANCH  21  22
ATOM     22  C   UNL     1       4.866   8.077   0.000  0.00  0.00    +0.174 C 
BRANCH  22  23
ATOM     23  C   UNL     1       3.574   7.301   0.008  0.00  0.00    +0.242 C 
ATOM     24  O   UNL     1       2.513   7.890   0.021  0.00  0.00    -0.273 OA
ATOM     25  N   UNL     1       3.597   5.954   0.001  0.00  0.00    -0.206 N 
ATOM     26  H   UNL     1       4.445   5.483  -0.010  0.00  0.00    +0.177 HD
BRANCH  25  27
ATOM     27  N   UNL     1       2.396   5.232   0.008  0.00  0.00    -0.188 NA
ATOM     28  C   UNL     1       2.418   3.935   0.001  0.00  0.00    +0.141 C 
BRANCH  28  29
ATOM     29  C   UNL     1       1.154   3.176   0.008  0.00  0.00    +0.030 A 
ATOM     30  C   UNL     1       1.173   1.779   0.000  0.00  0.00    +0.012 A 
ATOM     31  C   UNL     1      -0.013   1.076   0.008  0.00  0.00    +0.001 A 
ATOM     32  C   UNL     1      -1.222   1.749   0.017  0.00  0.00    +0.003 A 
ATOM     33  C   UNL     1      -1.251   3.132   0.031  0.00  0.00    +0.039 A 
ATOM     34  C   UNL     1      -0.071   3.851   0.023  0.00  0.00    +0.132 A 
ATOM     35  F   UNL     1      -0.101   5.202   0.030  0.00  0.00    -0.205 F 
ENDBRANCH  28  29
ENDBRANCH  25  27
ENDBRANCH  22  23
ENDBRANCH  21  22
ENDBRANCH   5  21
TORSDOF 9
