REMARK  Name = ZINC12468055
REMARK  7 active torsions:
REMARK  status: ('A' for Active; 'I' for Inactive)
REMARK    1  A    between atoms: C_1  and  C_2
REMARK    2  A    between atoms: C_6  and  O_30
REMARK    3  A    between atoms: C_10  and  C_11
REMARK    4  A    between atoms: N_13  and  C_14
REMARK    5  A    between atoms: N_19  and  C_21
REMARK    6  A    between atoms: C_24  and  C_26
REMARK    7  A    between atoms: O_30  and  C_31
REMARK                            x       y       z     vdW  Elec       q    Type
REMARK                         _______ _______ _______ _____ _____    ______ ____
ROOT
ATOM      1  C   UNL     1       2.169   1.490   1.211  0.00  0.00    +0.091 C 
ATOM      2  C   UNL     1       1.420   2.051  -0.001  0.00  0.00    +0.025 C 
ATOM      3  C   UNL     1      -0.019   1.526   0.010  0.00  0.00    +0.021 C 
ATOM      4  C   UNL     1       0.002  -0.004   0.002  0.00  0.00    +0.106 C 
ATOM      5  N   UNL     1       0.729  -0.491   1.181  0.00  0.00    -0.315 N 
ATOM      6  C   UNL     1       2.126  -0.039   1.168  0.00  0.00    +0.128 C 
ENDROOT
BRANCH   5   7
ATOM      7  C   UNL     1       0.655  -1.876   1.275  0.00  0.00    +0.099 A 
ATOM      8  C   UNL     1      -0.589  -2.499   1.312  0.00  0.00    +0.042 A 
ATOM      9  C   UNL     1      -0.648  -3.878   1.401  0.00  0.00    +0.017 A 
ATOM     10  C   UNL     1       0.543  -4.590   1.459  0.00  0.00    +0.071 A 
ATOM     11  C   UNL     1       1.742  -3.907   1.422  0.00  0.00    +0.096 A 
ATOM     12  N   UNL     1       1.838  -2.554   1.331  0.00  0.00    -0.349 N 
ATOM     13  H   UNL     1       2.744  -2.071   1.305  0.00  0.00    +0.167 HD
BRANCH  10  14
ATOM     14  C   UNL     1       0.527  -6.094   1.562  0.00  0.00    +0.419 C 
ATOM     15  F   UNL     1       1.841  -6.572   1.606  0.00  0.00    -0.166 F 
ATOM     16  F   UNL     1      -0.147  -6.474   2.728  0.00  0.00    -0.166 F 
ATOM     17  F   UNL     1      -0.128  -6.630   0.449  0.00  0.00    -0.166 F 
ENDBRANCH  10  14
ENDBRANCH   5   7
BRANCH   1  20
ATOM     18  C   UNL     1       3.894   3.141   1.695  0.00  0.00    +0.280 C 
ATOM     19  O   UNL     1       3.038   3.849   2.190  0.00  0.00    -0.267 OA
ATOM     20  N   UNL     1       3.562   1.942   1.177  0.00  0.00    -0.304 N 
ATOM     21  H   UNL     1       4.245   1.378   0.782  0.00  0.00    +0.149 HD
BRANCH  18  31
ATOM     22  C   UNL     1       4.921   5.854   2.816  0.00  0.00    +0.048 C 
ATOM     23  C   UNL     1       5.741   4.779   2.150  0.00  0.00    +0.008 A 
ATOM     24  C   UNL     1       7.181   4.799   1.901  0.00  0.00    +0.024 A 
ATOM     25  C   UNL     1       8.200   5.720   2.161  0.00  0.00    +0.015 A 
ATOM     26  C   UNL     1       9.483   5.434   1.793  0.00  0.00    +0.046 A 
ATOM     27  C   UNL     1       9.782   4.229   1.159  0.00  0.00    +0.124 A 
ATOM     28  C   UNL     1       8.786   3.306   0.893  0.00  0.00    +0.092 A 
ATOM     29  C   UNL     1       7.475   3.580   1.261  0.00  0.00    +0.140 A 
ATOM     30  O   UNL     1       6.322   2.893   1.143  0.00  0.00    -0.450 OA
ATOM     31  C   UNL     1       5.291   3.594   1.661  0.00  0.00    +0.193 A 
BRANCH  27  32
ATOM     32  O   UNL     1      11.063   3.959   0.798  0.00  0.00    -0.495 OA
ATOM     33  C   UNL     1      12.046   4.952   1.099  0.00  0.00    +0.277 C 
ENDBRANCH  27  32
ENDBRANCH  18  31
ENDBRANCH   1  20
TORSDOF 5
