REMARK  Name = ZINC11193757
REMARK  7 active torsions:
REMARK  status: ('A' for Active; 'I' for Inactive)
REMARK    1  A    between atoms: C_6  and  C_7
REMARK    2  A    between atoms: C_7  and  C_8
REMARK    3  A    between atoms: C_8  and  N_9
REMARK    4  A    between atoms: C_10  and  C_12
REMARK    5  A    between atoms: C_12  and  O_13
REMARK    6  A    between atoms: O_13  and  C_14
REMARK    7  A    between atoms: C_14  and  C_16
REMARK                            x       y       z     vdW  Elec       q    Type
REMARK                         _______ _______ _______ _____ _____    ______ ____
ROOT
ATOM      1  N   UNL     1       5.410  -1.679  -1.519  0.00  0.00    -0.312 N 
ATOM      2  C   UNL     1       5.982  -2.003  -2.696  0.00  0.00    +0.251 C 
ATOM      3  O   UNL     1       5.441  -1.698  -3.737  0.00  0.00    -0.272 OA
ATOM      4  H   UNL     1       5.843  -1.923  -0.686  0.00  0.00    +0.149 HD
ENDROOT
BRANCH   1   5
ATOM      5  C   UNL     1       4.135  -0.959  -1.498  0.00  0.00    +0.109 C 
BRANCH   5   6
ATOM      6  C   UNL     1       3.709  -0.718  -0.048  0.00  0.00    +0.054 C 
BRANCH   6  12
ATOM      7  C   UNL     1       1.208  -0.680  -0.016  0.00  0.00    +0.007 A 
ATOM      8  C   UNL     1       0.002  -0.004   0.002  0.00  0.00    +0.050 A 
ATOM      9  C   UNL     1      -0.017   1.382   0.010  0.00  0.00    +0.162 A 
ATOM     10  C   UNL     1       1.180   2.090   0.002  0.00  0.00    +0.162 A 
ATOM     11  C   UNL     1       2.386   1.406  -0.017  0.00  0.00    +0.053 A 
ATOM     12  C   UNL     1       2.397   0.023  -0.027  0.00  0.00    -0.042 A 
ATOM     13  O   UNL     1       1.184   3.451   0.018  0.00  0.00    -0.485 OA
ATOM     14  C   UNL     1      -0.040   4.103  -0.340  0.00  0.00    +0.270 C 
ATOM     15  C   UNL     1      -1.188   3.413   0.408  0.00  0.00    +0.270 C 
ATOM     16  O   UNL     1      -1.211   2.034   0.019  0.00  0.00    -0.485 OA
ENDBRANCH   6  12
ENDBRANCH   5   6
ENDBRANCH   1   5
BRANCH   2  17
ATOM     17  C   UNL     1       7.294  -2.744  -2.718  0.00  0.00    +0.328 C 
BRANCH  17  18
ATOM     18  O   UNL     1       7.698  -2.973  -4.093  0.00  0.00    -0.452 OA
BRANCH  18  19
ATOM     19  C   UNL     1       8.858  -3.629  -4.289  0.00  0.00    +0.340 C 
ATOM     20  O   UNL     1       9.515  -3.999  -3.336  0.00  0.00    -0.245 OA
BRANCH  19  21
ATOM     21  C   UNL     1       9.332  -3.898  -5.661  0.00  0.00    +0.062 A 
ATOM     22  C   UNL     1       8.576  -3.478  -6.758  0.00  0.00    +0.018 A 
ATOM     23  C   UNL     1       9.025  -3.725  -8.038  0.00  0.00    +0.042 A 
ATOM     24  C   UNL     1      10.219  -4.400  -8.238  0.00  0.00    +0.158 A 
ATOM     25  C   UNL     1      10.973  -4.825  -7.152  0.00  0.00    +0.159 A 
ATOM     26  C   UNL     1      10.535  -4.577  -5.867  0.00  0.00    +0.056 A 
ATOM     27  F   UNL     1      12.136  -5.482  -7.354  0.00  0.00    -0.202 F 
ATOM     28  F   UNL     1      10.651  -4.645  -9.495  0.00  0.00    -0.202 F 
ENDBRANCH  19  21
ENDBRANCH  18  19
ENDBRANCH  17  18
ENDBRANCH   2  17
TORSDOF 7
