REMARK  Name = ZINC06218602
REMARK  9 active torsions:
REMARK  status: ('A' for Active; 'I' for Inactive)
REMARK    1  A    between atoms: C_1  and  C_2
REMARK    2  A    between atoms: C_5  and  C_8
REMARK    3  A    between atoms: C_8  and  N_9
REMARK    4  A    between atoms: C_10  and  C_12
REMARK    5  A    between atoms: C_16  and  S_18
REMARK    6  A    between atoms: S_18  and  N_21
REMARK    7  A    between atoms: N_21  and  C_22
REMARK    8  A    between atoms: N_21  and  C_23
REMARK    9  A    between atoms: C_26  and  C_29
REMARK                            x       y       z     vdW  Elec       q    Type
REMARK                         _______ _______ _______ _____ _____    ______ ____
ROOT
ATOM      1  C   UNL     1      -2.018   4.299   2.391  0.00  0.00    +0.039 A 
ATOM      2  C   UNL     1      -1.121   3.292   2.749  0.00  0.00    +0.013 A 
ATOM      3  C   UNL     1       0.171   3.319   2.266  0.00  0.00    +0.003 A 
ATOM      4  C   UNL     1       0.579   4.345   1.432  0.00  0.00    +0.029 A 
ATOM      5  C   UNL     1      -0.303   5.349   1.077  0.00  0.00    +0.109 A 
ATOM      6  C   UNL     1      -1.599   5.333   1.554  0.00  0.00    +0.041 A 
ENDROOT
BRANCH   1   8
ATOM      7  N   UNL     1      -3.807   3.274   3.713  0.00  0.00    -0.307 N 
ATOM      8  C   UNL     1      -3.406   4.272   2.900  0.00  0.00    +0.244 C 
ATOM      9  O   UNL     1      -4.185   5.151   2.586  0.00  0.00    -0.270 OA
ATOM     10  H   UNL     1      -3.184   2.573   3.963  0.00  0.00    +0.149 HD
BRANCH   7  11
ATOM     11  C   UNL     1      -5.182   3.248   4.218  0.00  0.00    +0.139 C 
BRANCH  11  16
ATOM     12  C   UNL     1      -5.909  -1.388   7.590  0.00  0.00    +0.044 C 
ATOM     13  C   UNL     1      -5.719  -0.179   6.710  0.00  0.00    -0.050 A 
ATOM     14  C   UNL     1      -5.294   1.016   7.260  0.00  0.00    +0.003 A 
ATOM     15  C   UNL     1      -5.120   2.125   6.454  0.00  0.00    +0.005 A 
ATOM     16  C   UNL     1      -5.371   2.039   5.097  0.00  0.00    -0.030 A 
ATOM     17  C   UNL     1      -5.801   0.846   4.548  0.00  0.00    +0.005 A 
ATOM     18  C   UNL     1      -5.971  -0.265   5.354  0.00  0.00    +0.003 A 
ENDBRANCH  11  16
ENDBRANCH   7  11
ENDBRANCH   1   8
BRANCH   5  19
ATOM     19  S   UNL     1       0.227   6.651   0.015  0.00  0.00    +0.074 S 
ATOM     20  O   UNL     1      -0.704   7.712   0.178  0.00  0.00    -0.150 OA
ATOM     21  O   UNL     1       1.619   6.818   0.241  0.00  0.00    -0.150 OA
BRANCH  19  22
ATOM     22  N   UNL     1       0.061   6.111  -1.542  0.00  0.00    -0.206 N 
ATOM     23  C   UNL     1       1.125   5.314  -2.157  0.00  0.00    +0.157 C 
BRANCH  22  24
ATOM     24  C   UNL     1      -1.093   6.415  -2.268  0.00  0.00    +0.051 A 
ATOM     25  C   UNL     1      -2.324   5.920  -1.857  0.00  0.00    +0.025 A 
ATOM     26  C   UNL     1      -3.464   6.227  -2.574  0.00  0.00    +0.005 A 
ATOM     27  C   UNL     1      -3.378   7.017  -3.706  0.00  0.00    -0.050 A 
ATOM     28  C   UNL     1      -2.153   7.507  -4.121  0.00  0.00    +0.005 A 
ATOM     29  C   UNL     1      -1.011   7.208  -3.405  0.00  0.00    +0.025 A 
ATOM     30  C   UNL     1      -4.623   7.346  -4.489  0.00  0.00    +0.044 C 
ENDBRANCH  22  24
ENDBRANCH  19  22
ENDBRANCH   5  19
TORSDOF 6
