REMARK  Name = ZINC35453004
REMARK  4 active torsions:
REMARK  status: ('A' for Active; 'I' for Inactive)
REMARK    1  A    between atoms: C_1  and  C_2
REMARK    2  A    between atoms: C_5  and  N_9
REMARK    3  A    between atoms: N_9  and  C_10
REMARK    4  A    between atoms: C_15  and  N_16
REMARK                            x       y       z     vdW  Elec       q    Type
REMARK                         _______ _______ _______ _____ _____    ______ ____
ROOT
ATOM      1  C   UNL     1      -0.032  -4.817  -1.263  0.00  0.00    +0.054 A 
ATOM      2  C   UNL     1      -0.034  -4.075  -2.435  0.00  0.00    +0.052 A 
ATOM      3  C   UNL     1      -0.124  -4.719  -3.658  0.00  0.00    +0.078 A 
ATOM      4  C   UNL     1      -0.211  -6.109  -3.713  0.00  0.00    +0.144 A 
ATOM      5  C   UNL     1      -0.209  -6.850  -2.544  0.00  0.00    +0.072 A 
ATOM      6  C   UNL     1      -0.114  -6.207  -1.318  0.00  0.00    +0.050 A 
ATOM      7  O   UNL     1      -0.301  -6.726  -4.923  0.00  0.00    -0.481 OA
ATOM      8  C   UNL     1      -0.997  -6.021  -5.954  0.00  0.00    +0.325 C 
ATOM      9  C   UNL     1      -0.528  -4.589  -5.994  0.00  0.00    +0.255 C 
ATOM     10  O   UNL     1      -0.510  -3.983  -7.045  0.00  0.00    -0.272 OA
ATOM     11  N   UNL     1      -0.126  -3.984  -4.855  0.00  0.00    -0.280 N 
ATOM     12  H   UNL     1       0.155  -3.056  -4.864  0.00  0.00    +0.155 HD
ENDROOT
BRANCH   6  13
ATOM     13  N   UNL     1      -0.105  -6.957  -0.133  0.00  0.00    -0.356 N 
ATOM     14  H   UNL     1      -0.042  -6.508   0.724  0.00  0.00    +0.142 HD
ATOM     15  H   UNL     1      -0.162  -7.925  -0.171  0.00  0.00    +0.142 HD
ENDBRANCH   6  13
BRANCH   1  16
ATOM     16  N   UNL     1       0.059  -4.168  -0.023  0.00  0.00    -0.312 N 
ATOM     17  H   UNL     1      -0.023  -4.678   0.798  0.00  0.00    +0.152 HD
BRANCH  16  22
ATOM     18  C   UNL     1       0.901   1.437   0.190  0.00  0.00    +0.044 C 
ATOM     19  C   UNL     1       0.677  -0.053   0.134  0.00  0.00    -0.049 A 
ATOM     20  C   UNL     1       1.397  -0.826  -0.759  0.00  0.00    +0.005 A 
ATOM     21  C   UNL     1       1.194  -2.191  -0.814  0.00  0.00    +0.024 A 
ATOM     22  C   UNL     1       0.266  -2.788   0.030  0.00  0.00    +0.046 A 
ATOM     23  C   UNL     1      -0.456  -2.009   0.927  0.00  0.00    +0.039 A 
ATOM     24  C   UNL     1      -0.244  -0.644   0.979  0.00  0.00    +0.020 A 
ATOM     25 BR   UNL     1      -1.720  -2.815   2.078  0.00  0.00    -0.048 Br
ENDBRANCH  16  22
ENDBRANCH   1  16
TORSDOF 3
