REMARK  Name = ZINC01837099
REMARK  5 active torsions:
REMARK  status: ('A' for Active; 'I' for Inactive)
REMARK    1  A    between atoms: C_1  and  N_2
REMARK    2  A    between atoms: N_2  and  C_3
REMARK    3  A    between atoms: N_2  and  C_4
REMARK    4  A    between atoms: C_7  and  C_10
REMARK    5  A    between atoms: C_13  and  C_20
REMARK                            x       y       z     vdW  Elec       q    Type
REMARK                         _______ _______ _______ _____ _____    ______ ____
ROOT
ATOM      1  C   UNL     1      -4.870  -2.906   0.033  0.00  0.00    +0.148 C 
ATOM      2  C   UNL     1      -5.684  -2.540   1.280  0.00  0.00    +0.088 C 
ATOM      3  C   UNL     1      -7.126  -2.928   1.119  0.00  0.00    +0.055 C 
ATOM      4  N   UNL     1      -7.743  -2.890  -0.032  0.00  0.00    -0.214 NA
ATOM      5  C   UNL     1      -7.033  -2.557  -1.141  0.00  0.00    +0.270 A 
ATOM      6  N   UNL     1      -5.661  -2.554  -1.143  0.00  0.00    -0.202 N 
ATOM      7  N   UNL     1      -5.287  -2.169  -2.425  0.00  0.00    -0.042 NA
ATOM      8  N   UNL     1      -6.382  -1.992  -3.092  0.00  0.00    -0.021 NA
ATOM      9  N   UNL     1      -7.410  -2.222  -2.347  0.00  0.00    -0.088 NA
ENDROOT
BRANCH   3  10
ATOM     10  C   UNL     1      -7.875  -3.370   2.306  0.00  0.00    -0.003 A 
ATOM     11  C   UNL     1      -7.247  -3.417   3.555  0.00  0.00    +0.011 A 
ATOM     12  C   UNL     1      -7.955  -3.831   4.663  0.00  0.00    +0.016 A 
ATOM     13  C   UNL     1      -9.284  -4.201   4.542  0.00  0.00    +0.018 A 
ATOM     14  C   UNL     1      -9.913  -4.156   3.308  0.00  0.00    +0.016 A 
ATOM     15  C   UNL     1      -9.219  -3.739   2.193  0.00  0.00    +0.011 A 
ATOM     16 BR   UNL     1     -10.246  -4.769   6.068  0.00  0.00    -0.050 Br
ENDBRANCH   3  10
BRANCH   1  20
ATOM     17  C   UNL     1      -1.198  -0.719   0.010  0.00  0.00    +0.029 A 
ATOM     18  C   UNL     1      -1.181  -2.108   0.008  0.00  0.00    +0.023 A 
ATOM     19  C   UNL     1      -2.369  -2.812   0.016  0.00  0.00    +0.007 A 
ATOM     20  C   UNL     1      -3.575  -2.135   0.025  0.00  0.00    -0.022 A 
ATOM     21  C   UNL     1      -3.596  -0.752   0.027  0.00  0.00    +0.007 A 
ATOM     22  C   UNL     1      -2.411  -0.042   0.025  0.00  0.00    +0.023 A 
BRANCH  17  24
ATOM     23  C   UNL     1      -0.018   1.461   0.010  0.00  0.00    +0.129 C 
ATOM     24  N   UNL     1       0.002  -0.004   0.002  0.00  0.00    -0.336 N 
ATOM     25  C   UNL     1       1.281  -0.719  -0.014  0.00  0.00    +0.129 C 
ENDBRANCH  17  24
ENDBRANCH   1  20
TORSDOF 3
