REMARK  Name = ZINC13396946
REMARK  6 active torsions:
REMARK  status: ('A' for Active; 'I' for Inactive)
REMARK    1  A    between atoms: N_9  and  C_25
REMARK    2  A    between atoms: C_10  and  S_12
REMARK    3  A    between atoms: S_12  and  C_13
REMARK    4  A    between atoms: C_13  and  C_14
REMARK    5  A    between atoms: C_20  and  C_23
REMARK    6  A    between atoms: C_30  and  C_31
REMARK                            x       y       z     vdW  Elec       q    Type
REMARK                         _______ _______ _______ _____ _____    ______ ____
ROOT
ATOM      1  C   UNL     1       1.377  14.074  -1.587  0.00  0.00    +0.001 A 
ATOM      2  C   UNL     1       2.283  13.027  -1.481  0.00  0.00    +0.002 A 
ATOM      3  C   UNL     1       1.859  11.729  -1.460  0.00  0.00    +0.028 A 
ATOM      4  C   UNL     1       0.492  11.446  -1.546  0.00  0.00    +0.079 A 
ATOM      5  C   UNL     1      -0.428  12.515  -1.653  0.00  0.00    +0.065 A 
ATOM      6  C   UNL     1       0.034  13.830  -1.672  0.00  0.00    +0.015 A 
ATOM      7  C   UNL     1      -1.858  12.193  -1.742  0.00  0.00    +0.267 A 
ATOM      8  O   UNL     1      -2.697  13.070  -1.835  0.00  0.00    -0.267 OA
ATOM      9  N   UNL     1      -2.209  10.886  -1.715  0.00  0.00    -0.255 N 
ATOM     10  C   UNL     1      -1.254   9.913  -1.609  0.00  0.00    +0.177 A 
ATOM     11  N   UNL     1       0.027  10.175  -1.524  0.00  0.00    -0.223 NA
ENDROOT
BRANCH   9  12
ATOM     12  C   UNL     1      -3.561  10.528  -1.796  0.00  0.00    +0.064 A 
ATOM     13  C   UNL     1      -4.315  10.392  -0.638  0.00  0.00    +0.027 A 
ATOM     14  C   UNL     1      -5.649  10.043  -0.721  0.00  0.00    +0.002 A 
ATOM     15  C   UNL     1      -6.231   9.819  -1.956  0.00  0.00    +0.001 A 
ATOM     16  C   UNL     1      -5.481   9.948  -3.110  0.00  0.00    +0.014 A 
ATOM     17  C   UNL     1      -4.148  10.302  -3.034  0.00  0.00    +0.079 A 
BRANCH  17  18
ATOM     18  C   UNL     1      -3.331  10.442  -4.292  0.00  0.00    +0.419 C 
ATOM     19  F   UNL     1      -4.136  10.167  -5.403  0.00  0.00    -0.166 F 
ATOM     20  F   UNL     1      -2.838  11.748  -4.386  0.00  0.00    -0.166 F 
ATOM     21  F   UNL     1      -2.261   9.541  -4.257  0.00  0.00    -0.166 F 
ENDBRANCH  17  18
ENDBRANCH   9  12
BRANCH  10  22
ATOM     22  S   UNL     1      -1.770   8.229  -1.579  0.00  0.00    -0.078 S 
BRANCH  22  23
ATOM     23  C   UNL     1      -0.163   7.410  -1.433  0.00  0.00    +0.173 C 
BRANCH  23  24
ATOM     24  C   UNL     1      -0.362   5.917  -1.389  0.00  0.00    +0.226 C 
ATOM     25  O   UNL     1      -1.480   5.452  -1.449  0.00  0.00    -0.275 OA
ATOM     26  N   UNL     1       0.703   5.098  -1.281  0.00  0.00    -0.300 N 
ATOM     27  C   UNL     1       2.064   5.645  -1.206  0.00  0.00    +0.108 C 
ATOM     28  C   UNL     1       2.757   5.077   0.036  0.00  0.00    +0.020 C 
ATOM     29  C   UNL     1       2.696   3.549  -0.005  0.00  0.00    +0.018 C 
ATOM     30  C   UNL     1       1.235   3.094   0.007  0.00  0.00    +0.119 C 
ATOM     31  C   UNL     1       0.525   3.640  -1.236  0.00  0.00    +0.122 C 
BRANCH  30  32
ATOM     32  C   UNL     1       1.177   1.588  -0.001  0.00  0.00    +0.361 C 
ATOM     33  O   UNL     1       2.199   0.944  -0.014  0.00  0.00    -0.246 OA
ATOM     34  O   UNL     1      -0.011   0.963   0.007  0.00  0.00    -0.246 OA
ENDBRANCH  30  32
ENDBRANCH  23  24
ENDBRANCH  22  23
ENDBRANCH  10  22
TORSDOF 6
