REMARK  Name = ZINC23221494
REMARK  6 active torsions:
REMARK  status: ('A' for Active; 'I' for Inactive)
REMARK    1  A    between atoms: C_1  and  C_2
REMARK    2  A    between atoms: C_15  and  C_17
REMARK    3  A    between atoms: C_17  and  O_18
REMARK    4  A    between atoms: O_18  and  C_19
REMARK    5  A    between atoms: C_19  and  C_21
REMARK    6  A    between atoms: C_23  and  C_31
REMARK                            x       y       z     vdW  Elec       q    Type
REMARK                         _______ _______ _______ _____ _____    ______ ____
ROOT
ATOM      1  C   UNL     1       0.601  -0.602  -1.046  0.00  0.00    +0.340 C 
ATOM      2  O   UNL     1       1.103   0.071  -1.924  0.00  0.00    -0.245 OA
ENDROOT
BRANCH   1   3
ATOM      3  C   UNL     1       0.659  -2.077  -1.122  0.00  0.00    +0.070 A 
ATOM      4  C   UNL     1       0.198  -2.872  -0.081  0.00  0.00    +0.044 A 
ATOM      5  C   UNL     1       0.267  -4.268  -0.199  0.00  0.00    +0.072 A 
ATOM      6  N   UNL     1       0.768  -4.861  -1.263  0.00  0.00    -0.247 NA
ATOM      7  C   UNL     1       1.238  -4.175  -2.306  0.00  0.00    +0.072 A 
ATOM      8  C   UNL     1       1.210  -2.758  -2.294  0.00  0.00    +0.014 A 
ATOM      9  C   UNL     1       1.703  -2.042  -3.390  0.00  0.00    +0.011 A 
ATOM     10  C   UNL     1       2.207  -2.717  -4.463  0.00  0.00    +0.001 A 
ATOM     11  C   UNL     1       2.238  -4.110  -4.480  0.00  0.00    +0.002 A 
ATOM     12  C   UNL     1       1.767  -4.836  -3.430  0.00  0.00    +0.028 A 
BRANCH   5  13
ATOM     13  C   UNL     1      -0.234  -5.106   0.917  0.00  0.00    +0.001 A 
ATOM     14  C   UNL     1      -0.764  -4.506   2.058  0.00  0.00    +0.013 A 
ATOM     15  C   UNL     1      -1.235  -5.289   3.091  0.00  0.00    +0.039 A 
ATOM     16  C   UNL     1      -1.171  -6.670   3.001  0.00  0.00    +0.123 A 
ATOM     17  C   UNL     1      -0.640  -7.271   1.871  0.00  0.00    +0.039 A 
ATOM     18  C   UNL     1      -0.172  -6.496   0.830  0.00  0.00    +0.013 A 
ATOM     19  F   UNL     1      -1.628  -7.434   4.018  0.00  0.00    -0.205 F 
ENDBRANCH   5  13
ENDBRANCH   1   3
BRANCH   1  20
ATOM     20  O   UNL     1      -0.009  -0.004  -0.004  0.00  0.00    -0.452 OA
BRANCH  20  21
ATOM     21  C   UNL     1      -0.028   1.448   0.004  0.00  0.00    +0.328 C 
BRANCH  21  35
ATOM     22  C   UNL     1      -2.995   4.192   2.265  0.00  0.00    +0.029 C 
ATOM     23  C   UNL     1      -1.583   3.744   2.648  0.00  0.00    +0.087 C 
ATOM     24  C   UNL     1      -0.819   4.926   3.247  0.00  0.00    +0.118 C 
ATOM     25  C   UNL     1       0.658   4.634   3.264  0.00  0.00    +0.219 C 
ATOM     26  O   UNL     1       1.202   4.346   4.309  0.00  0.00    -0.275 OA
ATOM     27  N   UNL     1       1.382   4.690   2.124  0.00  0.00    -0.284 N 
ATOM     28  C   UNL     1       0.757   4.935   0.895  0.00  0.00    +0.055 A 
ATOM     29  C   UNL     1       1.249   5.893   0.025  0.00  0.00    +0.025 A 
ATOM     30  C   UNL     1       0.647   6.091  -1.188  0.00  0.00    +0.002 A 
ATOM     31  C   UNL     1      -0.456   5.338  -1.548  0.00  0.00    +0.002 A 
ATOM     32  C   UNL     1      -0.965   4.389  -0.681  0.00  0.00    +0.025 A 
ATOM     33  C   UNL     1      -0.366   4.191   0.553  0.00  0.00    +0.058 A 
ATOM     34  N   UNL     1      -0.888   3.256   1.457  0.00  0.00    -0.264 N 
ATOM     35  C   UNL     1      -0.747   1.933   1.236  0.00  0.00    +0.258 C 
ATOM     36  O   UNL     1      -1.199   1.135   2.029  0.00  0.00    -0.271 OA
ATOM     37  H   UNL     1       2.471   4.543   2.157  0.00  0.00    +0.155 HD
ENDBRANCH  21  35
ENDBRANCH  20  21
ENDBRANCH   1  20
TORSDOF 5
