REMARK  Name = ZINC12197374
REMARK  8 active torsions:
REMARK  status: ('A' for Active; 'I' for Inactive)
REMARK    1  A    between atoms: C_1  and  C_2
REMARK    2  A    between atoms: C_3  and  C_4
REMARK    3  A    between atoms: C_4  and  N_5
REMARK    4  A    between atoms: C_8  and  C_12
REMARK    5  A    between atoms: C_8  and  C_20
REMARK    6  A    between atoms: C_12  and  C_13
REMARK    7  A    between atoms: C_25  and  C_26
REMARK    8  A    between atoms: C_25  and  N_66
REMARK                            x       y       z     vdW  Elec       q    Type
REMARK                         _______ _______ _______ _____ _____    ______ ____
ROOT
ATOM      1  N   UNL     1       0.263  -0.227   0.291  0.00  0.00    -0.212 N 
ATOM      2  C   UNL     1       0.171  -0.972   1.410  0.00  0.00    +0.248 C 
ATOM      3  O   UNL     1       0.111  -0.573   2.553  0.00  0.00    -0.273 OA
ATOM      4  C   UNL     1       0.158  -2.414   0.942  0.00  0.00    +0.119 C 
ATOM      5  N   UNL     1       0.253  -2.302  -0.524  0.00  0.00    -0.284 N 
ATOM      6  C   UNL     1       0.304  -0.988  -0.807  0.00  0.00    +0.310 C 
ATOM      7  O   UNL     1       0.382  -0.543  -1.936  0.00  0.00    -0.252 OA
ATOM      8  H   UNL     1       0.271  -3.034  -1.161  0.00  0.00    +0.151 HD
ENDROOT
BRANCH   4   9
ATOM      9  C   UNL     1      -1.149  -3.099   1.346  0.00  0.00    +0.018 C 
ATOM     10  C   UNL     1      -1.145  -4.546   0.844  0.00  0.00    -0.013 C 
ATOM     11  C   UNL     1      -2.479  -5.207   1.196  0.00  0.00    -0.078 C 
ATOM     12  C   UNL     1      -3.631  -3.079   1.081  0.00  0.00    -0.078 C 
ATOM     13  C   UNL     1      -2.332  -2.353   0.724  0.00  0.00    -0.013 C 
ATOM     14  N   UNL     1      -3.574  -4.456   0.547  0.00  0.00    +0.382 N 
ATOM     15  H   UNL     1      -3.397  -4.415  -0.463  0.00  0.00    -0.081 HD
BRANCH  14  16
ATOM     16  C   UNL     1      -4.863  -5.141   0.780  0.00  0.00    -0.042 C 
BRANCH  16  17
ATOM     17  C   UNL     1      -4.910  -6.383  -0.072  0.00  0.00    -0.056 A 
ATOM     18  C   UNL     1      -4.765  -7.610   0.499  0.00  0.00    +0.002 A 
ATOM     19  C   UNL     1      -4.813  -8.770  -0.272  0.00  0.00    +0.001 A 
ATOM     20  C   UNL     1      -4.994  -8.709  -1.620  0.00  0.00    +0.008 A 
ATOM     21  C   UNL     1      -5.141  -7.460  -2.245  0.00  0.00    -0.018 A 
ATOM     22  C   UNL     1      -5.099  -6.280  -1.460  0.00  0.00    -0.017 A 
ATOM     23  C   UNL     1      -5.246  -5.030  -2.086  0.00  0.00    +0.009 A 
ATOM     24  C   UNL     1      -5.427  -4.970  -3.434  0.00  0.00    +0.001 A 
ATOM     25  C   UNL     1      -5.468  -6.129  -4.206  0.00  0.00    +0.001 A 
ATOM     26  C   UNL     1      -5.329  -7.357  -3.634  0.00  0.00    +0.008 A 
ENDBRANCH  16  17
ENDBRANCH  14  16
ENDBRANCH   4   9
BRANCH   1  27
ATOM     27  C   UNL     1       0.305   1.238   0.280  0.00  0.00    +0.206 C 
BRANCH  27  30
ATOM     28  C   UNL     1       4.219   2.498   0.512  0.00  0.00    +0.106 C 
ATOM     29  C   UNL     1       2.820   2.048   0.429  0.00  0.00    -0.104 C 
ATOM     30  C   UNL     1       1.704   1.688   0.363  0.00  0.00    -0.083 C 
ENDBRANCH  27  30
ENDBRANCH   1  27
BRANCH   4  31
ATOM     31  C   UNL     1       1.362  -3.173   1.503  0.00  0.00    +0.070 C 
BRANCH  31  32
ATOM     32  C   UNL     1       2.634  -2.507   1.044  0.00  0.00    -0.042 A 
ATOM     33  C   UNL     1       3.203  -1.505   1.807  0.00  0.00    +0.004 A 
ATOM     34  C   UNL     1       4.370  -0.893   1.388  0.00  0.00    +0.003 A 
ATOM     35  C   UNL     1       4.968  -1.284   0.205  0.00  0.00    +0.038 A 
ATOM     36  C   UNL     1       4.399  -2.287  -0.560  0.00  0.00    +0.124 A 
ATOM     37  C   UNL     1       3.233  -2.903  -0.136  0.00  0.00    +0.042 A 
ATOM     38  F   UNL     1       4.984  -2.670  -1.716  0.00  0.00    -0.205 F 
ENDBRANCH  31  32
ENDBRANCH   4  31
TORSDOF 7
