REMARK  Name = ZINC63383533
REMARK  13 active torsions:
REMARK  status: ('A' for Active; 'I' for Inactive)
REMARK    1  A    between atoms: C_1  and  C_2
REMARK    2  A    between atoms: C_2  and  C_3
REMARK    3  A    between atoms: C_2  and  C_4
REMARK    4  A    between atoms: C_4  and  C_6
REMARK    5  A    between atoms: C_4  and  N_16
REMARK    6  A    between atoms: N_8  and  C_9
REMARK    7  A    between atoms: C_9  and  C_10
REMARK    8  A    between atoms: C_10  and  C_11
REMARK    9  A    between atoms: C_11  and  O_12
REMARK   10  A    between atoms: O_12  and  C_13
REMARK   11  A    between atoms: C_13  and  C_14
REMARK   12  A    between atoms: C_13  and  C_15
REMARK   13  A    between atoms: C_17  and  C_19
REMARK                            x       y       z     vdW  Elec       q    Type
REMARK                         _______ _______ _______ _____ _____    ______ ____
ROOT
ATOM      1  C   UNL     1      -1.974  -3.908   1.838  0.00  0.00    +0.167 C 
ATOM      2  C   UNL     1      -3.422  -4.218   1.415  0.00  0.00    +0.065 C 
ATOM      3  C   UNL     1      -4.182  -4.575   2.668  0.00  0.00    -0.034 C 
ATOM      4  C   UNL     1      -4.949  -5.626   2.943  0.00  0.00    -0.001 A 
ATOM      5  C   UNL     1      -5.401  -6.751   2.108  0.00  0.00    +0.010 A 
ATOM      6  C   UNL     1      -6.179  -7.679   2.725  0.00  0.00    +0.001 A 
ATOM      7  C   UNL     1      -6.548  -7.602   4.072  0.00  0.00    +0.002 A 
ATOM      8  C   UNL     1      -6.183  -6.600   4.911  0.00  0.00    +0.026 A 
ATOM      9  C   UNL     1      -5.368  -5.561   4.376  0.00  0.00    +0.043 A 
ATOM     10  N   UNL     1      -4.895  -4.489   4.939  0.00  0.00    -0.375 N 
ATOM     11  C   UNL     1      -4.170  -3.719   3.927  0.00  0.00    +0.131 C 
ATOM     12  C   UNL     1      -2.708  -3.498   4.312  0.00  0.00    +0.134 C 
ATOM     13  N   UNL     1      -1.861  -4.136   3.284  0.00  0.00    -0.276 N 
ATOM     14  C   UNL     1      -0.993  -4.964   3.897  0.00  0.00    +0.248 C 
ATOM     15  O   UNL     1      -0.078  -5.546   3.347  0.00  0.00    -0.270 OA
ATOM     16  C   UNL     1      -1.312  -5.059   5.323  0.00  0.00    +0.042 A 
ATOM     17  C   UNL     1      -2.378  -4.150   5.614  0.00  0.00    -0.013 A 
ATOM     18  C   UNL     1      -2.907  -4.003   6.877  0.00  0.00    +0.006 A 
ATOM     19  C   UNL     1      -2.347  -4.776   7.891  0.00  0.00    +0.000 A 
ATOM     20  C   UNL     1      -1.307  -5.650   7.648  0.00  0.00    +0.001 A 
ATOM     21  C   UNL     1      -0.746  -5.840   6.334  0.00  0.00    +0.013 A 
ATOM     22  H   UNL     1      -5.005  -4.241   5.870  0.00  0.00    +0.160 HD
ENDROOT
BRANCH   1  24
ATOM     23  N   UNL     1      -1.702  -2.030   0.251  0.00  0.00    -0.302 N 
ATOM     24  C   UNL     1      -1.649  -2.470   1.523  0.00  0.00    +0.235 C 
ATOM     25  O   UNL     1      -1.340  -1.709   2.416  0.00  0.00    -0.274 OA
ATOM     26  H   UNL     1      -1.949  -2.639  -0.463  0.00  0.00    +0.150 HD
BRANCH  23  27
ATOM     27  C   UNL     1      -1.386  -0.633  -0.056  0.00  0.00    +0.161 C 
BRANCH  27  28
ATOM     28  C   UNL     1      -2.074  -0.231  -1.335  0.00  0.00    +0.234 C 
ATOM     29  O   UNL     1      -2.511  -1.081  -2.081  0.00  0.00    -0.274 OA
ATOM     30  N   UNL     1      -2.204   1.073  -1.649  0.00  0.00    -0.314 N 
ATOM     31  H   UNL     1      -1.924   1.754  -1.018  0.00  0.00    +0.149 HD
BRANCH  30  32
ATOM     32  C   UNL     1      -2.768   1.462  -2.944  0.00  0.00    +0.106 C 
BRANCH  32  33
ATOM     33  C   UNL     1      -2.804   2.988  -3.047  0.00  0.00    +0.047 C 
BRANCH  33  34
ATOM     34  C   UNL     1      -3.393   3.394  -4.399  0.00  0.00    +0.161 C 
BRANCH  34  35
ATOM     35  O   UNL     1      -3.427   4.820  -4.495  0.00  0.00    -0.377 OA
BRANCH  35  36
ATOM     36  C   UNL     1      -3.963   5.306  -5.727  0.00  0.00    +0.112 C 
ATOM     37  C   UNL     1      -4.638   6.659  -5.490  0.00  0.00    +0.037 C 
ATOM     38  C   UNL     1      -2.833   5.473  -6.745  0.00  0.00    +0.037 C 
ENDBRANCH  35  36
ENDBRANCH  34  35
ENDBRANCH  33  34
ENDBRANCH  32  33
ENDBRANCH  30  32
ENDBRANCH  27  28
BRANCH  27  40
ATOM     39  C   UNL     1       0.820  -0.801   1.106  0.00  0.00    +0.009 C 
ATOM     40  C   UNL     1       0.127  -0.476  -0.219  0.00  0.00    +0.012 C 
ATOM     41  C   UNL     1       0.625  -1.434  -1.303  0.00  0.00    +0.009 C 
ENDBRANCH  27  40
ENDBRANCH  23  27
ENDBRANCH   1  24
TORSDOF 9
