REMARK  Name = ZINC41585864
REMARK  6 active torsions:
REMARK  status: ('A' for Active; 'I' for Inactive)
REMARK    1  A    between atoms: C_1  and  C_2
REMARK    2  A    between atoms: C_4  and  O_36
REMARK    3  A    between atoms: C_5  and  C_23
REMARK    4  A    between atoms: C_11  and  C_12
REMARK    5  A    between atoms: N_14  and  C_21
REMARK    6  A    between atoms: C_23  and  N_24
REMARK                            x       y       z     vdW  Elec       q    Type
REMARK                         _______ _______ _______ _____ _____    ______ ____
ROOT
ATOM      1  C   UNL     1      -1.121   1.487   0.081  0.00  0.00    +0.045 C 
ATOM      2  C   UNL     1      -0.884  -0.001   0.059  0.00  0.00    -0.033 A 
ATOM      3  C   UNL     1      -0.970  -0.691  -1.118  0.00  0.00    +0.050 A 
ATOM      4  C   UNL     1      -0.752  -2.066  -1.141  0.00  0.00    +0.125 A 
ATOM      5  C   UNL     1      -0.446  -2.751   0.024  0.00  0.00    +0.051 A 
ATOM      6  C   UNL     1      -0.354  -2.064   1.226  0.00  0.00    +0.148 A 
ATOM      7  C   UNL     1      -0.570  -0.676   1.238  0.00  0.00    +0.071 A 
ATOM      8  C   UNL     1      -0.397  -0.248   2.637  0.00  0.00    +0.232 C 
ATOM      9  O   UNL     1      -0.502   0.882   3.085  0.00  0.00    -0.283 OA
ATOM     10  C   UNL     1      -0.081  -1.433   3.353  0.00  0.00    +0.176 C 
ATOM     11  C   UNL     1       0.164  -1.514   4.691  0.00  0.00    +0.060 C 
ATOM     12  O   UNL     1      -0.078  -2.472   2.484  0.00  0.00    -0.451 OA
ENDROOT
BRANCH  11  13
ATOM     13  C   UNL     1       0.276  -0.294   5.488  0.00  0.00    +0.004 A 
ATOM     14  C   UNL     1       0.822   0.907   5.090  0.00  0.00    +0.094 A 
ATOM     15  N   UNL     1       0.743   1.799   6.107  0.00  0.00    -0.349 N 
ATOM     16  C   UNL     1       0.144   1.225   7.210  0.00  0.00    +0.049 A 
ATOM     17  C   UNL     1      -0.180  -0.100   6.878  0.00  0.00    +0.007 A 
ATOM     18  C   UNL     1      -0.806  -0.921   7.812  0.00  0.00    +0.010 A 
ATOM     19  C   UNL     1      -1.109  -0.426   9.062  0.00  0.00    +0.001 A 
ATOM     20  C   UNL     1      -0.793   0.883   9.391  0.00  0.00    +0.002 A 
ATOM     21  C   UNL     1      -0.166   1.705   8.479  0.00  0.00    +0.026 A 
ATOM     22  C   UNL     1       1.226   3.181   6.045  0.00  0.00    +0.149 C 
ENDBRANCH  11  13
BRANCH   4  23
ATOM     23  O   UNL     1      -0.841  -2.741  -2.316  0.00  0.00    -0.506 OA
ATOM     24  H   UNL     1      -0.007  -2.798  -2.801  0.00  0.00    +0.292 HD
ENDBRANCH   4  23
BRANCH   5  25
ATOM     25  C   UNL     1      -0.213  -4.239  -0.015  0.00  0.00    +0.127 C 
BRANCH  25  26
ATOM     26  N   UNL     1       1.211  -4.506  -0.255  0.00  0.00    -0.295 NA
ATOM     27  C   UNL     1       2.030  -4.046   0.874  0.00  0.00    +0.103 C 
ATOM     28  C   UNL     1       3.514  -4.175   0.511  0.00  0.00    +0.122 C 
ATOM     29  N   UNL     1       3.770  -5.557   0.079  0.00  0.00    -0.314 N 
ATOM     30  C   UNL     1       2.899  -6.136  -0.956  0.00  0.00    +0.122 C 
ATOM     31  C   UNL     1       1.440  -5.930  -0.534  0.00  0.00    +0.103 C 
ATOM     32  C   UNL     1       4.808  -6.297   0.633  0.00  0.00    +0.099 A 
ATOM     33  C   UNL     1       5.114  -7.552   0.115  0.00  0.00    +0.042 A 
ATOM     34  C   UNL     1       6.149  -8.277   0.676  0.00  0.00    +0.005 A 
ATOM     35  C   UNL     1       6.846  -7.722   1.741  0.00  0.00    +0.018 A 
ATOM     36  C   UNL     1       6.489  -6.472   2.205  0.00  0.00    +0.084 A 
ATOM     37  N   UNL     1       5.500  -5.800   1.647  0.00  0.00    -0.350 N 
ATOM     38  H   UNL     1       5.272  -4.922   1.990  0.00  0.00    +0.166 HD
ENDBRANCH  25  26
ENDBRANCH   5  25
TORSDOF 4
