REMARK  Name = ZINC45873791
REMARK  6 active torsions:
REMARK  status: ('A' for Active; 'I' for Inactive)
REMARK    1  A    between atoms: C_1  and  C_2
REMARK    2  A    between atoms: C_2  and  C_3
REMARK    3  A    between atoms: C_6  and  N_9
REMARK    4  A    between atoms: N_9  and  C_10
REMARK    5  A    between atoms: C_10  and  C_11
REMARK    6  A    between atoms: N_16  and  C_17
REMARK                            x       y       z     vdW  Elec       q    Type
REMARK                         _______ _______ _______ _____ _____    ______ ____
ROOT
ATOM      1  C   UNL     1      -7.404  -2.729  -0.936  0.00  0.00    +0.237 C 
ATOM      2  O   UNL     1      -7.771  -2.879   0.210  0.00  0.00    -0.274 OA
ATOM      3  N   UNL     1      -8.234  -3.030  -1.954  0.00  0.00    -0.239 N 
ATOM      4  C   UNL     1      -9.473  -3.497  -1.698  0.00  0.00    +0.310 C 
ATOM      5  O   UNL     1      -9.840  -3.646  -0.549  0.00  0.00    -0.252 OA
ATOM      6  N   UNL     1     -10.303  -3.797  -2.716  0.00  0.00    -0.269 N 
ATOM      7  H   UNL     1      -7.941  -2.911  -2.870  0.00  0.00    +0.159 HD
ATOM      8  H   UNL     1     -10.035  -3.615  -3.630  0.00  0.00    +0.156 HD
ENDROOT
BRANCH   6   9
ATOM      9  C   UNL     1     -11.553  -4.373  -2.454  0.00  0.00    +0.038 A 
ATOM     10  C   UNL     1     -12.083  -5.312  -3.328  0.00  0.00    +0.027 A 
ATOM     11  C   UNL     1     -13.316  -5.879  -3.070  0.00  0.00    +0.051 A 
ATOM     12  C   UNL     1     -14.028  -5.513  -1.938  0.00  0.00    +0.162 A 
ATOM     13  C   UNL     1     -13.500  -4.574  -1.059  0.00  0.00    +0.164 A 
ATOM     14  C   UNL     1     -12.261  -4.008  -1.317  0.00  0.00    +0.072 A 
ATOM     15  O   UNL     1     -14.181  -4.208   0.061  0.00  0.00    -0.485 OA
ATOM     16  C   UNL     1     -15.578  -4.520   0.096  0.00  0.00    +0.270 C 
ATOM     17  C   UNL     1     -15.758  -5.971  -0.370  0.00  0.00    +0.270 C 
ATOM     18  O   UNL     1     -15.244  -6.080  -1.702  0.00  0.00    -0.485 OA
ENDBRANCH   6   9
BRANCH   1  19
ATOM     19  C   UNL     1      -6.019  -2.208  -1.222  0.00  0.00    +0.198 C 
BRANCH  19  20
ATOM     20  N   UNL     1      -5.321  -1.959   0.042  0.00  0.00    -0.335 N 
ATOM     21  H   UNL     1      -5.766  -2.135   0.885  0.00  0.00    +0.147 HD
BRANCH  20  25
ATOM     22  C   UNL     1      -1.421  -0.499   0.012  0.00  0.00    -0.048 A 
ATOM     23  C   UNL     1      -2.055  -0.748   1.215  0.00  0.00    +0.005 A 
ATOM     24  C   UNL     1      -3.349  -1.233   1.229  0.00  0.00    +0.023 A 
ATOM     25  C   UNL     1      -4.013  -1.469   0.032  0.00  0.00    +0.028 A 
ATOM     26  C   UNL     1      -3.373  -1.217  -1.175  0.00  0.00    +0.023 A 
ATOM     27  C   UNL     1      -2.082  -0.728  -1.182  0.00  0.00    +0.005 A 
BRANCH  22  29
ATOM     28  C   UNL     1      -0.038   1.559   0.018  0.00  0.00    +0.009 C 
ATOM     29  C   UNL     1      -0.010   0.029   0.001  0.00  0.00    +0.032 C 
ENDBRANCH  22  29
ENDBRANCH  20  25
ENDBRANCH  19  20
ENDBRANCH   1  19
TORSDOF 5
