REMARK  Name = ZINC21733130
REMARK  12 active torsions:
REMARK  status: ('A' for Active; 'I' for Inactive)
REMARK    1  A    between atoms: C_1  and  C_2
REMARK    2  A    between atoms: C_3  and  C_16
REMARK    3  A    between atoms: C_4  and  C_15
REMARK    4  A    between atoms: N_5  and  C_7
REMARK    5  A    between atoms: C_7  and  C_8
REMARK    6  A    between atoms: C_17  and  C_18
REMARK    7  A    between atoms: C_18  and  O_20
REMARK    8  A    between atoms: O_20  and  C_21
REMARK    9  A    between atoms: C_21  and  C_23
REMARK   10  A    between atoms: C_21  and  C_24
REMARK   11  A    between atoms: N_26  and  C_27
REMARK   12  A    between atoms: C_30  and  N_33
REMARK                            x       y       z     vdW  Elec       q    Type
REMARK                         _______ _______ _______ _____ _____    ______ ____
ROOT
ATOM      1  C   UNL     1      -3.587   6.111  -1.022  0.00  0.00    +0.333 C 
ATOM      2  O   UNL     1      -4.642   5.695  -1.461  0.00  0.00    -0.246 OA
ENDROOT
BRANCH   1   4
ATOM      3  C   UNL     1      -4.314   8.374  -1.329  0.00  0.00    +0.018 C 
ATOM      4  C   UNL     1      -3.358   7.505  -0.930  0.00  0.00    +0.092 C 
BRANCH   3   7
ATOM      5  C   UNL     1      -3.283   9.919   1.243  0.00  0.00    +0.068 C 
ATOM      6  C   UNL     1      -3.618  10.524  -0.096  0.00  0.00    +0.067 A 
ATOM      7  C   UNL     1      -4.077   9.821  -1.234  0.00  0.00    +0.018 A 
ATOM      8  C   UNL     1      -4.267  10.753  -2.239  0.00  0.00    +0.044 A 
ATOM      9  N   UNL     1      -3.936  11.955  -1.738  0.00  0.00    -0.263 N 
ATOM     10  N   UNL     1      -3.533  11.787  -0.409  0.00  0.00    -0.175 NA
ATOM     11  C   UNL     1      -4.756  10.471  -3.636  0.00  0.00    +0.066 C 
BRANCH   9  12
ATOM     12  C   UNL     1      -3.988  13.227  -2.462  0.00  0.00    +0.180 C 
BRANCH  12  13
ATOM     13  C   UNL     1      -2.628  13.537  -3.031  0.00  0.00    -0.008 A 
ATOM     14  C   UNL     1      -2.348  13.246  -4.354  0.00  0.00    +0.007 A 
ATOM     15  C   UNL     1      -1.100  13.530  -4.875  0.00  0.00    +0.000 A 
ATOM     16  C   UNL     1      -0.131  14.107  -4.076  0.00  0.00    +0.001 A 
ATOM     17  C   UNL     1      -0.409  14.399  -2.754  0.00  0.00    +0.020 A 
ATOM     18  C   UNL     1      -1.660  14.119  -2.232  0.00  0.00    +0.046 A 
ATOM     19 CL   UNL     1      -2.013  14.493  -0.574  0.00  0.00    -0.083 Cl
ENDBRANCH  12  13
ENDBRANCH   9  12
ENDBRANCH   3   7
ENDBRANCH   1   4
BRANCH   1  20
ATOM     20  O   UNL     1      -2.633   5.243  -0.623  0.00  0.00    -0.449 OA
BRANCH  20  21
ATOM     21  C   UNL     1      -2.931   3.851  -0.744  0.00  0.00    +0.259 C 
ATOM     22  C   UNL     1      -3.592   3.357   0.545  0.00  0.00    +0.062 C 
BRANCH  21  23
ATOM     23  C   UNL     1      -1.656   3.083  -0.981  0.00  0.00    +0.258 C 
ATOM     24  O   UNL     1      -0.588   3.657  -0.950  0.00  0.00    -0.271 OA
ATOM     25  N   UNL     1      -1.702   1.759  -1.227  0.00  0.00    -0.282 N 
ATOM     26  H   UNL     1      -2.673   1.253  -1.331  0.00  0.00    +0.155 HD
BRANCH  25  27
ATOM     27  C   UNL     1      -0.515   1.028  -1.349  0.00  0.00    +0.034 A 
ATOM     28  C   UNL     1      -0.452  -0.056  -2.215  0.00  0.00    +0.025 A 
ATOM     29  C   UNL     1       0.720  -0.778  -2.330  0.00  0.00    +0.034 A 
ATOM     30  C   UNL     1       1.828  -0.424  -1.583  0.00  0.00    +0.126 A 
ATOM     31  C   UNL     1       1.768   0.654  -0.720  0.00  0.00    +0.034 A 
ATOM     32  C   UNL     1       0.600   1.381  -0.601  0.00  0.00    +0.025 A 
BRANCH  30  33
ATOM     33  N   UNL     1       3.082  -1.201  -1.708  0.00  0.00    +0.056 N 
ATOM     34  O   UNL     1       4.059  -0.890  -1.051  0.00  0.00    -0.126 OA
ATOM     35  O   UNL     1       3.136  -2.151  -2.468  0.00  0.00    -0.126 OA
ENDBRANCH  30  33
ENDBRANCH  25  27
ENDBRANCH  21  23
ENDBRANCH  20  21
ENDBRANCH   1  20
TORSDOF 9
