REMARK  Name = ZINC42029324
REMARK  5 active torsions:
REMARK  status: ('A' for Active; 'I' for Inactive)
REMARK    1  A    between atoms: C_3  and  N_21
REMARK    2  A    between atoms: C_4  and  C_8
REMARK    3  A    between atoms: N_12  and  C_13
REMARK    4  A    between atoms: C_13  and  C_14
REMARK    5  A    between atoms: C_14  and  C_15
REMARK                            x       y       z     vdW  Elec       q    Type
REMARK                         _______ _______ _______ _____ _____    ______ ____
ROOT
ATOM      1  C   UNL     1       3.694  -0.697  -0.034  0.00  0.00    +0.184 A 
ATOM      2  N   UNL     1       4.892  -0.158  -0.131  0.00  0.00    -0.108 NA
ATOM      3  N   UNL     1       5.797  -1.070  -0.120  0.00  0.00    -0.023 NA
ATOM      4  N   UNL     1       5.258  -2.236  -0.017  0.00  0.00    -0.044 NA
ATOM      5  N   UNL     1       3.868  -2.039   0.049  0.00  0.00    -0.225 N 
ENDROOT
BRANCH   1   9
ATOM      6  C   UNL     1      -0.016   1.382   0.026  0.00  0.00    +0.022 A 
ATOM      7  C   UNL     1       0.914   1.674  -0.952  0.00  0.00    +0.025 A 
ATOM      8  C   UNL     1       2.128   1.002  -0.980  0.00  0.00    +0.035 A 
ATOM      9  C   UNL     1       2.405   0.026  -0.013  0.00  0.00    +0.043 A 
ATOM     10  C   UNL     1       1.457  -0.260   0.969  0.00  0.00    +0.033 A 
ATOM     11  C   UNL     1       0.254   0.418   0.984  0.00  0.00    +0.042 A 
ATOM     12 CL   UNL     1      -0.925   0.060   2.207  0.00  0.00    -0.084 Cl
BRANCH   8  13
ATOM     13  N   UNL     1       3.068   1.296  -1.967  0.00  0.00    -0.357 N 
ATOM     14  H   UNL     1       2.874   1.971  -2.635  0.00  0.00    +0.142 HD
ATOM     15  H   UNL     1       3.915   0.825  -1.984  0.00  0.00    +0.142 HD
ENDBRANCH   8  13
ENDBRANCH   1   9
BRANCH   5  16
ATOM     16  C   UNL     1       2.829  -3.065   0.176  0.00  0.00    +0.148 C 
BRANCH  16  17
ATOM     17  C   UNL     1       2.481  -3.613  -1.209  0.00  0.00    +0.027 C 
BRANCH  17  18
ATOM     18  C   UNL     1       1.396  -4.684  -1.076  0.00  0.00    -0.009 C 
ATOM     19  C   UNL     1       1.951  -5.877  -0.296  0.00  0.00    +0.003 C 
ATOM     20  C   UNL     1       0.866  -6.948  -0.163  0.00  0.00    +0.000 C 
ATOM     21  C   UNL     1       0.429  -7.407  -1.555  0.00  0.00    +0.000 C 
ATOM     22  C   UNL     1      -0.126  -6.213  -2.335  0.00  0.00    +0.000 C 
ATOM     23  C   UNL     1       0.959  -5.143  -2.468  0.00  0.00    +0.003 C 
ENDBRANCH  17  18
ENDBRANCH  16  17
ENDBRANCH   5  16
TORSDOF 5
