REMARK  Name = ZINC04092880
REMARK  10 active torsions:
REMARK  status: ('A' for Active; 'I' for Inactive)
REMARK    1  A    between atoms: C_1  and  C_2
REMARK    2  A    between atoms: C_2  and  O_3
REMARK    3  A    between atoms: O_3  and  C_4
REMARK    4  A    between atoms: C_4  and  C_6
REMARK    5  A    between atoms: C_6  and  C_29
REMARK    6  A    between atoms: C_11  and  C_14
REMARK    7  A    between atoms: C_17  and  N_20
REMARK    8  A    between atoms: N_20  and  C_21
REMARK    9  A    between atoms: N_20  and  C_22
REMARK   10  A    between atoms: N_25  and  C_28
REMARK                            x       y       z     vdW  Elec       q    Type
REMARK                         _______ _______ _______ _____ _____    ______ ____
ROOT
ATOM      1  C   UNL     1       1.643  -2.417   2.587  0.00  0.00    +0.070 C 
ATOM      2  C   UNL     1       2.283  -3.783   2.263  0.00  0.00    +0.090 C 
ATOM      3  C   UNL     1       3.762  -3.458   1.921  0.00  0.00    +0.077 C 
ATOM      4  C   UNL     1       3.872  -1.925   2.055  0.00  0.00    -0.026 C 
ATOM      5  N   UNL     1       2.780  -1.556   3.002  0.00  0.00    +0.398 N 
ATOM      6  C   UNL     1       4.533  -4.126   3.038  0.00  0.00    +0.224 C 
ATOM      7  O   UNL     1       5.739  -4.119   3.158  0.00  0.00    -0.275 OA
ATOM      8  N   UNL     1       3.676  -4.725   3.873  0.00  0.00    -0.245 N 
ATOM      9  C   UNL     1       2.373  -4.603   3.530  0.00  0.00    +0.225 C 
ATOM     10  O   UNL     1       1.429  -5.067   4.133  0.00  0.00    -0.275 OA
ATOM     11  C   UNL     1       4.112  -5.464   5.060  0.00  0.00    +0.141 C 
ATOM     12  H   UNL     1       2.541  -0.581   2.896  0.00  0.00    -0.083 HD
ATOM     13  H   UNL     1       3.043  -1.755   3.955  0.00  0.00    -0.083 HD
ENDROOT
BRANCH   4  14
ATOM     14  C   UNL     1       5.207  -1.543   2.641  0.00  0.00    -0.060 A 
ATOM     15  C   UNL     1       5.415  -1.637   4.005  0.00  0.00    +0.004 A 
ATOM     16  C   UNL     1       6.637  -1.288   4.544  0.00  0.00    +0.023 A 
ATOM     17  C   UNL     1       7.659  -0.843   3.715  0.00  0.00    +0.029 A 
ATOM     18  C   UNL     1       7.447  -0.750   2.346  0.00  0.00    +0.023 A 
ATOM     19  C   UNL     1       6.224  -1.106   1.812  0.00  0.00    +0.004 A 
BRANCH  17  20
ATOM     20  N   UNL     1       8.896  -0.489   4.258  0.00  0.00    -0.336 N 
ATOM     21  C   UNL     1       9.158  -0.699   5.684  0.00  0.00    +0.129 C 
ATOM     22  C   UNL     1       9.933   0.092   3.401  0.00  0.00    +0.129 C 
ENDBRANCH  17  20
ENDBRANCH   4  14
BRANCH   1  23
ATOM     23  C   UNL     1       0.649  -2.553   3.712  0.00  0.00    -0.047 A 
ATOM     24  C   UNL     1       0.903  -1.959   4.934  0.00  0.00    +0.003 A 
ATOM     25  C   UNL     1      -0.008  -2.084   5.966  0.00  0.00    +0.000 A 
ATOM     26  C   UNL     1      -1.173  -2.803   5.775  0.00  0.00    +0.000 A 
ATOM     27  C   UNL     1      -1.428  -3.397   4.553  0.00  0.00    +0.000 A 
ATOM     28  C   UNL     1      -0.518  -3.268   3.520  0.00  0.00    +0.003 A 
ENDBRANCH   1  23
BRANCH   1  29
ATOM     29  C   UNL     1       0.973  -1.847   1.363  0.00  0.00    +0.301 C 
ATOM     30  O   UNL     1       0.538  -2.588   0.512  0.00  0.00    -0.252 OA
BRANCH  29  31
ATOM     31  O   UNL     1       0.859  -0.518   1.217  0.00  0.00    -0.466 OA
BRANCH  31  33
ATOM     32  C   UNL     1       0.178   1.482   0.043  0.00  0.00    +0.048 C 
ATOM     33  C   UNL     1       0.213  -0.048   0.032  0.00  0.00    +0.228 C 
ENDBRANCH  31  33
ENDBRANCH  29  31
ENDBRANCH   1  29
TORSDOF 6
