REMARK  Name = ZINC39608912
REMARK  6 active torsions:
REMARK  status: ('A' for Active; 'I' for Inactive)
REMARK    1  A    between atoms: C_4  and  C_7
REMARK    2  A    between atoms: C_7  and  O_8
REMARK    3  A    between atoms: O_8  and  C_9
REMARK    4  A    between atoms: C_14  and  N_16
REMARK    5  A    between atoms: C_17  and  C_19
REMARK    6  A    between atoms: C_30  and  C_32
REMARK                            x       y       z     vdW  Elec       q    Type
REMARK                         _______ _______ _______ _____ _____    ______ ____
ROOT
ATOM      1  C   UNL     1       9.926   0.858   2.564  0.00  0.00    +0.100 C 
ATOM      2  C   UNL     1       9.535   1.620   1.278  0.00  0.00    +0.121 C 
ATOM      3  N   UNL     1       9.259   3.003   1.732  0.00  0.00    -0.296 N 
ATOM      4  C   UNL     1      10.299   3.271   2.755  0.00  0.00    +0.115 C 
ATOM      5  C   UNL     1      10.431   1.944   3.529  0.00  0.00    -0.004 C 
ATOM      6  C   UNL     1      11.889   1.689   3.897  0.00  0.00    -0.010 C 
ATOM      7  C   UNL     1      12.351   2.748   4.902  0.00  0.00    -0.082 C 
ATOM      8  N   UNL     1      11.506   2.688   6.101  0.00  0.00    +0.379 N 
ATOM      9  C   UNL     1      10.120   3.026   5.754  0.00  0.00    -0.082 C 
ATOM     10  C   UNL     1       9.564   1.979   4.785  0.00  0.00    -0.010 C 
ATOM     11  C   UNL     1       8.283   3.832   1.311  0.00  0.00    +0.247 C 
ATOM     12  O   UNL     1       7.426   3.424   0.552  0.00  0.00    -0.270 OA
ATOM     13  H   UNL     1      11.537   1.756   6.486  0.00  0.00    -0.086 HD
ATOM     14  H   UNL     1      11.849   3.345   6.786  0.00  0.00    -0.086 HD
ENDROOT
BRANCH  11  15
ATOM     15  C   UNL     1       8.256   5.236   1.771  0.00  0.00    +0.037 A 
ATOM     16  C   UNL     1       9.434   5.837   2.250  0.00  0.00    +0.013 A 
ATOM     17  C   UNL     1       9.434   7.124   2.679  0.00  0.00    +0.009 A 
ATOM     18  C   UNL     1       8.245   7.877   2.648  0.00  0.00    -0.018 A 
ATOM     19  C   UNL     1       8.221   9.211   3.086  0.00  0.00    +0.008 A 
ATOM     20  C   UNL     1       7.056   9.914   3.044  0.00  0.00    +0.001 A 
ATOM     21  C   UNL     1       5.881   9.330   2.572  0.00  0.00    +0.001 A 
ATOM     22  C   UNL     1       5.866   8.040   2.139  0.00  0.00    +0.008 A 
ATOM     23  C   UNL     1       7.051   7.282   2.167  0.00  0.00    -0.017 A 
ATOM     24  C   UNL     1       7.071   5.952   1.723  0.00  0.00    +0.021 A 
ENDBRANCH  11  15
BRANCH   1  26
ATOM     25  N   UNL     1       8.891  -0.920   3.937  0.00  0.00    -0.310 N 
ATOM     26  C   UNL     1       8.725   0.157   3.145  0.00  0.00    +0.218 C 
ATOM     27  O   UNL     1       7.609   0.563   2.899  0.00  0.00    -0.275 OA
ATOM     28  H   UNL     1       9.784  -1.245   4.133  0.00  0.00    +0.149 HD
BRANCH  25  33
ATOM     29  C   UNL     1       8.068  -3.069   4.812  0.00  0.00    +0.139 C 
ATOM     30  C   UNL     1       7.870  -3.257   6.330  0.00  0.00    +0.033 C 
ATOM     31  C   UNL     1       8.020  -1.830   6.913  0.00  0.00    +0.004 C 
ATOM     32  C   UNL     1       7.326  -0.950   5.843  0.00  0.00    +0.025 C 
ATOM     33  C   UNL     1       7.723  -1.602   4.501  0.00  0.00    +0.102 C 
BRANCH  29  34
ATOM     34  O   UNL     1       7.193  -3.940   4.092  0.00  0.00    -0.370 OA
BRANCH  34  35
ATOM     35  C   UNL     1       7.773  -5.204   3.763  0.00  0.00    +0.195 C 
BRANCH  35  39
ATOM     36  C   UNL     1       4.925  -7.567   1.629  0.00  0.00    +0.000 A 
ATOM     37  C   UNL     1       5.785  -6.731   0.940  0.00  0.00    +0.000 A 
ATOM     38  C   UNL     1       6.706  -5.967   1.631  0.00  0.00    +0.006 A 
ATOM     39  C   UNL     1       6.768  -6.037   3.010  0.00  0.00    -0.022 A 
ATOM     40  C   UNL     1       5.907  -6.872   3.699  0.00  0.00    +0.006 A 
ATOM     41  C   UNL     1       4.987  -7.638   3.008  0.00  0.00    +0.000 A 
ENDBRANCH  35  39
ENDBRANCH  34  35
ENDBRANCH  29  34
ENDBRANCH  25  33
ENDBRANCH   1  26
TORSDOF 6
