REMARK  Name = ZINC08617801
REMARK  7 active torsions:
REMARK  status: ('A' for Active; 'I' for Inactive)
REMARK    1  A    between atoms: C_1  and  N_2
REMARK    2  A    between atoms: C_6  and  C_7
REMARK    3  A    between atoms: C_12  and  O_13
REMARK    4  A    between atoms: N_16  and  C_17
REMARK    5  A    between atoms: C_20  and  C_23
REMARK    6  A    between atoms: C_23  and  O_25
REMARK    7  A    between atoms: O_25  and  C_26
REMARK                            x       y       z     vdW  Elec       q    Type
REMARK                         _______ _______ _______ _____ _____    ______ ____
ROOT
ATOM      1  C   UNL     1       2.869   9.305   0.451  0.00  0.00    +0.140 C 
ATOM      2  N   UNL     1       2.583   7.874   0.325  0.00  0.00    -0.249 N 
ATOM      3  C   UNL     1       1.329   7.461   0.250  0.00  0.00    +0.259 C 
ATOM      4  O   UNL     1       0.398   8.245   0.283  0.00  0.00    -0.269 OA
ATOM      5  C   UNL     1       1.109   6.008   0.124  0.00  0.00    +0.078 C 
ATOM      6  C   UNL     1      -0.057   5.318   0.029  0.00  0.00    +0.032 C 
ATOM      7  S   UNL     1       2.789   5.400   0.139  0.00  0.00    -0.049 S 
ATOM      8  C   UNL     1       3.622   6.972   0.287  0.00  0.00    +0.168 C 
ATOM      9  N   UNL     1       4.915   7.211   0.349  0.00  0.00    -0.226 NA
ENDROOT
BRANCH   6  10
ATOM     10  C   UNL     1      -0.048   3.851   0.093  0.00  0.00    +0.018 A 
ATOM     11  C   UNL     1       1.061   3.175   0.614  0.00  0.00    +0.011 A 
ATOM     12  C   UNL     1       1.061   1.798   0.671  0.00  0.00    +0.001 A 
ATOM     13  C   UNL     1      -0.032   1.080   0.214  0.00  0.00    +0.004 A 
ATOM     14  C   UNL     1      -1.131   1.734  -0.309  0.00  0.00    +0.046 A 
ATOM     15  C   UNL     1      -1.153   3.118  -0.369  0.00  0.00    +0.124 A 
BRANCH  15  16
ATOM     16  O   UNL     1      -2.235   3.761  -0.876  0.00  0.00    -0.506 OA
ATOM     17  H   UNL     1      -2.190   3.914  -1.830  0.00  0.00    +0.292 HD
ENDBRANCH  15  16
ENDBRANCH   6  10
BRANCH   9  18
ATOM     18  C   UNL     1       5.802   6.178   0.295  0.00  0.00    +0.067 A 
ATOM     19  C   UNL     1       5.582   5.025   1.059  0.00  0.00    +0.028 A 
ATOM     20  C   UNL     1       6.468   3.990   1.001  0.00  0.00    +0.017 A 
ATOM     21  C   UNL     1       7.602   4.083   0.186  0.00  0.00    +0.059 A 
ATOM     22  C   UNL     1       7.825   5.238  -0.574  0.00  0.00    +0.017 A 
ATOM     23  C   UNL     1       6.937   6.272  -0.520  0.00  0.00    +0.028 A 
BRANCH  21  24
ATOM     24  C   UNL     1       8.560   2.967   0.128  0.00  0.00    +0.339 C 
ATOM     25  O   UNL     1       9.545   3.048  -0.580  0.00  0.00    -0.245 OA
BRANCH  24  26
ATOM     26  O   UNL     1       8.346   1.855   0.859  0.00  0.00    -0.464 OA
ATOM     27  C   UNL     1       9.332   0.795   0.752  0.00  0.00    +0.280 C 
ENDBRANCH  24  26
ENDBRANCH  21  24
ENDBRANCH   9  18
TORSDOF 5
