REMARK  Name = ZINC34757195
REMARK  6 active torsions:
REMARK  status: ('A' for Active; 'I' for Inactive)
REMARK    1  A    between atoms: C_2  and  C_3
REMARK    2  A    between atoms: C_3  and  S_4
REMARK    3  A    between atoms: S_4  and  C_5
REMARK    4  A    between atoms: N_20  and  C_23
REMARK    5  A    between atoms: C_23  and  C_24
REMARK    6  A    between atoms: N_26  and  C_27
REMARK                            x       y       z     vdW  Elec       q    Type
REMARK                         _______ _______ _______ _____ _____    ______ ____
ROOT
ATOM      1  C   UNL     1      -3.433  -3.802  -0.236  0.00  0.00    +0.191 A 
ATOM      2  N   UNL     1      -3.839  -4.529  -1.270  0.00  0.00    -0.206 NA
ATOM      3  C   UNL     1      -4.548  -4.010  -2.259  0.00  0.00    +0.134 A 
ATOM      4  C   UNL     1      -4.888  -2.629  -2.216  0.00  0.00    +0.051 A 
ATOM      5  C   UNL     1      -5.662  -1.848  -3.196  0.00  0.00    -0.025 A 
ATOM      6  C   UNL     1      -5.848  -0.547  -2.925  0.00  0.00    -0.004 A 
ATOM      7  S   UNL     1      -5.024  -0.276  -1.373  0.00  0.00    -0.073 S 
ATOM      8  C   UNL     1      -4.426  -1.921  -1.093  0.00  0.00    +0.115 A 
ATOM      9  N   UNL     1      -3.726  -2.511  -0.143  0.00  0.00    -0.215 NA
ATOM     10  C   UNL     1      -6.645   0.149  -3.995  0.00  0.00    +0.043 C 
ATOM     11  C   UNL     1      -6.578  -0.803  -5.210  0.00  0.00    +0.010 C 
ATOM     12  C   UNL     1      -6.353  -2.166  -4.526  0.00  0.00    +0.037 C 
ATOM     13  N   UNL     1      -4.953  -4.799  -3.320  0.00  0.00    -0.318 N 
ATOM     14  C   UNL     1      -6.193  -5.588  -3.246  0.00  0.00    +0.088 C 
ATOM     15  C   UNL     1      -5.876  -7.030  -3.656  0.00  0.00    -0.059 C 
ATOM     16  N   UNL     1      -5.234  -7.032  -4.977  0.00  0.00    +0.387 N 
ATOM     17  C   UNL     1      -3.936  -6.348  -4.903  0.00  0.00    -0.059 C 
ATOM     18  C   UNL     1      -4.160  -4.868  -4.557  0.00  0.00    +0.088 C 
ATOM     19  H   UNL     1      -5.827  -6.555  -5.639  0.00  0.00    -0.081 HD
ENDROOT
BRANCH   1  20
ATOM     20  S   UNL     1      -2.491  -4.567   1.042  0.00  0.00    -0.082 S 
BRANCH  20  21
ATOM     21  C   UNL     1      -2.175  -3.224   2.219  0.00  0.00    +0.104 C 
BRANCH  21  23
ATOM     22  C   UNL     1      -0.150  -3.310   3.580  0.00  0.00    +0.005 C 
ATOM     23  C   UNL     1      -1.367  -3.751   3.377  0.00  0.00    -0.023 C 
ENDBRANCH  21  23
ENDBRANCH  20  21
ENDBRANCH   1  20
BRANCH  16  24
ATOM     24  C   UNL     1      -5.030  -8.419  -5.418  0.00  0.00    +0.019 C 
BRANCH  24  25
ATOM     25  C   UNL     1      -4.484  -8.424  -6.822  0.00  0.00    +0.201 C 
ATOM     26  O   UNL     1      -4.285  -7.376  -7.399  0.00  0.00    -0.278 OA
ATOM     27  N   UNL     1      -4.218  -9.593  -7.437  0.00  0.00    -0.287 N 
ATOM     28  H   UNL     1      -4.430 -10.432  -6.998  0.00  0.00    +0.155 HD
BRANCH  27  29
ATOM     29  C   UNL     1      -3.637  -9.598  -8.707  0.00  0.00    +0.041 A 
ATOM     30  C   UNL     1      -3.803  -8.522  -9.551  0.00  0.00    +0.024 A 
ATOM     31  C   UNL     1      -3.228  -8.516 -10.819  0.00  0.00    +0.002 A 
ATOM     32  C   UNL     1      -2.487  -9.570 -11.259  0.00  0.00    +0.008 A 
ATOM     33  C   UNL     1      -2.293 -10.687 -10.429  0.00  0.00    -0.016 A 
ATOM     34  C   UNL     1      -2.869 -10.702  -9.134  0.00  0.00    +0.003 A 
ATOM     35  C   UNL     1      -2.671 -11.816  -8.304  0.00  0.00    +0.010 A 
ATOM     36  C   UNL     1      -1.925 -12.864  -8.750  0.00  0.00    +0.001 A 
ATOM     37  C   UNL     1      -1.353 -12.848 -10.021  0.00  0.00    +0.001 A 
ATOM     38  C   UNL     1      -1.534 -11.790 -10.857  0.00  0.00    +0.008 A 
ENDBRANCH  27  29
ENDBRANCH  24  25
ENDBRANCH  16  24
TORSDOF 6
