REMARK  Name = ZINC04264118
REMARK  8 active torsions:
REMARK  status: ('A' for Active; 'I' for Inactive)
REMARK    1  A    between atoms: C_1  and  C_2
REMARK    2  A    between atoms: C_2  and  C_3
REMARK    3  A    between atoms: C_2  and  C_4
REMARK    4  A    between atoms: C_4  and  C_6
REMARK    5  A    between atoms: C_4  and  N_10
REMARK    6  A    between atoms: C_6  and  O_8
REMARK    7  A    between atoms: O_8  and  C_9
REMARK    8  A    between atoms: N_13  and  C_14
REMARK                            x       y       z     vdW  Elec       q    Type
REMARK                         _______ _______ _______ _____ _____    ______ ____
ROOT
ATOM      1  N   UNL     1       1.178  -0.662  -0.013  0.00  0.00    -0.286 N 
ATOM      2  C   UNL     1       0.002  -0.004   0.002  0.00  0.00    +0.301 C 
ATOM      3  O   UNL     1      -1.042  -0.626   0.009  0.00  0.00    -0.253 OA
ATOM      4  N   UNL     1      -0.016   1.344   0.009  0.00  0.00    -0.294 N 
ATOM      5  H   UNL     1       2.012  -0.166  -0.018  0.00  0.00    +0.151 HD
ATOM      6  H   UNL     1       0.817   1.840   0.004  0.00  0.00    +0.151 HD
ENDROOT
BRANCH   4   7
ATOM      7  C   UNL     1      -1.295   2.059   0.019  0.00  0.00    +0.037 C 
ATOM      8  C   UNL     1      -2.098   1.685  -1.228  0.00  0.00    +0.029 C 
ATOM      9  C   UNL     1      -3.433   2.432  -1.218  0.00  0.00    -0.008 C 
ATOM     10  C   UNL     1      -3.174   3.940  -1.211  0.00  0.00    +0.007 C 
ATOM     11  C   UNL     1      -2.371   4.314   0.037  0.00  0.00    -0.008 C 
ATOM     12  C   UNL     1      -1.036   3.567   0.026  0.00  0.00    +0.029 C 
ATOM     13  C   UNL     1      -3.162   3.926   1.288  0.00  0.00    +0.007 C 
ATOM     14  C   UNL     1      -3.421   2.418   1.281  0.00  0.00    -0.008 C 
ATOM     15  C   UNL     1      -4.224   2.045   0.033  0.00  0.00    +0.007 C 
ATOM     16  C   UNL     1      -2.086   1.671   1.270  0.00  0.00    +0.029 C 
ENDBRANCH   4   7
BRANCH   1  17
ATOM     17  C   UNL     1       1.198  -2.127  -0.021  0.00  0.00    +0.186 C 
BRANCH  17  19
ATOM     18  C   UNL     1       2.295  -2.205  -2.264  0.00  0.00    +0.009 C 
ATOM     19  C   UNL     1       1.066  -2.631  -1.459  0.00  0.00    +0.014 C 
ATOM     20  C   UNL     1       0.961  -4.157  -1.457  0.00  0.00    +0.009 C 
ENDBRANCH  17  19
BRANCH  17  21
ATOM     21  C   UNL     1       2.498  -2.615   0.565  0.00  0.00    +0.328 C 
ATOM     22  O   UNL     1       3.323  -1.821   0.949  0.00  0.00    -0.249 OA
BRANCH  21  23
ATOM     23  O   UNL     1       2.739  -3.932   0.659  0.00  0.00    -0.467 OA
ATOM     24  C   UNL     1       4.012  -4.330   1.233  0.00  0.00    +0.280 C 
ENDBRANCH  21  23
ENDBRANCH  17  21
ENDBRANCH   1  17
TORSDOF 5
