REMARK  Name = ZINC16919368
REMARK  14 active torsions:
REMARK  status: ('A' for Active; 'I' for Inactive)
REMARK    1  A    between atoms: C_1  and  C_2
REMARK    2  A    between atoms: C_2  and  C_3
REMARK    3  A    between atoms: C_3  and  C_5
REMARK    4  A    between atoms: C_3  and  O_8
REMARK    5  A    between atoms: O_8  and  C_9
REMARK    6  A    between atoms: C_12  and  C_18
REMARK    7  A    between atoms: C_14  and  O_15
REMARK    8  A    between atoms: O_15  and  C_16
REMARK    9  A    between atoms: C_16  and  C_17
REMARK   10  A    between atoms: C_23  and  N_25
REMARK   11  A    between atoms: N_25  and  C_26
REMARK   12  A    between atoms: C_31  and  C_32
REMARK   13  A    between atoms: C_32  and  O_34
REMARK   14  A    between atoms: O_34  and  C_35
REMARK                            x       y       z     vdW  Elec       q    Type
REMARK                         _______ _______ _______ _____ _____    ______ ____
ROOT
ATOM      1  C   UNL     1       4.827  -5.710   0.169  0.00  0.00    +0.028 C 
ATOM      2  C   UNL     1       4.058  -4.896   0.936  0.00  0.00    +0.079 C 
ATOM      3  C   UNL     1       4.455  -3.905   1.963  0.00  0.00    +0.276 C 
ATOM      4  O   UNL     1       5.626  -3.706   2.247  0.00  0.00    -0.267 OA
ATOM      5  N   UNL     1       3.478  -3.252   2.552  0.00  0.00    -0.152 NA
ATOM      6  C   UNL     1       2.205  -3.459   2.254  0.00  0.00    +0.175 C 
ATOM      7  S   UNL     1       2.279  -4.723   0.995  0.00  0.00    -0.050 S 
ENDROOT
BRANCH   1  11
ATOM      8  C   UNL     1       9.045  -5.247   0.163  0.00  0.00    +0.163 A 
ATOM      9  C   UNL     1       8.225  -4.131   0.264  0.00  0.00    +0.050 A 
ATOM     10  C   UNL     1       6.856  -4.275   0.261  0.00  0.00    +0.012 A 
ATOM     11  C   UNL     1       6.287  -5.552   0.166  0.00  0.00    -0.020 A 
ATOM     12  C   UNL     1       7.115  -6.676   0.064  0.00  0.00    +0.057 A 
ATOM     13  C   UNL     1       8.487  -6.521   0.062  0.00  0.00    +0.162 A 
BRANCH   8  14
ATOM     14  O   UNL     1      10.395  -5.097   0.160  0.00  0.00    -0.474 OA
BRANCH  14  15
ATOM     15  C   UNL     1      10.903  -3.781   0.390  0.00  0.00    +0.285 C 
BRANCH  15  16
ATOM     16  C   UNL     1      10.932  -3.020  -0.911  0.00  0.00    +0.396 C 
ATOM     17  O   UNL     1      10.557  -3.551  -1.929  0.00  0.00    -0.242 OA
ATOM     18  O   UNL     1      11.374  -1.753  -0.937  0.00  0.00    -0.242 OA
ENDBRANCH  15  16
BRANCH  15  20
ATOM     19  C   UNL     1      12.274  -4.535   2.338  0.00  0.00    +0.008 C 
ATOM     20  C   UNL     1      12.320  -3.873   0.959  0.00  0.00    +0.053 C 
ENDBRANCH  15  20
ENDBRANCH  14  15
ENDBRANCH   8  14
BRANCH  13  21
ATOM     21  O   UNL     1       9.294  -7.611  -0.037  0.00  0.00    -0.489 OA
BRANCH  21  22
ATOM     22  C   UNL     1       8.655  -8.885  -0.136  0.00  0.00    +0.226 C 
ATOM     23  C   UNL     1       9.717  -9.982  -0.238  0.00  0.00    +0.048 C 
ENDBRANCH  21  22
ENDBRANCH  13  21
ENDBRANCH   1  11
BRANCH   6  24
ATOM     24  N   UNL     1       1.097  -2.852   2.788  0.00  0.00    -0.191 NA
BRANCH  24  25
ATOM     25  C   UNL     1       1.244  -1.800   3.685  0.00  0.00    +0.070 A 
ATOM     26  C   UNL     1       2.496  -1.241   3.907  0.00  0.00    +0.026 A 
ATOM     27  C   UNL     1       2.640  -0.198   4.798  0.00  0.00    +0.002 A 
ATOM     28  C   UNL     1       1.540   0.301   5.478  0.00  0.00    +0.001 A 
ATOM     29  C   UNL     1       0.290  -0.239   5.271  0.00  0.00    +0.017 A 
ATOM     30  C   UNL     1       0.128  -1.296   4.372  0.00  0.00    +0.082 A 
BRANCH  30  31
ATOM     31  C   UNL     1      -1.206  -1.880   4.147  0.00  0.00    +0.341 C 
ATOM     32  O   UNL     1      -1.363  -2.726   3.288  0.00  0.00    -0.245 OA
BRANCH  31  33
ATOM     33  O   UNL     1      -2.254  -1.475   4.892  0.00  0.00    -0.464 OA
ATOM     34  C   UNL     1      -3.538  -2.093   4.615  0.00  0.00    +0.280 C 
ENDBRANCH  31  33
ENDBRANCH  30  31
ENDBRANCH  24  25
ENDBRANCH   6  24
TORSDOF 11
