REMARK  Name = ZINC35709789
REMARK  8 active torsions:
REMARK  status: ('A' for Active; 'I' for Inactive)
REMARK    1  A    between atoms: C_1  and  C_2
REMARK    2  A    between atoms: N_5  and  C_8
REMARK    3  A    between atoms: C_11  and  N_26
REMARK    4  A    between atoms: C_13  and  C_14
REMARK    5  A    between atoms: N_16  and  C_17
REMARK    6  A    between atoms: C_17  and  C_19
REMARK    7  A    between atoms: C_17  and  C_20
REMARK    8  A    between atoms: N_29  and  C_30
REMARK                            x       y       z     vdW  Elec       q    Type
REMARK                         _______ _______ _______ _____ _____    ______ ____
ROOT
ATOM      1  C   UNL     1      -1.043  -3.556   1.987  0.00  0.00    +0.042 A 
ATOM      2  C   UNL     1      -0.872  -4.926   1.831  0.00  0.00    +0.026 A 
ATOM      3  C   UNL     1      -1.403  -5.801   2.755  0.00  0.00    +0.025 A 
ATOM      4  C   UNL     1      -2.115  -5.319   3.850  0.00  0.00    +0.036 A 
ATOM      5  C   UNL     1      -2.296  -3.959   4.019  0.00  0.00    +0.038 A 
ATOM      6  C   UNL     1      -1.756  -3.064   3.091  0.00  0.00    +0.059 A 
ENDROOT
BRANCH   1  11
ATOM      7  C   UNL     1       1.834  -2.076  -2.448  0.00  0.00    +0.007 C 
ATOM      8  C   UNL     1       0.958  -1.840  -1.216  0.00  0.00    -0.011 C 
ATOM      9  C   UNL     1       1.685  -2.348   0.031  0.00  0.00    +0.022 C 
ATOM     10  C   UNL     1       0.820  -2.078   1.266  0.00  0.00    +0.105 C 
ATOM     11  N   UNL     1      -0.506  -2.675   1.055  0.00  0.00    -0.329 N 
ATOM     12  C   UNL     1      -1.253  -2.324  -0.161  0.00  0.00    +0.105 C 
ATOM     13  C   UNL     1      -0.365  -2.591  -1.380  0.00  0.00    +0.022 C 
ENDBRANCH   1  11
BRANCH   4  14
ATOM     14  N   UNL     1      -2.652  -6.217   4.784  0.00  0.00    -0.269 N 
ATOM     15  C   UNL     1      -3.091  -7.426   4.381  0.00  0.00    +0.304 C 
ATOM     16  O   UNL     1      -3.109  -7.703   3.197  0.00  0.00    -0.252 OA
ATOM     17  N   UNL     1      -3.510  -8.328   5.291  0.00  0.00    -0.294 N 
ATOM     18  H   UNL     1      -2.708  -5.968   5.720  0.00  0.00    +0.156 HD
ATOM     19  H   UNL     1      -3.495  -8.107   6.235  0.00  0.00    +0.151 HD
BRANCH  17  20
ATOM     20  C   UNL     1      -3.987  -9.643   4.853  0.00  0.00    +0.037 C 
ATOM     21  C   UNL     1      -5.191  -9.465   3.926  0.00  0.00    +0.029 C 
ATOM     22  C   UNL     1      -5.690 -10.838   3.469  0.00  0.00    -0.008 C 
ATOM     23  C   UNL     1      -6.102 -11.663   4.690  0.00  0.00    +0.007 C 
ATOM     24  C   UNL     1      -4.898 -11.840   5.616  0.00  0.00    -0.008 C 
ATOM     25  C   UNL     1      -4.399 -10.468   6.074  0.00  0.00    +0.029 C 
ATOM     26  C   UNL     1      -3.779 -12.565   4.865  0.00  0.00    +0.007 C 
ATOM     27  C   UNL     1      -3.366 -11.740   3.645  0.00  0.00    -0.008 C 
ATOM     28  C   UNL     1      -4.571 -11.562   2.718  0.00  0.00    +0.007 C 
ATOM     29  C   UNL     1      -2.868 -10.367   4.102  0.00  0.00    +0.029 C 
ENDBRANCH  17  20
ENDBRANCH   4  14
BRANCH   6  30
ATOM     30  C   UNL     1      -1.938  -1.612   3.268  0.00  0.00    +0.246 C 
ATOM     31  O   UNL     1      -1.554  -0.842   2.409  0.00  0.00    -0.270 OA
ATOM     32  N   UNL     1      -2.531  -1.138   4.382  0.00  0.00    -0.305 N 
ATOM     33  H   UNL     1      -2.838  -1.753   5.067  0.00  0.00    +0.150 HD
BRANCH  32  34
ATOM     34  C   UNL     1      -2.713   0.305   4.558  0.00  0.00    +0.100 C 
ATOM     35  C   UNL     1      -4.002   0.745   3.861  0.00  0.00    +0.033 C 
BRANCH  34  36
ATOM     36  C   UNL     1      -2.802   0.624   6.028  0.00  0.00    -0.027 A 
ATOM     37  C   UNL     1      -3.501  -0.214   6.876  0.00  0.00    +0.005 A 
ATOM     38  C   UNL     1      -3.583   0.079   8.225  0.00  0.00    +0.000 A 
ATOM     39  C   UNL     1      -2.966   1.210   8.725  0.00  0.00    +0.000 A 
ATOM     40  C   UNL     1      -2.267   2.049   7.876  0.00  0.00    +0.000 A 
ATOM     41  C   UNL     1      -2.181   1.753   6.529  0.00  0.00    +0.005 A 
ENDBRANCH  34  36
ENDBRANCH  32  34
ENDBRANCH   6  30
TORSDOF 6
