REMARK  Name = ZINC31055973
REMARK  10 active torsions:
REMARK  status: ('A' for Active; 'I' for Inactive)
REMARK    1  A    between atoms: C_1  and  C_2
REMARK    2  A    between atoms: C_2  and  C_3
REMARK    3  A    between atoms: C_3  and  C_5
REMARK    4  A    between atoms: C_3  and  N_13
REMARK    5  A    between atoms: C_8  and  C_12
REMARK    6  A    between atoms: C_9  and  C_11
REMARK    7  A    between atoms: C_14  and  C_16
REMARK    8  A    between atoms: N_21  and  C_23
REMARK    9  A    between atoms: C_23  and  C_24
REMARK   10  A    between atoms: C_26  and  C_29
REMARK                            x       y       z     vdW  Elec       q    Type
REMARK                         _______ _______ _______ _____ _____    ______ ____
ROOT
ATOM      1  C   UNL     1      -2.290  -6.509  -2.057  0.00  0.00    +0.058 C 
ATOM      2  C   UNL     1      -3.501  -5.580  -2.180  0.00  0.00    +0.009 C 
ATOM      3  C   UNL     1      -4.456  -6.137  -3.239  0.00  0.00    -0.018 C 
ATOM      4  C   UNL     1      -4.872  -7.557  -2.849  0.00  0.00    -0.078 C 
ATOM      5  N   UNL     1      -3.678  -8.407  -2.745  0.00  0.00    +0.386 N 
ATOM      6  C   UNL     1      -2.768  -7.918  -1.701  0.00  0.00    -0.065 C 
ATOM      7  H   UNL     1      -3.145  -8.354  -3.706  0.00  0.00    -0.081 HD
ENDROOT
BRANCH   1   9
ATOM      8  N   UNL     1      -0.832  -4.770  -1.074  0.00  0.00    -0.308 N 
ATOM      9  C   UNL     1      -1.373  -6.000  -0.975  0.00  0.00    +0.215 C 
ATOM     10  O   UNL     1      -1.123  -6.697  -0.015  0.00  0.00    -0.276 OA
ATOM     11  H   UNL     1      -1.058  -4.138  -1.945  0.00  0.00    +0.149 HD
BRANCH   8  12
ATOM     12  C   UNL     1       0.060  -4.275  -0.021  0.00  0.00    +0.103 C 
BRANCH  12  13
ATOM     13  C   UNL     1       0.039  -2.768  -0.013  0.00  0.00    -0.027 A 
ATOM     14  C   UNL     1       0.018  -2.071  -1.207  0.00  0.00    +0.006 A 
ATOM     15  C   UNL     1      -0.006  -0.689  -1.199  0.00  0.00    +0.004 A 
ATOM     16  C   UNL     1       0.002  -0.004   0.002  0.00  0.00    -0.048 A 
ATOM     17  C   UNL     1       0.023  -0.702   1.195  0.00  0.00    -0.047 A 
ATOM     18  C   UNL     1       0.041  -2.084   1.188  0.00  0.00    +0.009 A 
ATOM     19  C   UNL     1       0.025   0.045   2.504  0.00  0.00    +0.044 C 
ATOM     20  C   UNL     1      -0.018   1.503   0.010  0.00  0.00    +0.044 C 
ENDBRANCH  12  13
BRANCH  12  22
ATOM     21  C   UNL     1       1.530  -6.290  -0.173  0.00  0.00    +0.006 C 
ATOM     22  C   UNL     1       1.485  -4.764  -0.288  0.00  0.00    +0.024 C 
ENDBRANCH  12  22
ENDBRANCH   8  12
ENDBRANCH   1   9
BRANCH   5  23
ATOM     23  C   UNL     1      -4.048  -9.808  -2.508  0.00  0.00    +0.022 C 
BRANCH  23  24
ATOM     24  C   UNL     1      -4.769 -10.349  -3.716  0.00  0.00    +0.211 A 
ATOM     25  N   UNL     1      -4.221 -10.935  -4.751  0.00  0.00    -0.193 NA
ATOM     26  C   UNL     1      -5.246 -11.250  -5.575  0.00  0.00    +0.203 A 
ATOM     27  N   UNL     1      -6.345 -10.833  -5.001  0.00  0.00    -0.056 NA
ATOM     28  O   UNL     1      -6.087 -10.315  -3.935  0.00  0.00    -0.340 OA
BRANCH  26  29
ATOM     29  C   UNL     1      -5.143 -11.935  -6.887  0.00  0.00    +0.041 A 
ATOM     30  C   UNL     1      -6.291 -12.191  -7.634  0.00  0.00    +0.014 A 
ATOM     31  C   UNL     1      -6.191 -12.828  -8.854  0.00  0.00    +0.021 A 
ATOM     32  C   UNL     1      -4.951 -13.213  -9.337  0.00  0.00    +0.042 A 
ATOM     33  C   UNL     1      -3.807 -12.961  -8.600  0.00  0.00    +0.040 A 
ATOM     34  C   UNL     1      -3.897 -12.319  -7.380  0.00  0.00    +0.053 A 
ATOM     35 CL   UNL     1      -2.460 -11.997  -6.459  0.00  0.00    -0.083 Cl
ATOM     36 CL   UNL     1      -4.832 -14.013 -10.873  0.00  0.00    -0.083 Cl
ENDBRANCH  26  29
ENDBRANCH  23  24
ENDBRANCH   5  23
TORSDOF 7
