REMARK  Name = ZINC39465941
REMARK  6 active torsions:
REMARK  status: ('A' for Active; 'I' for Inactive)
REMARK    1  A    between atoms: C_4  and  O_7
REMARK    2  A    between atoms: O_7  and  S_8
REMARK    3  A    between atoms: S_8  and  P_11
REMARK    4  A    between atoms: C_19  and  O_34
REMARK    5  A    between atoms: C_20  and  C_27
REMARK    6  A    between atoms: C_32  and  O_33
REMARK                            x       y       z     vdW  Elec       q    Type
REMARK                         _______ _______ _______ _____ _____    ______ ____
ROOT
ATOM      1  P   UNL     1       3.000  -2.544   2.135  0.00  0.00    +0.458 P 
ATOM      2  O   UNL     1       1.581  -2.143   2.271  0.00  0.00    -0.243 OA
ATOM      3  N   UNL     1       3.607  -3.010   3.601  0.00  0.00    -0.158 NA
ATOM      4  N   UNL     1       4.723  -3.817   3.576  0.00  0.00    -0.224 NA
ATOM      5  C   UNL     1       5.124  -4.155   4.950  0.00  0.00    +0.108 C 
ATOM      6  C   UNL     1       6.529  -4.755   4.920  0.00  0.00    +0.052 C 
ATOM      7  C   UNL     1       6.580  -5.877   3.914  0.00  0.00    -0.038 A 
ATOM      8  C   UNL     1       7.615  -6.796   4.003  0.00  0.00    +0.050 A 
ATOM      9  C   UNL     1       7.703  -7.842   3.103  0.00  0.00    +0.125 A 
ATOM     10  C   UNL     1       6.739  -7.970   2.097  0.00  0.00    +0.027 A 
ATOM     11  C   UNL     1       5.706  -7.044   2.016  0.00  0.00    +0.017 A 
ATOM     12  C   UNL     1       5.627  -5.999   2.924  0.00  0.00    -0.023 A 
ATOM     13  C   UNL     1       4.485  -5.026   2.788  0.00  0.00    +0.129 C 
ATOM     14  C   UNL     1       4.292  -4.687   1.307  0.00  0.00    +0.195 C 
ATOM     15  O   UNL     1       3.125  -3.850   1.174  0.00  0.00    -0.296 OA
ATOM     16  H   UNL     1       3.198  -2.730   4.435  0.00  0.00    +0.152 HD
ENDROOT
BRANCH  10  17
ATOM     17  C   UNL     1       6.820  -9.086   1.124  0.00  0.00    +0.027 A 
ATOM     18  C   UNL     1       7.049  -8.823  -0.225  0.00  0.00    +0.012 A 
ATOM     19  C   UNL     1       7.123  -9.865  -1.127  0.00  0.00    +0.001 A 
ATOM     20  C   UNL     1       6.970 -11.171  -0.696  0.00  0.00    +0.004 A 
ATOM     21  C   UNL     1       6.742 -11.443   0.639  0.00  0.00    +0.046 A 
ATOM     22  C   UNL     1       6.671 -10.407   1.556  0.00  0.00    +0.125 A 
BRANCH  22  23
ATOM     23  O   UNL     1       6.453 -10.674   2.871  0.00  0.00    -0.506 OA
ATOM     24  H   UNL     1       5.518 -10.697   3.117  0.00  0.00    +0.292 HD
ENDBRANCH  22  23
ENDBRANCH  10  17
BRANCH   1  25
ATOM     25  S   UNL     1       4.140  -0.941   1.346  0.00  0.00    +0.211 S 
ATOM     26  O   UNL     1       5.458  -1.436   1.154  0.00  0.00    -0.126 OA
ATOM     27  O   UNL     1       3.863   0.192   2.158  0.00  0.00    -0.126 OA
BRANCH  25  28
ATOM     28  O   UNL     1       3.586  -0.632  -0.037  0.00  0.00    -0.339 OA
BRANCH  28  32
ATOM     29  C   UNL     1      -0.017   1.378   0.010  0.00  0.00    +0.000 A 
ATOM     30  C   UNL     1       1.170   2.088   0.002  0.00  0.00    +0.004 A 
ATOM     31  C   UNL     1       2.377   1.417  -0.013  0.00  0.00    +0.048 A 
ATOM     32  C   UNL     1       2.399   0.030  -0.021  0.00  0.00    +0.157 A 
ATOM     33  C   UNL     1       1.207  -0.680  -0.013  0.00  0.00    +0.048 A 
ATOM     34  C   UNL     1       0.002  -0.004   0.002  0.00  0.00    +0.004 A 
ENDBRANCH  28  32
ENDBRANCH  25  28
ENDBRANCH   1  25
BRANCH   9  35
ATOM     35  O   UNL     1       8.719  -8.740   3.194  0.00  0.00    -0.506 OA
ATOM     36  H   UNL     1       8.522  -9.502   3.756  0.00  0.00    +0.292 HD
ENDBRANCH   9  35
TORSDOF 6
