REMARK  Name = ZINC21312854
REMARK  8 active torsions:
REMARK  status: ('A' for Active; 'I' for Inactive)
REMARK    1  A    between atoms: C_1  and  O_2
REMARK    2  A    between atoms: O_2  and  C_3
REMARK    3  A    between atoms: C_6  and  O_35
REMARK    4  A    between atoms: C_7  and  C_9
REMARK    5  A    between atoms: N_14  and  C_15
REMARK    6  A    between atoms: C_15  and  C_16
REMARK    7  A    between atoms: C_29  and  C_31
REMARK    8  A    between atoms: O_35  and  C_36
REMARK                            x       y       z     vdW  Elec       q    Type
REMARK                         _______ _______ _______ _____ _____    ______ ____
ROOT
ATOM      1  C   UNL     1      -1.477   3.300   2.984  0.00  0.00    +0.204 C 
ATOM      2  O   UNL     1      -1.593   3.135   4.180  0.00  0.00    -0.277 OA
ATOM      3  N   UNL     1      -0.789   2.409   2.244  0.00  0.00    -0.259 N 
ATOM      4  C   UNL     1      -0.648   2.588   0.861  0.00  0.00    +0.058 A 
ATOM      5  C   UNL     1      -1.720   2.384   0.008  0.00  0.00    +0.025 A 
ATOM      6  C   UNL     1      -1.550   2.521  -1.357  0.00  0.00    +0.002 A 
ATOM      7  C   UNL     1      -0.313   2.862  -1.874  0.00  0.00    +0.002 A 
ATOM      8  C   UNL     1       0.760   3.077  -1.029  0.00  0.00    +0.025 A 
ATOM      9  C   UNL     1       0.597   2.944   0.340  0.00  0.00    +0.055 A 
ATOM     10  N   UNL     1       1.660   3.191   1.216  0.00  0.00    -0.284 N 
ATOM     11  C   UNL     1       1.960   2.309   2.193  0.00  0.00    +0.219 C 
ATOM     12  O   UNL     1       2.826   2.574   2.999  0.00  0.00    -0.275 OA
ATOM     13  C   UNL     1       1.225   0.998   2.288  0.00  0.00    +0.128 C 
ATOM     14  C   UNL     1      -0.174   1.220   2.864  0.00  0.00    +0.194 C 
ATOM     15  H   UNL     1       2.257   4.109   1.110  0.00  0.00    +0.155 HD
ENDROOT
BRANCH  14  16
ATOM     16  C   UNL     1      -1.040  -0.010   2.584  0.00  0.00    +0.409 C 
ATOM     17  F   UNL     1      -0.461  -1.133   3.184  0.00  0.00    -0.169 F 
ATOM     18  F   UNL     1      -2.321   0.192   3.111  0.00  0.00    -0.169 F 
ATOM     19  F   UNL     1      -1.131  -0.213   1.203  0.00  0.00    -0.169 F 
ENDBRANCH  14  16
BRANCH   1  20
ATOM     20  C   UNL     1      -2.103   4.503   2.326  0.00  0.00    +0.020 C 
BRANCH  20  25
ATOM     21  C   UNL     1      -3.487   6.468   2.715  0.00  0.00    -0.033 C 
ATOM     22  C   UNL     1      -4.671   6.798   3.658  0.00  0.00    -0.012 C 
ATOM     23  C   UNL     1      -5.230   5.400   4.011  0.00  0.00    -0.020 C 
ATOM     24  C   UNL     1      -4.067   4.425   3.753  0.00  0.00    -0.077 C 
ATOM     25  N   UNL     1      -2.912   5.235   3.310  0.00  0.00    +0.390 N 
ATOM     26  H   UNL     1      -2.234   5.461   4.146  0.00  0.00    -0.080 HD
BRANCH  21  31
ATOM     27  C   UNL     1      -0.460   8.556   3.588  0.00  0.00    +0.121 A 
ATOM     28  C   UNL     1      -0.614   9.639   2.735  0.00  0.00    +0.049 A 
ATOM     29  C   UNL     1      -1.696   9.694   1.877  0.00  0.00    +0.049 A 
ATOM     30  C   UNL     1      -2.626   8.665   1.867  0.00  0.00    +0.122 A 
ATOM     31  C   UNL     1      -2.474   7.584   2.723  0.00  0.00    -0.016 A 
ATOM     32  C   UNL     1      -1.392   7.529   3.580  0.00  0.00    +0.051 A 
BRANCH  27  34
ATOM     33  C   UNL     1       1.526   9.593   4.386  0.00  0.00    +0.277 C 
ATOM     34  O   UNL     1       0.605   8.501   4.431  0.00  0.00    -0.495 OA
ENDBRANCH  27  34
BRANCH  30  35
ATOM     35  O   UNL     1      -3.688   8.716   1.020  0.00  0.00    -0.495 OA
ATOM     36  C   UNL     1      -3.781   9.858   0.165  0.00  0.00    +0.277 C 
ENDBRANCH  30  35
ENDBRANCH  21  31
ENDBRANCH  20  25
ENDBRANCH   1  20
TORSDOF 6
