REMARK  Name = ZINC06048372
REMARK  5 active torsions:
REMARK  status: ('A' for Active; 'I' for Inactive)
REMARK    1  A    between atoms: C_7  and  C_23
REMARK    2  A    between atoms: C_12  and  C_13
REMARK    3  A    between atoms: C_23  and  O_25
REMARK    4  A    between atoms: O_25  and  C_26
REMARK    5  A    between atoms: C_26  and  C_27
REMARK                            x       y       z     vdW  Elec       q    Type
REMARK                         _______ _______ _______ _____ _____    ______ ____
ROOT
ATOM      1  C   UNL     1      -0.063   0.106   0.129  0.00  0.00    +0.001 A 
ATOM      2  C   UNL     1       1.105  -0.583  -0.192  0.00  0.00    +0.002 A 
ATOM      3  C   UNL     1       2.306   0.055  -0.242  0.00  0.00    +0.028 A 
ATOM      4  C   UNL     1       2.377   1.434   0.034  0.00  0.00    +0.072 A 
ATOM      5  C   UNL     1       1.184   2.128   0.361  0.00  0.00    +0.015 A 
ATOM      6  C   UNL     1      -0.033   1.442   0.403  0.00  0.00    +0.011 A 
ATOM      7  C   UNL     1       1.268   3.560   0.647  0.00  0.00    +0.073 A 
ATOM      8  C   UNL     1       2.520   4.155   0.580  0.00  0.00    -0.007 A 
ATOM      9  C   UNL     1       3.646   3.384   0.248  0.00  0.00    +0.072 A 
ATOM     10  N   UNL     1       3.536   2.084  -0.007  0.00  0.00    -0.247 NA
ATOM     11  C   UNL     1       4.856   4.230   0.240  0.00  0.00    -0.021 C 
ATOM     12  C   UNL     1       6.104   3.815  -0.036  0.00  0.00    +0.013 C 
ATOM     13  C   UNL     1       4.451   5.639   0.595  0.00  0.00    +0.042 C 
ATOM     14  C   UNL     1       2.934   5.587   0.816  0.00  0.00    +0.043 C 
ENDROOT
BRANCH  12  15
ATOM     15  C   UNL     1       7.198   4.795  -0.152  0.00  0.00    -0.023 A 
ATOM     16  C   UNL     1       8.470   4.489   0.339  0.00  0.00    +0.009 A 
ATOM     17  C   UNL     1       9.489   5.411   0.228  0.00  0.00    +0.022 A 
ATOM     18  C   UNL     1       9.255   6.638  -0.369  0.00  0.00    +0.059 A 
ATOM     19  C   UNL     1       7.996   6.949  -0.858  0.00  0.00    +0.060 A 
ATOM     20  C   UNL     1       6.968   6.034  -0.757  0.00  0.00    +0.029 A 
ATOM     21 CL   UNL     1       7.713   8.491  -1.605  0.00  0.00    -0.082 Cl
ATOM     22 CL   UNL     1      10.545   7.793  -0.505  0.00  0.00    -0.082 Cl
ENDBRANCH  12  15
BRANCH   7  23
ATOM     23  C   UNL     1       0.064   4.344   0.994  0.00  0.00    +0.341 C 
ATOM     24  O   UNL     1      -0.275   4.454   2.155  0.00  0.00    -0.245 OA
BRANCH  23  25
ATOM     25  O   UNL     1      -0.657   4.937   0.023  0.00  0.00    -0.446 OA
BRANCH  25  26
ATOM     26  C   UNL     1      -1.827   5.690   0.437  0.00  0.00    +0.350 C 
BRANCH  26  27
ATOM     27  C   UNL     1      -2.486   6.263  -0.748  0.00  0.00    +0.104 C 
ATOM     28  N   UNL     1      -2.995   6.705  -1.662  0.00  0.00    -0.193 NA
ENDBRANCH  26  27
ENDBRANCH  25  26
ENDBRANCH  23  25
ENDBRANCH   7  23
TORSDOF 5
