REMARK  Name = ZINC35926776
REMARK  4 active torsions:
REMARK  status: ('A' for Active; 'I' for Inactive)
REMARK    1  A    between atoms: C_2  and  C_24
REMARK    2  A    between atoms: N_17  and  C_18
REMARK    3  A    between atoms: C_24  and  N_25
REMARK    4  A    between atoms: N_28  and  C_31
REMARK                            x       y       z     vdW  Elec       q    Type
REMARK                         _______ _______ _______ _____ _____    ______ ____
ROOT
ATOM      1  C   UNL     1      -0.016   1.409  -0.010  0.00  0.00    +0.094 A 
ATOM      2  C   UNL     1       1.169   2.085  -0.019  0.00  0.00    +0.064 A 
ATOM      3  N   UNL     1       2.319   1.415  -0.030  0.00  0.00    -0.219 NA
ATOM      4  C   UNL     1       2.345   0.097  -0.033  0.00  0.00    +0.199 A 
ATOM      5  N   UNL     1       1.195  -0.629  -0.024  0.00  0.00    -0.295 N 
ATOM      6  H   UNL     1       1.232  -1.599  -0.026  0.00  0.00    +0.172 HD
ATOM      7  C   UNL     1       0.003   0.003  -0.012  0.00  0.00    +0.253 A 
ATOM      8  O   UNL     1      -1.038  -0.633  -0.003  0.00  0.00    -0.268 OA
ATOM      9  N   UNL     1       3.551  -0.552  -0.044  0.00  0.00    -0.298 N 
ATOM     10  C   UNL     1       3.613  -2.016   0.060  0.00  0.00    +0.127 C 
ATOM     11  C   UNL     1       4.402  -2.560  -1.137  0.00  0.00    +0.128 C 
ATOM     12  N   UNL     1       5.657  -1.804  -1.255  0.00  0.00    -0.283 N 
ATOM     13  C   UNL     1       5.595  -0.340  -1.360  0.00  0.00    +0.128 C 
ATOM     14  C   UNL     1       4.806   0.203  -0.168  0.00  0.00    +0.127 C 
ATOM     15  C   UNL     1       6.844  -2.443  -1.267  0.00  0.00    +0.303 C 
ATOM     16  O   UNL     1       6.880  -3.659  -1.276  0.00  0.00    -0.253 OA
ATOM     17  N   UNL     1       7.990  -1.735  -1.269  0.00  0.00    -0.296 N 
ATOM     18  H   UNL     1       7.963  -0.769  -1.187  0.00  0.00    +0.151 HD
ENDROOT
BRANCH  17  19
ATOM     19  C   UNL     1       9.277  -2.424  -1.395  0.00  0.00    +0.074 C 
ATOM     20  C   UNL     1       9.741  -2.894  -0.016  0.00  0.00    +0.022 C 
ATOM     21  C   UNL     1      11.085  -3.614  -0.148  0.00  0.00    +0.002 C 
ATOM     22  C   UNL     1      12.122  -2.655  -0.736  0.00  0.00    +0.000 C 
ATOM     23  C   UNL     1      11.657  -2.184  -2.115  0.00  0.00    +0.002 C 
ATOM     24  C   UNL     1      10.314  -1.465  -1.983  0.00  0.00    +0.022 C 
ENDBRANCH  17  19
BRANCH   2  25
ATOM     25  C   UNL     1       1.176   3.592  -0.018  0.00  0.00    +0.140 C 
BRANCH  25  26
ATOM     26  N   UNL     1       1.775   4.077   1.233  0.00  0.00    -0.300 NA
ATOM     27  C   UNL     1       0.932   3.736   2.388  0.00  0.00    +0.066 C 
ATOM     28  C   UNL     1       1.618   4.205   3.673  0.00  0.00    -0.063 C 
ATOM     29  N   UNL     1       1.831   5.657   3.612  0.00  0.00    +0.383 N 
ATOM     30  C   UNL     1       2.694   5.981   2.469  0.00  0.00    -0.063 C 
ATOM     31  C   UNL     1       2.017   5.526   1.174  0.00  0.00    +0.066 C 
ATOM     32  H   UNL     1       0.942   6.123   3.505  0.00  0.00    -0.081 HD
BRANCH  29  33
ATOM     33  C   UNL     1       2.473   6.110   4.853  0.00  0.00    -0.068 C 
ATOM     34  C   UNL     1       1.573   5.775   6.045  0.00  0.00    -0.015 C 
ATOM     35  C   UNL     1       2.241   6.247   7.337  0.00  0.00    -0.002 C 
ATOM     36  C   UNL     1       2.463   7.759   7.275  0.00  0.00    -0.000 C 
ATOM     37  C   UNL     1       3.363   8.094   6.084  0.00  0.00    -0.002 C 
ATOM     38  C   UNL     1       2.694   7.623   4.791  0.00  0.00    -0.015 C 
ENDBRANCH  29  33
ENDBRANCH  25  26
ENDBRANCH   2  25
TORSDOF 4
