REMARK  Name = ZINC13498513
REMARK  10 active torsions:
REMARK  status: ('A' for Active; 'I' for Inactive)
REMARK    1  A    between atoms: C_1  and  C_2
REMARK    2  A    between atoms: C_7  and  C_14
REMARK    3  A    between atoms: C_14  and  N_72
REMARK    4  A    between atoms: C_15  and  N_72
REMARK    5  A    between atoms: C_21  and  C_23
REMARK    6  A    between atoms: C_21  and  C_33
REMARK    7  A    between atoms: C_21  and  N_72
REMARK    8  A    between atoms: N_27  and  C_28
REMARK    9  A    between atoms: C_33  and  C_34
REMARK   10  A    between atoms: C_33  and  C_35
REMARK                            x       y       z     vdW  Elec       q    Type
REMARK                         _______ _______ _______ _____ _____    ______ ____
ROOT
ATOM      1  N   UNL     1       0.825  -2.135   0.960  0.00  0.00    +0.391 N 
ATOM      2  H   UNL     1       1.426  -2.788   0.444  0.00  0.00    -0.080 HD
ENDROOT
BRANCH   1   3
ATOM      3  C   UNL     1       1.027  -0.772   0.425  0.00  0.00    -0.067 C 
ATOM      4  C   UNL     1      -0.013  -0.488  -0.660  0.00  0.00    -0.015 C 
ATOM      5  C   UNL     1       0.215   0.912  -1.232  0.00  0.00    -0.002 C 
ATOM      6  C   UNL     1       1.618   0.993  -1.837  0.00  0.00    -0.000 C 
ATOM      7  C   UNL     1       2.659   0.710  -0.752  0.00  0.00    -0.002 C 
ATOM      8  C   UNL     1       2.430  -0.691  -0.180  0.00  0.00    -0.015 C 
ENDBRANCH   1   3
BRANCH   1   9
ATOM      9  C   UNL     1      -0.586  -2.541   0.786  0.00  0.00    -0.036 C 
BRANCH   9  16
ATOM     10  C   UNL     1      -1.411 -10.220   2.782  0.00  0.00    +0.044 C 
ATOM     11  C   UNL     1      -1.323  -8.724   2.624  0.00  0.00    -0.048 A 
ATOM     12  C   UNL     1      -1.636  -7.900   3.696  0.00  0.00    +0.004 A 
ATOM     13  C   UNL     1      -1.562  -6.541   3.574  0.00  0.00    +0.010 A 
ATOM     14  C   UNL     1      -1.168  -5.975   2.357  0.00  0.00    -0.001 A 
ATOM     15  C   UNL     1      -1.072  -4.523   2.194  0.00  0.00    +0.017 A 
ATOM     16  C   UNL     1      -0.689  -4.031   0.990  0.00  0.00    +0.001 A 
ATOM     17  C   UNL     1      -0.381  -4.909  -0.071  0.00  0.00    +0.251 A 
ATOM     18  O   UNL     1      -0.033  -4.446  -1.144  0.00  0.00    -0.268 OA
ATOM     19  N   UNL     1      -0.461  -6.244   0.071  0.00  0.00    -0.322 N 
ATOM     20  H   UNL     1      -0.242  -6.818  -0.679  0.00  0.00    +0.169 HD
ATOM     21  C   UNL     1      -0.850  -6.807   1.268  0.00  0.00    +0.049 A 
ATOM     22  C   UNL     1      -0.932  -8.188   1.416  0.00  0.00    +0.029 A 
ENDBRANCH   9  16
ENDBRANCH   1   9
BRANCH   1  23
ATOM     23  C   UNL     1       1.189  -2.175   2.392  0.00  0.00    +0.006 C 
BRANCH  23  24
ATOM     24  C   UNL     1       0.317  -1.237   3.186  0.00  0.00    +0.139 A 
ATOM     25  N   UNL     1      -0.148  -0.077   2.790  0.00  0.00    -0.115 NA
ATOM     26  N   UNL     1      -0.852   0.417   3.749  0.00  0.00    -0.023 NA
ATOM     27  N   UNL     1      -0.843  -0.394   4.749  0.00  0.00    -0.044 NA
ATOM     28  N   UNL     1      -0.133  -1.426   4.440  0.00  0.00    -0.228 N 
BRANCH  28  29
ATOM     29  C   UNL     1       0.135  -2.585   5.295  0.00  0.00    +0.111 C 
ATOM     30  C   UNL     1      -1.193  -3.245   5.722  0.00  0.00    +0.027 C 
ATOM     31  C   UNL     1      -0.940  -3.695   7.183  0.00  0.00    +0.002 C 
ATOM     32  C   UNL     1      -0.086  -2.538   7.755  0.00  0.00    +0.002 C 
ATOM     33  C   UNL     1       0.839  -2.136   6.587  0.00  0.00    +0.027 C 
ENDBRANCH  28  29
ENDBRANCH  23  24
BRANCH  23  34
ATOM     34  C   UNL     1       2.654  -1.760   2.543  0.00  0.00    -0.024 C 
ATOM     35  C   UNL     1       3.035  -1.765   4.025  0.00  0.00    +0.006 C 
ATOM     36  C   UNL     1       3.545  -2.746   1.784  0.00  0.00    +0.006 C 
ENDBRANCH  23  34
ENDBRANCH   1  23
TORSDOF 7
