REMARK  Name = ZINC08452688
REMARK  8 active torsions:
REMARK  status: ('A' for Active; 'I' for Inactive)
REMARK    1  A    between atoms: C_1  and  C_2
REMARK    2  A    between atoms: N_7  and  C_8
REMARK    3  A    between atoms: C_8  and  C_10
REMARK    4  A    between atoms: C_8  and  C_24
REMARK    5  A    between atoms: C_14  and  O_16
REMARK    6  A    between atoms: O_16  and  C_17
REMARK    7  A    between atoms: C_17  and  C_18
REMARK    8  A    between atoms: C_33  and  O_34
REMARK                            x       y       z     vdW  Elec       q    Type
REMARK                         _______ _______ _______ _____ _____    ______ ____
ROOT
ATOM      1  C   UNL     1       7.420  -2.759  -4.466  0.00  0.00    +0.136 C 
ENDROOT
BRANCH   1   8
ATOM      2  C   UNL     1       8.660  -1.518  -9.285  0.00  0.00    +0.044 C 
ATOM      3  C   UNL     1       9.403  -1.590  -7.976  0.00  0.00    -0.046 A 
ATOM      4  C   UNL     1      10.742  -1.230  -7.900  0.00  0.00    +0.021 A 
ATOM      5  C   UNL     1      11.395  -1.306  -6.686  0.00  0.00    +0.084 A 
ATOM      6  C   UNL     1       9.487  -2.069  -5.634  0.00  0.00    +0.097 A 
ATOM      7  C   UNL     1       8.768  -2.016  -6.824  0.00  0.00    +0.045 A 
ATOM      8  N   UNL     1       8.861  -2.495  -4.469  0.00  0.00    -0.320 N 
ATOM      9  H   UNL     1       9.378  -2.618  -3.657  0.00  0.00    +0.148 HD
ATOM     10  N   UNL     1      10.800  -1.714  -5.532  0.00  0.00    -0.350 N 
ATOM     11  H   UNL     1      11.309  -1.753  -4.641  0.00  0.00    +0.166 HD
ENDBRANCH   1   8
BRANCH   1  12
ATOM     12  C   UNL     1       7.168  -4.178  -4.907  0.00  0.00    +0.021 A 
ATOM     13  C   UNL     1       8.158  -5.139  -4.720  0.00  0.00    +0.010 A 
ATOM     14  C   UNL     1       7.960  -6.431  -5.102  0.00  0.00    +0.010 A 
ATOM     15  C   UNL     1       6.746  -6.801  -5.704  0.00  0.00    +0.004 A 
ATOM     16  C   UNL     1       6.506  -8.125  -6.117  0.00  0.00    +0.011 A 
ATOM     17  C   UNL     1       5.303  -8.413  -6.695  0.00  0.00    +0.020 A 
ATOM     18  C   UNL     1       4.353  -7.406  -6.860  0.00  0.00    +0.111 A 
ATOM     19  N   UNL     1       4.580  -6.175  -6.473  0.00  0.00    -0.251 NA
ATOM     20  C   UNL     1       5.736  -5.827  -5.902  0.00  0.00    +0.113 A 
ATOM     21  C   UNL     1       5.975  -4.500  -5.488  0.00  0.00    +0.148 A 
BRANCH  21  22
ATOM     22  O   UNL     1       5.023  -3.547  -5.667  0.00  0.00    -0.504 OA
ATOM     23  H   UNL     1       5.085  -3.084  -6.514  0.00  0.00    +0.292 HD
ENDBRANCH  21  22
ENDBRANCH   1  12
BRANCH   1  24
ATOM     24  C   UNL     1       6.875  -2.561  -3.075  0.00  0.00    -0.019 A 
ATOM     25  C   UNL     1       7.535  -3.109  -1.990  0.00  0.00    +0.006 A 
ATOM     26  C   UNL     1       7.038  -2.929  -0.713  0.00  0.00    +0.004 A 
ATOM     27  C   UNL     1       5.884  -2.196  -0.516  0.00  0.00    +0.045 A 
ATOM     28  C   UNL     1       5.217  -1.649  -1.603  0.00  0.00    +0.121 A 
ATOM     29  C   UNL     1       5.718  -1.832  -2.884  0.00  0.00    +0.051 A 
BRANCH  28  30
ATOM     30  O   UNL     1       4.078  -0.933  -1.413  0.00  0.00    -0.487 OA
BRANCH  30  31
ATOM     31  C   UNL     1       3.621  -0.786  -0.067  0.00  0.00    +0.264 C 
BRANCH  31  32
ATOM     32  C   UNL     1       2.355   0.032  -0.053  0.00  0.00    -0.010 A 
ATOM     33  C   UNL     1       1.127  -0.593  -0.157  0.00  0.00    +0.007 A 
ATOM     34  C   UNL     1      -0.034   0.158  -0.144  0.00  0.00    +0.000 A 
ATOM     35  C   UNL     1       0.034   1.533  -0.027  0.00  0.00    +0.000 A 
ATOM     36  C   UNL     1       1.262   2.158   0.078  0.00  0.00    +0.000 A 
ATOM     37  C   UNL     1       2.423   1.408   0.065  0.00  0.00    +0.007 A 
ENDBRANCH  31  32
ENDBRANCH  30  31
ENDBRANCH  28  30
ENDBRANCH   1  24
TORSDOF 7
