REMARK  Name = ZINC11121132
REMARK  5 active torsions:
REMARK  status: ('A' for Active; 'I' for Inactive)
REMARK    1  A    between atoms: C_1  and  N_2
REMARK    2  A    between atoms: N_2  and  C_3
REMARK    3  A    between atoms: C_3  and  C_4
REMARK    4  A    between atoms: C_10  and  C_12
REMARK    5  A    between atoms: C_12  and  N_13
REMARK                            x       y       z     vdW  Elec       q    Type
REMARK                         _______ _______ _______ _____ _____    ______ ____
ROOT
ATOM      1  N   UNL     1       0.048  -0.896   3.583  0.00  0.00    -0.194 N 
ATOM      2  C   UNL     1       1.255  -1.431   4.049  0.00  0.00    +0.060 A 
ATOM      3  C   UNL     1       2.293  -1.605   3.140  0.00  0.00    +0.026 A 
ATOM      4  C   UNL     1       3.499  -2.132   3.554  0.00  0.00    +0.017 A 
ATOM      5  C   UNL     1       3.682  -2.491   4.880  0.00  0.00    +0.019 A 
ATOM      6  C   UNL     1       2.662  -2.321   5.791  0.00  0.00    +0.025 A 
ATOM      7  C   UNL     1       1.434  -1.787   5.387  0.00  0.00    +0.008 A 
ATOM      8  C   UNL     1       0.375  -1.620   6.411  0.00  0.00    +0.011 A 
ATOM      9  C   UNL     1       0.710  -1.654   7.766  0.00  0.00    +0.010 A 
ATOM     10  C   UNL     1      -0.274  -1.499   8.721  0.00  0.00    +0.001 A 
ATOM     11  C   UNL     1      -1.592  -1.311   8.346  0.00  0.00    +0.002 A 
ATOM     12  C   UNL     1      -1.933  -1.275   7.004  0.00  0.00    +0.029 A 
ATOM     13  C   UNL     1      -0.957  -1.427   6.047  0.00  0.00    +0.116 A 
ATOM     14  S   UNL     1      -1.359  -1.377   4.332  0.00  0.00    +0.076 S 
ATOM     15  O   UNL     1      -2.303  -0.329   4.157  0.00  0.00    -0.150 OA
ATOM     16  O   UNL     1      -1.609  -2.716   3.926  0.00  0.00    -0.150 OA
ATOM     17 BR   UNL     1       5.336  -3.214   5.441  0.00  0.00    -0.050 Br
ENDROOT
BRANCH   1  18
ATOM     18  C   UNL     1       0.025   0.062   2.475  0.00  0.00    +0.227 C 
BRANCH  18  21
ATOM     19  C   UNL     1      -0.018   1.461   0.010  0.00  0.00    +0.132 C 
ATOM     20  N   UNL     1       0.002  -0.004   0.002  0.00  0.00    -0.299 N 
ATOM     21  C   UNL     1       0.022  -0.684   1.165  0.00  0.00    +0.235 C 
ATOM     22  O   UNL     1       0.039  -1.897   1.159  0.00  0.00    -0.274 OA
BRANCH  20  23
ATOM     23  C   UNL     1      -0.000  -0.730  -1.271  0.00  0.00    +0.142 C 
BRANCH  23  24
ATOM     24  C   UNL     1       1.420  -0.959  -1.720  0.00  0.00    -0.030 A 
ATOM     25  C   UNL     1       2.049  -0.027  -2.524  0.00  0.00    +0.005 A 
ATOM     26  C   UNL     1       3.353  -0.235  -2.933  0.00  0.00    +0.000 A 
ATOM     27  C   UNL     1       4.024  -1.380  -2.546  0.00  0.00    +0.000 A 
ATOM     28  C   UNL     1       3.393  -2.315  -1.747  0.00  0.00    +0.000 A 
ATOM     29  C   UNL     1       2.091  -2.104  -1.334  0.00  0.00    +0.005 A 
ENDBRANCH  23  24
ENDBRANCH  20  23
ENDBRANCH  18  21
ENDBRANCH   1  18
TORSDOF 4
