REMARK  Name = ZINC01783701
REMARK  9 active torsions:
REMARK  status: ('A' for Active; 'I' for Inactive)
REMARK    1  A    between atoms: C_1  and  C_2
REMARK    2  A    between atoms: C_5  and  C_8
REMARK    3  A    between atoms: C_8  and  O_9
REMARK    4  A    between atoms: O_9  and  C_10
REMARK    5  A    between atoms: C_13  and  C_16
REMARK    6  A    between atoms: N_17  and  N_18
REMARK    7  A    between atoms: C_19  and  C_21
REMARK    8  A    between atoms: C_21  and  C_23
REMARK    9  A    between atoms: C_21  and  N_24
REMARK                            x       y       z     vdW  Elec       q    Type
REMARK                         _______ _______ _______ _____ _____    ______ ____
ROOT
ATOM      1  N   UNL     1      -1.156  -0.694   0.009  0.00  0.00    -0.205 N 
ATOM      2  C   UNL     1       0.002  -0.004   0.002  0.00  0.00    +0.255 C 
ATOM      3  O   UNL     1       1.061  -0.596  -0.011  0.00  0.00    -0.272 OA
ATOM      4  H   UNL     1      -2.002  -0.220   0.020  0.00  0.00    +0.177 HD
ENDROOT
BRANCH   1   6
ATOM      5  C   UNL     1      -2.252  -2.759   0.009  0.00  0.00    +0.138 C 
ATOM      6  N   UNL     1      -1.137  -2.095   0.002  0.00  0.00    -0.188 NA
BRANCH   5  10
ATOM      7  C   UNL     1      -2.194  -7.004  -0.016  0.00  0.00    +0.121 A 
ATOM      8  C   UNL     1      -3.408  -6.328   0.000  0.00  0.00    +0.046 A 
ATOM      9  C   UNL     1      -3.431  -4.950   0.008  0.00  0.00    +0.013 A 
ATOM     10  C   UNL     1      -2.232  -4.233   0.001  0.00  0.00    -0.005 A 
ATOM     11  C   UNL     1      -1.014  -4.917  -0.021  0.00  0.00    +0.013 A 
ATOM     12  C   UNL     1      -1.000  -6.295  -0.024  0.00  0.00    +0.046 A 
BRANCH   7  13
ATOM     13  O   UNL     1      -2.176  -8.362  -0.024  0.00  0.00    -0.487 OA
BRANCH  13  14
ATOM     14  C   UNL     1      -0.894  -8.993  -0.040  0.00  0.00    +0.264 C 
BRANCH  14  19
ATOM     15  C   UNL     1      -1.573 -14.732  -0.066  0.00  0.00    +0.044 C 
ATOM     16  C   UNL     1      -1.395 -13.236  -0.059  0.00  0.00    -0.050 A 
ATOM     17  C   UNL     1      -1.327 -12.542  -1.253  0.00  0.00    +0.004 A 
ATOM     18  C   UNL     1      -1.164 -11.169  -1.247  0.00  0.00    +0.007 A 
ATOM     19  C   UNL     1      -1.071 -10.490  -0.046  0.00  0.00    -0.010 A 
ATOM     20  C   UNL     1      -1.135 -11.184   1.147  0.00  0.00    +0.007 A 
ATOM     21  C   UNL     1      -1.302 -12.556   1.141  0.00  0.00    +0.004 A 
ENDBRANCH  14  19
ENDBRANCH  13  14
ENDBRANCH   7  13
ENDBRANCH   5  10
ENDBRANCH   1   6
BRANCH   2  22
ATOM     22  C   UNL     1      -0.018   1.503   0.010  0.00  0.00    +0.176 C 
ATOM     23  C   UNL     1      -0.758   2.010  -1.229  0.00  0.00    +0.041 C 
BRANCH  22  24
ATOM     24  N   UNL     1       1.356   2.010  -0.000  0.00  0.00    -0.287 N 
ATOM     25  C   UNL     1       2.175   1.690  -1.035  0.00  0.00    +0.204 A 
ATOM     26  N   UNL     1       3.407   2.122  -1.081  0.00  0.00    -0.230 NA
ATOM     27  C   UNL     1       3.898   2.891  -0.113  0.00  0.00    +0.116 A 
ATOM     28  C   UNL     1       3.128   3.275   0.997  0.00  0.00    +0.076 A 
ATOM     29  C   UNL     1       1.779   2.788   1.014  0.00  0.00    +0.263 A 
ATOM     30  O   UNL     1       1.030   3.070   1.933  0.00  0.00    -0.267 OA
ATOM     31  C   UNL     1       3.800   4.122   1.981  0.00  0.00    -0.023 A 
ATOM     32  C   UNL     1       5.085   4.450   1.730  0.00  0.00    -0.004 A 
ATOM     33  S   UNL     1       5.469   3.660   0.190  0.00  0.00    -0.073 S 
ATOM     34  C   UNL     1       5.986   5.298   2.574  0.00  0.00    +0.043 C 
ATOM     35  C   UNL     1       5.124   6.056   3.594  0.00  0.00    +0.005 C 
ATOM     36  C   UNL     1       4.158   5.065   4.251  0.00  0.00    +0.005 C 
ATOM     37  C   UNL     1       3.099   4.622   3.241  0.00  0.00    +0.037 C 
ENDBRANCH  22  24
ENDBRANCH   2  22
TORSDOF 7
