REMARK  Name = ZINC12558438
REMARK  8 active torsions:
REMARK  status: ('A' for Active; 'I' for Inactive)
REMARK    1  A    between atoms: C_1  and  C_2
REMARK    2  A    between atoms: C_7  and  C_10
REMARK    3  A    between atoms: C_11  and  C_13
REMARK    4  A    between atoms: C_13  and  N_32
REMARK    5  A    between atoms: C_14  and  C_15
REMARK    6  A    between atoms: N_17  and  C_26
REMARK    7  A    between atoms: C_19  and  C_20
REMARK    8  A    between atoms: C_33  and  C_35
REMARK                            x       y       z     vdW  Elec       q    Type
REMARK                         _______ _______ _______ _____ _____    ______ ____
ROOT
ATOM      1  C   UNL     1       4.822   6.226  -0.179  0.00  0.00    +0.097 C 
ATOM      2  C   UNL     1       5.589   5.139   0.078  0.00  0.00    +0.040 C 
ENDROOT
BRANCH   1  11
ATOM      3  C   UNL     1       1.128   8.437   1.900  0.00  0.00    +0.039 C 
ATOM      4  C   UNL     1       1.034   7.068   2.577  0.00  0.00    +0.133 C 
ATOM      5  C   UNL     1       1.465   5.978   1.588  0.00  0.00    +0.139 C 
ATOM      6  N   UNL     1       2.904   6.134   1.323  0.00  0.00    -0.292 N 
ATOM      7  C   UNL     1       3.812   6.237   2.476  0.00  0.00    +0.139 C 
ATOM      8  C   UNL     1       3.267   7.319   3.421  0.00  0.00    +0.133 C 
ATOM      9  O   UNL     1       1.897   7.037   3.716  0.00  0.00    -0.371 OA
ATOM     10  C   UNL     1       4.079   7.322   4.717  0.00  0.00    +0.039 C 
ATOM     11  C   UNL     1       3.376   6.176   0.061  0.00  0.00    +0.261 C 
ATOM     12  O   UNL     1       2.602   6.173  -0.878  0.00  0.00    -0.269 OA
ENDBRANCH   1  11
BRANCH   2  13
ATOM     13  C   UNL     1       4.958   3.868   0.455  0.00  0.00    +0.023 A 
ATOM     14  C   UNL     1       3.633   3.518   0.282  0.00  0.00    +0.123 A 
ATOM     15  N   UNL     1       3.470   2.271   0.765  0.00  0.00    -0.239 N 
ATOM     16  N   UNL     1       4.690   1.792   1.250  0.00  0.00    -0.166 NA
ATOM     17  C   UNL     1       5.612   2.714   1.085  0.00  0.00    +0.102 A 
BRANCH  17  18
ATOM     18  C   UNL     1       7.041   2.610   1.463  0.00  0.00    +0.021 A 
ATOM     19  C   UNL     1       7.423   1.905   2.609  0.00  0.00    +0.013 A 
ATOM     20  C   UNL     1       8.770   1.837   2.919  0.00  0.00    +0.020 A 
ATOM     21  C   UNL     1       9.687   2.463   2.094  0.00  0.00    +0.111 A 
ATOM     22  N   UNL     1       9.297   3.122   1.019  0.00  0.00    -0.263 NA
ATOM     23  C   UNL     1       8.027   3.209   0.680  0.00  0.00    +0.120 A 
ENDBRANCH  17  18
BRANCH  15  24
ATOM     24  C   UNL     1       2.263   1.560   0.776  0.00  0.00    +0.065 A 
ATOM     25  C   UNL     1       1.088   2.179   0.368  0.00  0.00    +0.028 A 
ATOM     26  C   UNL     1      -0.101   1.476   0.379  0.00  0.00    +0.002 A 
ATOM     27  C   UNL     1      -0.122   0.157   0.795  0.00  0.00    +0.000 A 
ATOM     28  C   UNL     1       1.046  -0.461   1.203  0.00  0.00    +0.002 A 
ATOM     29  C   UNL     1       2.238   0.236   1.194  0.00  0.00    +0.028 A 
ENDBRANCH  15  24
ENDBRANCH   2  13
BRANCH   1  30
ATOM     30  N   UNL     1       5.410   7.397  -0.675  0.00  0.00    -0.277 N 
ATOM     31  C   UNL     1       4.653   8.491  -0.891  0.00  0.00    +0.248 C 
ATOM     32  O   UNL     1       3.481   8.494  -0.567  0.00  0.00    -0.270 OA
ATOM     33  H   UNL     1       6.361   7.420  -0.862  0.00  0.00    +0.155 HD
BRANCH  31  34
ATOM     34  C   UNL     1       5.248   9.688  -1.522  0.00  0.00    +0.037 A 
ATOM     35  C   UNL     1       6.595   9.690  -1.891  0.00  0.00    +0.013 A 
ATOM     36  C   UNL     1       7.143  10.809  -2.484  0.00  0.00    +0.001 A 
ATOM     37  C   UNL     1       6.364  11.931  -2.704  0.00  0.00    +0.000 A 
ATOM     38  C   UNL     1       5.029  11.937  -2.337  0.00  0.00    +0.001 A 
ATOM     39  C   UNL     1       4.468  10.823  -1.748  0.00  0.00    +0.013 A 
ENDBRANCH  31  34
ENDBRANCH   1  30
TORSDOF 6
