REMARK  Name = ZINC35034097
REMARK  12 active torsions:
REMARK  status: ('A' for Active; 'I' for Inactive)
REMARK    1  A    between atoms: C_1  and  C_2
REMARK    2  A    between atoms: C_2  and  C_3
REMARK    3  A    between atoms: C_3  and  C_5
REMARK    4  A    between atoms: C_3  and  N_17
REMARK    5  A    between atoms: N_15  and  C_16
REMARK    6  A    between atoms: N_17  and  C_18
REMARK    7  A    between atoms: C_18  and  C_19
REMARK    8  A    between atoms: C_19  and  N_20
REMARK    9  A    between atoms: N_20  and  C_21
REMARK   10  A    between atoms: N_20  and  C_22
REMARK   11  A    between atoms: N_25  and  C_26
REMARK   12  A    between atoms: C_29  and  C_32
REMARK                            x       y       z     vdW  Elec       q    Type
REMARK                         _______ _______ _______ _____ _____    ______ ____
ROOT
ATOM      1  N   UNL     1       1.658   0.070   1.004  0.00  0.00    -0.277 N 
ATOM      2  C   UNL     1       2.081   0.983   1.901  0.00  0.00    +0.307 C 
ATOM      3  O   UNL     1       1.334   1.361   2.782  0.00  0.00    -0.252 OA
ATOM      4  N   UNL     1       3.333   1.476   1.821  0.00  0.00    -0.269 N 
ATOM      5  H   UNL     1       3.955   1.116   1.170  0.00  0.00    +0.156 HD
ENDROOT
BRANCH   4   6
ATOM      6  C   UNL     1       3.735   2.508   2.677  0.00  0.00    +0.035 A 
ATOM      7  C   UNL     1       4.598   3.495   2.220  0.00  0.00    +0.024 A 
ATOM      8  C   UNL     1       4.992   4.512   3.067  0.00  0.00    +0.014 A 
ATOM      9  C   UNL     1       4.528   4.548   4.369  0.00  0.00    +0.055 A 
ATOM     10  C   UNL     1       3.668   3.567   4.827  0.00  0.00    +0.014 A 
ATOM     11  C   UNL     1       3.266   2.550   3.983  0.00  0.00    +0.024 A 
BRANCH   9  12
ATOM     12  C   UNL     1       4.960   5.660   5.290  0.00  0.00    +0.417 C 
ATOM     13  F   UNL     1       4.061   6.727   5.187  0.00  0.00    -0.166 F 
ATOM     14  F   UNL     1       4.978   5.192   6.609  0.00  0.00    -0.166 F 
ATOM     15  F   UNL     1       6.240   6.092   4.931  0.00  0.00    -0.166 F 
ENDBRANCH   9  12
ENDBRANCH   4   6
BRANCH   1  16
ATOM     16  C   UNL     1       0.297  -0.466   1.091  0.00  0.00    +0.143 C 
BRANCH  16  17
ATOM     17  C   UNL     1       0.358  -1.960   1.281  0.00  0.00    +0.133 A 
ATOM     18  N   UNL     1       0.825  -2.686   0.311  0.00  0.00    -0.232 NA
ATOM     19  C   UNL     1       0.909  -4.036   0.409  0.00  0.00    +0.078 A 
ATOM     20  C   UNL     1       1.411  -4.817  -0.633  0.00  0.00    +0.028 A 
ATOM     21  C   UNL     1       1.479  -6.184  -0.489  0.00  0.00    +0.002 A 
ATOM     22  C   UNL     1       1.053  -6.799   0.681  0.00  0.00    +0.001 A 
ATOM     23  C   UNL     1       0.554  -6.050   1.724  0.00  0.00    +0.015 A 
ATOM     24  C   UNL     1       0.477  -4.664   1.599  0.00  0.00    +0.065 A 
ATOM     25  C   UNL     1      -0.047  -3.813   2.678  0.00  0.00    +0.262 A 
ATOM     26  O   UNL     1      -0.435  -4.291   3.728  0.00  0.00    -0.267 OA
ATOM     27  N   UNL     1      -0.075  -2.478   2.460  0.00  0.00    -0.298 N 
ATOM     28  C   UNL     1      -0.581  -1.583   3.504  0.00  0.00    +0.154 C 
ENDBRANCH  16  17
BRANCH  16  30
ATOM     29  C   UNL     1      -0.621   1.370  -0.333  0.00  0.00    +0.006 C 
ATOM     30  C   UNL     1      -0.461  -0.146  -0.199  0.00  0.00    +0.027 C 
ENDBRANCH  16  30
ENDBRANCH   1  16
BRANCH   1  31
ATOM     31  C   UNL     1       2.558  -0.385  -0.058  0.00  0.00    +0.091 C 
BRANCH  31  32
ATOM     32  C   UNL     1       2.399   0.516  -1.284  0.00  0.00    -0.060 C 
BRANCH  32  33
ATOM     33  N   UNL     1       3.302   0.059  -2.349  0.00  0.00    +0.377 N 
ATOM     34  C   UNL     1       2.894  -1.279  -2.796  0.00  0.00    -0.097 C 
ATOM     35  C   UNL     1       3.237   0.994  -3.480  0.00  0.00    -0.097 C 
ATOM     36  H   UNL     1       4.247   0.023  -1.996  0.00  0.00    -0.083 HD
ENDBRANCH  32  33
ENDBRANCH  31  32
ENDBRANCH   1  31
TORSDOF 8
