REMARK  Name = ZINC03241730
REMARK  7 active torsions:
REMARK  status: ('A' for Active; 'I' for Inactive)
REMARK    1  A    between atoms: C_1  and  C_2
REMARK    2  A    between atoms: C_5  and  N_9
REMARK    3  A    between atoms: C_6  and  C_8
REMARK    4  A    between atoms: C_19  and  S_20
REMARK    5  A    between atoms: S_20  and  C_21
REMARK    6  A    between atoms: C_21  and  C_22
REMARK    7  A    between atoms: N_24  and  C_25
REMARK                            x       y       z     vdW  Elec       q    Type
REMARK                         _______ _______ _______ _____ _____    ______ ____
ROOT
ATOM      1  N   UNL     1      -0.734   0.015  -3.164  0.00  0.00    -0.255 N 
ATOM      2  C   UNL     1       0.461   0.607  -2.938  0.00  0.00    +0.267 A 
ATOM      3  O   UNL     1       1.317   0.653  -3.803  0.00  0.00    -0.267 OA
ATOM      4  C   UNL     1       0.689   1.193  -1.610  0.00  0.00    +0.065 A 
ATOM      5  C   UNL     1       1.887   1.825  -1.279  0.00  0.00    +0.015 A 
ATOM      6  C   UNL     1       2.047   2.353  -0.028  0.00  0.00    +0.001 A 
ATOM      7  C   UNL     1       1.030   2.267   0.914  0.00  0.00    +0.002 A 
ATOM      8  C   UNL     1      -0.155   1.654   0.616  0.00  0.00    +0.028 A 
ATOM      9  C   UNL     1      -0.349   1.104  -0.654  0.00  0.00    +0.079 A 
ATOM     10  N   UNL     1      -1.505   0.487  -0.991  0.00  0.00    -0.223 NA
ATOM     11  C   UNL     1      -1.685  -0.028  -2.182  0.00  0.00    +0.177 A 
ENDROOT
BRANCH   1  16
ATOM     12  C   UNL     1      -1.810  -2.311  -8.227  0.00  0.00    +0.044 C 
ATOM     13  C   UNL     1      -1.524  -1.693  -6.883  0.00  0.00    -0.050 A 
ATOM     14  C   UNL     1      -0.949  -2.455  -5.882  0.00  0.00    +0.005 A 
ATOM     15  C   UNL     1      -0.685  -1.892  -4.649  0.00  0.00    +0.027 A 
ATOM     16  C   UNL     1      -0.999  -0.559  -4.414  0.00  0.00    +0.055 A 
ATOM     17  C   UNL     1      -1.582   0.201  -5.419  0.00  0.00    -0.026 A 
ATOM     18  C   UNL     1      -1.838  -0.367  -6.652  0.00  0.00    +0.008 A 
ATOM     19  C   UNL     1      -1.929   1.645  -5.167  0.00  0.00    +0.046 C 
ENDBRANCH   1  16
BRANCH  11  20
ATOM     20  S   UNL     1      -3.223  -0.813  -2.535  0.00  0.00    -0.078 S 
BRANCH  20  21
ATOM     21  C   UNL     1      -4.063  -0.586  -0.948  0.00  0.00    +0.173 C 
BRANCH  21  22
ATOM     22  C   UNL     1      -5.439  -1.197  -1.017  0.00  0.00    +0.228 C 
ATOM     23  O   UNL     1      -5.814  -1.733  -2.038  0.00  0.00    -0.275 OA
ATOM     24  N   UNL     1      -6.252  -1.148   0.057  0.00  0.00    -0.280 N 
ATOM     25  H   UNL     1      -5.926  -0.785   0.896  0.00  0.00    +0.155 HD
BRANCH  24  26
ATOM     26  C   UNL     1      -7.569  -1.621  -0.038  0.00  0.00    +0.111 A 
ATOM     27  C   UNL     1      -8.589  -0.763  -0.432  0.00  0.00    +0.185 A 
ATOM     28  C   UNL     1      -9.888  -1.233  -0.530  0.00  0.00    +0.198 A 
ATOM     29  C   UNL     1     -10.173  -2.555  -0.226  0.00  0.00    +0.199 A 
ATOM     30  C   UNL     1      -9.157  -3.411   0.171  0.00  0.00    +0.198 A 
ATOM     31  C   UNL     1      -7.856  -2.946   0.266  0.00  0.00    +0.185 A 
ATOM     32  F   UNL     1      -6.867  -3.780   0.654  0.00  0.00    -0.200 F 
ATOM     33  F   UNL     1      -9.437  -4.699   0.467  0.00  0.00    -0.199 F 
ATOM     34  F   UNL     1     -11.441  -3.011  -0.318  0.00  0.00    -0.199 F 
ATOM     35  F   UNL     1     -10.880  -0.401  -0.917  0.00  0.00    -0.199 F 
ATOM     36  F   UNL     1      -8.313   0.527  -0.723  0.00  0.00    -0.200 F 
ENDBRANCH  24  26
ENDBRANCH  21  22
ENDBRANCH  20  21
ENDBRANCH  11  20
TORSDOF 5
