REMARK  Name = ZINC21239594
REMARK  9 active torsions:
REMARK  status: ('A' for Active; 'I' for Inactive)
REMARK    1  A    between atoms: C_1  and  C_2
REMARK    2  A    between atoms: C_2  and  O_3
REMARK    3  A    between atoms: O_3  and  C_4
REMARK    4  A    between atoms: C_9  and  C_10
REMARK    5  A    between atoms: C_21  and  C_24
REMARK    6  A    between atoms: C_27  and  O_30
REMARK    7  A    between atoms: O_30  and  C_31
REMARK    8  A    between atoms: C_31  and  C_32
REMARK    9  A    between atoms: C_31  and  C_33
REMARK                            x       y       z     vdW  Elec       q    Type
REMARK                         _______ _______ _______ _____ _____    ______ ____
ROOT
ATOM      1  C   UNL     1      -0.767   1.577  -1.375  0.00  0.00    +0.066 C 
ATOM      2  C   UNL     1       0.009   0.847  -0.278  0.00  0.00    +0.109 C 
ATOM      3  C   UNL     1      -0.642   1.117   1.054  0.00  0.00    +0.218 C 
ATOM      4  O   UNL     1       0.038   1.198   2.054  0.00  0.00    -0.275 OA
ATOM      5  N   UNL     1      -1.977   1.270   1.132  0.00  0.00    -0.289 N 
ATOM      6  C   UNL     1      -2.772   1.158   0.019  0.00  0.00    +0.018 C 
ATOM      7  C   UNL     1      -2.244   1.300  -1.215  0.00  0.00    +0.020 C 
ATOM      8  C   UNL     1      -3.040   1.198  -2.367  0.00  0.00    +0.162 C 
ATOM      9  O   UNL     1      -2.527   1.319  -3.462  0.00  0.00    -0.292 OA
ATOM     10  C   UNL     1      -4.520   0.939  -2.267  0.00  0.00    +0.088 C 
ATOM     11  C   UNL     1      -5.035   1.508  -0.941  0.00  0.00    +0.032 C 
ATOM     12  C   UNL     1      -4.241   0.874   0.203  0.00  0.00    +0.059 C 
ATOM     13  H   UNL     1      -2.450   1.489   2.101  0.00  0.00    +0.155 HD
ENDROOT
BRANCH   1  19
ATOM     14  C   UNL     1       0.059   3.748  -2.319  0.00  0.00    +0.124 A 
ATOM     15  C   UNL     1       0.282   5.114  -2.215  0.00  0.00    +0.046 A 
ATOM     16  C   UNL     1      -0.063   5.782  -1.057  0.00  0.00    +0.004 A 
ATOM     17  C   UNL     1      -0.635   5.093  -0.003  0.00  0.00    +0.001 A 
ATOM     18  C   UNL     1      -0.863   3.733  -0.106  0.00  0.00    +0.008 A 
ATOM     19  C   UNL     1      -0.519   3.060  -1.263  0.00  0.00    +0.002 A 
BRANCH  14  20
ATOM     20  O   UNL     1       0.403   3.087  -3.456  0.00  0.00    -0.492 OA
BRANCH  20  22
ATOM     21  C   UNL     1       1.310   2.951  -5.692  0.00  0.00    +0.048 C 
ATOM     22  C   UNL     1       0.994   3.860  -4.502  0.00  0.00    +0.225 C 
ENDBRANCH  20  22
ENDBRANCH  14  20
ENDBRANCH   1  19
BRANCH  11  23
ATOM     23  C   UNL     1      -6.498   1.181  -0.784  0.00  0.00    -0.043 A 
ATOM     24  C   UNL     1      -6.912  -0.138  -0.769  0.00  0.00    +0.007 A 
ATOM     25  C   UNL     1      -8.252  -0.441  -0.620  0.00  0.00    +0.046 A 
ATOM     26  C   UNL     1      -9.183   0.580  -0.497  0.00  0.00    +0.121 A 
ATOM     27  C   UNL     1      -8.765   1.903  -0.518  0.00  0.00    +0.046 A 
ATOM     28  C   UNL     1      -7.424   2.200  -0.662  0.00  0.00    +0.007 A 
BRANCH  26  29
ATOM     29  O   UNL     1     -10.502   0.285  -0.357  0.00  0.00    -0.489 OA
BRANCH  29  30
ATOM     30  C   UNL     1     -11.416   1.384  -0.357  0.00  0.00    +0.167 C 
ATOM     31  C   UNL     1     -12.795   0.899  -0.810  0.00  0.00    +0.051 C 
ATOM     32  C   UNL     1     -11.517   1.963   1.055  0.00  0.00    +0.051 C 
ENDBRANCH  29  30
ENDBRANCH  26  29
ENDBRANCH  11  23
TORSDOF 6
