REMARK  Name = ZINC02626053
REMARK  9 active torsions:
REMARK  status: ('A' for Active; 'I' for Inactive)
REMARK    1  A    between atoms: C_1  and  C_2
REMARK    2  A    between atoms: C_6  and  N_8
REMARK    3  A    between atoms: C_21  and  S_22
REMARK    4  A    between atoms: S_22  and  C_23
REMARK    5  A    between atoms: C_23  and  C_24
REMARK    6  A    between atoms: N_26  and  C_27
REMARK    7  A    between atoms: N_26  and  C_28
REMARK    8  A    between atoms: C_28  and  C_29
REMARK    9  A    between atoms: C_28  and  C_35
REMARK                            x       y       z     vdW  Elec       q    Type
REMARK                         _______ _______ _______ _____ _____    ______ ____
ROOT
ATOM      1  N   UNL     1      -2.491  -2.936   3.847  0.00  0.00    -0.245 N 
ATOM      2  C   UNL     1      -2.146  -2.358   5.016  0.00  0.00    +0.268 A 
ATOM      3  O   UNL     1      -2.311  -1.165   5.187  0.00  0.00    -0.267 OA
ATOM      4  C   UNL     1      -1.568  -3.194   6.083  0.00  0.00    +0.064 A 
ATOM      5  C   UNL     1      -1.195  -2.647   7.310  0.00  0.00    +0.015 A 
ATOM      6  C   UNL     1      -0.658  -3.462   8.284  0.00  0.00    +0.001 A 
ATOM      7  C   UNL     1      -0.487  -4.817   8.049  0.00  0.00    +0.002 A 
ATOM      8  C   UNL     1      -0.852  -5.371   6.838  0.00  0.00    +0.027 A 
ATOM      9  C   UNL     1      -1.395  -4.567   5.846  0.00  0.00    +0.064 A 
ATOM     10  N   UNL     1      -1.772  -5.095   4.618  0.00  0.00    -0.255 N 
ATOM     11  C   UNL     1      -2.313  -4.296   3.645  0.00  0.00    +0.245 A 
ATOM     12  N   UNL     1      -2.571  -5.070   2.618  0.00  0.00    -0.109 NA
ATOM     13  N   UNL     1      -2.237  -6.282   2.882  0.00  0.00    -0.120 NA
ATOM     14  C   UNL     1      -1.734  -6.358   4.091  0.00  0.00    +0.198 A 
ENDROOT
BRANCH   1  20
ATOM     15  C   UNL     1      -1.856   0.125   0.052  0.00  0.00    +0.044 C 
ATOM     16  C   UNL     1      -2.756  -0.659   0.972  0.00  0.00    -0.048 A 
ATOM     17  C   UNL     1      -4.128  -0.604   0.807  0.00  0.00    +0.003 A 
ATOM     18  C   UNL     1      -4.958  -1.321   1.649  0.00  0.00    +0.002 A 
ATOM     19  C   UNL     1      -4.418  -2.096   2.658  0.00  0.00    +0.026 A 
ATOM     20  C   UNL     1      -3.041  -2.153   2.825  0.00  0.00    +0.053 A 
ATOM     21  C   UNL     1      -2.210  -1.435   1.974  0.00  0.00    +0.029 A 
ENDBRANCH   1  20
BRANCH  14  22
ATOM     22  S   UNL     1      -1.141  -7.811   4.891  0.00  0.00    -0.076 S 
BRANCH  22  23
ATOM     23  C   UNL     1      -1.371  -9.118   3.655  0.00  0.00    +0.173 C 
BRANCH  23  24
ATOM     24  C   UNL     1      -0.897 -10.433   4.219  0.00  0.00    +0.226 C 
ATOM     25  O   UNL     1      -0.448 -10.483   5.344  0.00  0.00    -0.275 OA
ATOM     26  N   UNL     1      -0.972 -11.553   3.473  0.00  0.00    -0.293 N 
ATOM     27  C   UNL     1      -1.514 -11.492   2.113  0.00  0.00    +0.133 C 
BRANCH  26  28
ATOM     28  C   UNL     1      -0.511 -12.830   4.021  0.00  0.00    +0.136 C 
BRANCH  28  29
ATOM     29  C   UNL     1      -0.744 -13.924   3.011  0.00  0.00    -0.023 A 
ATOM     30  C   UNL     1      -0.192 -13.826   1.747  0.00  0.00    +0.006 A 
ATOM     31  C   UNL     1      -0.405 -14.829   0.820  0.00  0.00    +0.000 A 
ATOM     32  C   UNL     1      -1.170 -15.930   1.157  0.00  0.00    +0.000 A 
ATOM     33  C   UNL     1      -1.721 -16.029   2.421  0.00  0.00    +0.000 A 
ATOM     34  C   UNL     1      -1.504 -15.027   3.349  0.00  0.00    +0.006 A 
ENDBRANCH  28  29
BRANCH  28  35
ATOM     35  C   UNL     1       0.961 -12.741   4.335  0.00  0.00    -0.023 A 
ATOM     36  C   UNL     1       1.809 -12.063   3.480  0.00  0.00    +0.006 A 
ATOM     37  C   UNL     1       3.159 -11.981   3.768  0.00  0.00    +0.000 A 
ATOM     38  C   UNL     1       3.660 -12.576   4.910  0.00  0.00    +0.000 A 
ATOM     39  C   UNL     1       2.811 -13.254   5.765  0.00  0.00    +0.000 A 
ATOM     40  C   UNL     1       1.461 -13.332   5.480  0.00  0.00    +0.006 A 
ENDBRANCH  28  35
ENDBRANCH  26  28
ENDBRANCH  23  24
ENDBRANCH  22  23
ENDBRANCH  14  22
TORSDOF 7
