REMARK  Name = ZINC09266825
REMARK  1 active torsions:
REMARK  status: ('A' for Active; 'I' for Inactive)
REMARK    1  A    between atoms: N_26  and  C_29
REMARK                            x       y       z     vdW  Elec       q    Type
REMARK                         _______ _______ _______ _____ _____    ______ ____
ROOT
ATOM      1  C   UNL     1      -0.016   1.358   0.009  0.00  0.00    +0.005 A 
ATOM      2  C   UNL     1       1.194   2.066   0.002  0.00  0.00    +0.018 A 
ATOM      3  C   UNL     1       2.370   1.401  -0.012  0.00  0.00    +0.096 A 
ATOM      4  N   UNL     1       2.401   0.039  -0.019  0.00  0.00    -0.269 N 
ATOM      5  C   UNL     1       1.237  -0.679  -0.015  0.00  0.00    +0.119 A 
ATOM      6  C   UNL     1       0.002  -0.004   0.002  0.00  0.00    +0.045 A 
ATOM      7  N   UNL     1       1.255  -2.010  -0.028  0.00  0.00    -0.329 N 
ATOM      8  C   UNL     1       2.403  -2.684  -0.048  0.00  0.00    +0.109 A 
ATOM      9  C   UNL     1       3.612  -1.993  -0.053  0.00  0.00    +0.057 A 
ATOM     10  C   UNL     1       3.590  -0.600  -0.032  0.00  0.00    +0.263 A 
ATOM     11  O   UNL     1       4.633   0.036  -0.027  0.00  0.00    -0.267 OA
ATOM     12  C   UNL     1       4.927  -2.721  -0.087  0.00  0.00    +0.071 C 
ATOM     13  C   UNL     1       4.772  -4.146   0.447  0.00  0.00    +0.146 C 
ATOM     14  C   UNL     1       3.605  -4.827  -0.288  0.00  0.00    +0.099 C 
ATOM     15  N   UNL     1       2.406  -4.057  -0.063  0.00  0.00    -0.312 N 
ATOM     16  C   UNL     1       1.126  -4.815   0.165  0.00  0.00    +0.107 C 
ATOM     17  C   UNL     1       0.914  -5.550  -1.097  0.00  0.00    +0.019 C 
ATOM     18  C   UNL     1       2.049  -6.461  -1.520  0.00  0.00    +0.002 C 
ATOM     19  C   UNL     1       2.758  -5.557  -2.480  0.00  0.00    +0.002 C 
ATOM     20  C   UNL     1       4.048  -4.983  -1.790  0.00  0.00    +0.024 C 
ATOM     21  C   UNL     1       6.033  -4.921   0.188  0.00  0.00    +0.238 C 
ATOM     22  O   UNL     1       6.427  -5.040  -0.952  0.00  0.00    -0.274 OA
ATOM     23  N   UNL     1       6.736  -5.483   1.182  0.00  0.00    -0.239 N 
ATOM     24  C   UNL     1       6.354  -5.384   2.464  0.00  0.00    +0.315 C 
ATOM     25  N   UNL     1       5.250  -4.710   2.821  0.00  0.00    -0.222 N 
ATOM     26  C   UNL     1       4.468  -4.103   1.917  0.00  0.00    +0.240 C 
ATOM     27  O   UNL     1       3.486  -3.502   2.298  0.00  0.00    -0.274 OA
ATOM     28  O   UNL     1       7.025  -5.918   3.324  0.00  0.00    -0.252 OA
ATOM     29  H   UNL     1       7.544  -5.975   0.968  0.00  0.00    +0.159 HD
ATOM     30  H   UNL     1       0.417  -2.497  -0.024  0.00  0.00    +0.168 HD
ENDROOT
BRANCH  25  31
ATOM     31  C   UNL     1       4.888  -4.637   4.238  0.00  0.00    +0.086 C 
ATOM     32  C   UNL     1       6.018  -3.961   5.018  0.00  0.00    +0.023 C 
ATOM     33  C   UNL     1       5.641  -3.885   6.499  0.00  0.00    +0.002 C 
ATOM     34  C   UNL     1       5.420  -5.298   7.043  0.00  0.00    +0.000 C 
ATOM     35  C   UNL     1       4.290  -5.974   6.263  0.00  0.00    +0.002 C 
ATOM     36  C   UNL     1       4.668  -6.050   4.782  0.00  0.00    +0.023 C 
ENDBRANCH  25  31
TORSDOF 1
