REMARK  Name = ZINC65259975
REMARK  2 active torsions:
REMARK  status: ('A' for Active; 'I' for Inactive)
REMARK    1  A    between atoms: C_14  and  C_16
REMARK    2  A    between atoms: N_27  and  C_28
REMARK                            x       y       z     vdW  Elec       q    Type
REMARK                         _______ _______ _______ _____ _____    ______ ____
ROOT
ATOM      1  C   UNL     1      -1.325   1.249  -0.356  0.00  0.00    +0.002 A 
ATOM      2  C   UNL     1      -0.254   2.075  -0.069  0.00  0.00    +0.002 A 
ATOM      3  C   UNL     1       0.981   1.532   0.236  0.00  0.00    +0.025 A 
ATOM      4  C   UNL     1       1.146   0.156   0.255  0.00  0.00    +0.053 A 
ATOM      5  C   UNL     1       0.065  -0.677  -0.029  0.00  0.00    +0.049 A 
ATOM      6  C   UNL     1      -1.169  -0.125  -0.338  0.00  0.00    +0.025 A 
ATOM      7  N   UNL     1       0.216  -2.072   0.007  0.00  0.00    -0.329 N 
ATOM      8  C   UNL     1       1.570  -2.638  -0.033  0.00  0.00    +0.102 C 
ATOM      9  C   UNL     1       1.560  -4.052   0.543  0.00  0.00    +0.036 C 
ATOM     10  C   UNL     1       0.633  -4.941  -0.289  0.00  0.00    +0.021 C 
ATOM     11  C   UNL     1       1.148  -5.000  -1.731  0.00  0.00    +0.108 C 
ATOM     12  N   UNL     1       1.281  -3.629  -2.242  0.00  0.00    -0.295 N 
ATOM     13  C   UNL     1       2.080  -2.664  -1.473  0.00  0.00    +0.141 C 
ATOM     14  C   UNL     1       0.683  -3.263  -3.393  0.00  0.00    +0.247 C 
ATOM     15  O   UNL     1       0.082  -4.088  -4.055  0.00  0.00    -0.270 OA
ATOM     16  C   UNL     1       2.466  -1.752   0.807  0.00  0.00    +0.098 C 
ATOM     17  N   UNL     1       2.404  -0.394   0.554  0.00  0.00    -0.301 N 
ATOM     18  N   UNL     1       3.249  -2.240   1.715  0.00  0.00    -0.372 N 
ATOM     19  H   UNL     1      -0.561  -2.651   0.057  0.00  0.00    +0.147 HD
ATOM     20  H   UNL     1       3.272  -3.197   1.871  0.00  0.00    +0.161 HD
ATOM     21  H   UNL     1       3.200   0.159   0.582  0.00  0.00    +0.153 HD
ENDROOT
BRANCH  14  22
ATOM     22  C   UNL     1       0.756  -1.862  -3.850  0.00  0.00    +0.041 A 
ATOM     23  C   UNL     1       1.991  -1.212  -3.919  0.00  0.00    +0.017 A 
ATOM     24  C   UNL     1       2.058   0.096  -4.347  0.00  0.00    +0.050 A 
ATOM     25  C   UNL     1       0.901   0.772  -4.711  0.00  0.00    +0.166 A 
ATOM     26  C   UNL     1      -0.335   0.129  -4.644  0.00  0.00    +0.167 A 
ATOM     27  C   UNL     1      -0.408  -1.184  -4.221  0.00  0.00    +0.062 A 
ATOM     28  O   UNL     1      -1.303   1.002  -5.051  0.00  0.00    -0.453 OA
ATOM     29  C   UNL     1      -0.699   2.306  -4.977  0.00  0.00    +0.466 C 
ATOM     30  O   UNL     1       0.705   2.045  -5.160  0.00  0.00    -0.453 OA
ENDBRANCH  14  22
BRANCH  18  31
ATOM     31  C   UNL     1       4.100  -1.348   2.505  0.00  0.00    +0.080 C 
ATOM     32  C   UNL     1       5.442  -1.118   1.780  0.00  0.00    +0.024 C 
ATOM     33  C   UNL     1       6.487  -1.066   2.923  0.00  0.00    +0.002 C 
ATOM     34  C   UNL     1       5.972  -2.146   3.906  0.00  0.00    +0.002 C 
ATOM     35  C   UNL     1       4.436  -2.001   3.857  0.00  0.00    +0.024 C 
ENDBRANCH  18  31
TORSDOF 2
