REMARK  Name = ZINC09172637
REMARK  10 active torsions:
REMARK  status: ('A' for Active; 'I' for Inactive)
REMARK    1  A    between atoms: C_1  and  C_2
REMARK    2  A    between atoms: C_2  and  C_3
REMARK    3  A    between atoms: C_2  and  C_4
REMARK    4  A    between atoms: C_4  and  N_5
REMARK    5  A    between atoms: C_8  and  N_19
REMARK    6  A    between atoms: C_14  and  C_17
REMARK    7  A    between atoms: C_14  and  C_18
REMARK    8  A    between atoms: N_19  and  S_20
REMARK    9  A    between atoms: S_20  and  C_23
REMARK   10  A    between atoms: C_27  and  N_29
REMARK                            x       y       z     vdW  Elec       q    Type
REMARK                         _______ _______ _______ _____ _____    ______ ____
ROOT
ATOM      1  N   UNL     1      -2.486   4.556  -5.627  0.00  0.00    -0.267 N 
ATOM      2  C   UNL     1      -3.034   5.238  -4.532  0.00  0.00    +0.080 A 
ATOM      3  C   UNL     1      -2.302   5.407  -3.369  0.00  0.00    +0.051 A 
ATOM      4  C   UNL     1      -2.865   6.076  -2.290  0.00  0.00    +0.050 A 
ATOM      5  C   UNL     1      -4.154   6.583  -2.384  0.00  0.00    +0.028 A 
ATOM      6  C   UNL     1      -4.882   6.421  -3.548  0.00  0.00    +0.049 A 
ATOM      7  C   UNL     1      -4.327   5.751  -4.625  0.00  0.00    +0.142 A 
ATOM      8  O   UNL     1      -5.034   5.594  -5.776  0.00  0.00    -0.489 OA
ATOM      9  C   UNL     1      -4.672   6.420  -6.880  0.00  0.00    +0.244 C 
ATOM     10  C   UNL     1      -3.153   6.485  -7.022  0.00  0.00    +0.076 C 
ATOM     11  C   UNL     1      -2.559   5.110  -6.857  0.00  0.00    +0.229 C 
ATOM     12  O   UNL     1      -2.148   4.504  -7.824  0.00  0.00    -0.275 OA
ATOM     13  C   UNL     1      -2.796   7.030  -8.407  0.00  0.00    +0.024 C 
ATOM     14  C   UNL     1      -2.582   7.414  -5.949  0.00  0.00    +0.024 C 
ENDROOT
BRANCH   4  15
ATOM     15  N   UNL     1      -2.131   6.243  -1.111  0.00  0.00    -0.216 N 
ATOM     16  H   UNL     1      -1.203   6.522  -1.152  0.00  0.00    +0.174 HD
BRANCH  15  17
ATOM     17  S   UNL     1      -2.847   5.965   0.357  0.00  0.00    +0.072 S 
ATOM     18  O   UNL     1      -4.082   6.668   0.345  0.00  0.00    -0.150 OA
ATOM     19  O   UNL     1      -1.851   6.191   1.344  0.00  0.00    -0.150 OA
BRANCH  17  20
ATOM     20  C   UNL     1      -3.245   4.250   0.425  0.00  0.00    +0.111 A 
ATOM     21  C   UNL     1      -2.328   3.348   0.933  0.00  0.00    +0.029 A 
ATOM     22  C   UNL     1      -2.639   2.002   0.987  0.00  0.00    +0.004 A 
ATOM     23  C   UNL     1      -3.868   1.558   0.534  0.00  0.00    +0.033 A 
ATOM     24  C   UNL     1      -4.782   2.459   0.022  0.00  0.00    +0.128 A 
ATOM     25  C   UNL     1      -4.473   3.806  -0.028  0.00  0.00    +0.061 A 
BRANCH  24  26
ATOM     26  N   UNL     1      -6.095   1.984  -0.469  0.00  0.00    +0.056 N 
ATOM     27  O   UNL     1      -6.370   0.798  -0.421  0.00  0.00    -0.126 OA
ATOM     28  O   UNL     1      -6.901   2.777  -0.920  0.00  0.00    -0.126 OA
ENDBRANCH  24  26
ENDBRANCH  17  20
ENDBRANCH  15  17
ENDBRANCH   4  15
BRANCH   1  29
ATOM     29  C   UNL     1      -1.841   3.254  -5.439  0.00  0.00    +0.116 C 
BRANCH  29  31
ATOM     30  C   UNL     1      -3.587   2.126  -6.825  0.00  0.00    +0.009 C 
ATOM     31  C   UNL     1      -2.902   2.151  -5.458  0.00  0.00    +0.001 C 
ATOM     32  C   UNL     1      -2.237   0.799  -5.194  0.00  0.00    +0.009 C 
ENDBRANCH  29  31
ENDBRANCH   1  29
TORSDOF 6
