REMARK  Name = ZINC08922279
REMARK  6 active torsions:
REMARK  status: ('A' for Active; 'I' for Inactive)
REMARK    1  A    between atoms: C_1  and  C_2
REMARK    2  A    between atoms: C_2  and  C_4
REMARK    3  A    between atoms: C_2  and  N_17
REMARK    4  A    between atoms: N_6  and  C_7
REMARK    5  A    between atoms: C_12  and  C_13
REMARK    6  A    between atoms: C_24  and  C_27
REMARK                            x       y       z     vdW  Elec       q    Type
REMARK                         _______ _______ _______ _____ _____    ______ ____
ROOT
ATOM      1  N   UNL     1      -4.667   2.380   2.816  0.00  0.00    -0.287 N 
ATOM      2  C   UNL     1      -5.748   1.578   2.640  0.00  0.00    +0.204 A 
ATOM      3  N   UNL     1      -5.767   0.666   1.704  0.00  0.00    -0.230 NA
ATOM      4  C   UNL     1      -4.726   0.494   0.894  0.00  0.00    +0.116 A 
ATOM      5  C   UNL     1      -3.564   1.276   1.001  0.00  0.00    +0.080 A 
ATOM      6  C   UNL     1      -3.576   2.265   2.036  0.00  0.00    +0.263 A 
ATOM      7  O   UNL     1      -2.613   2.992   2.208  0.00  0.00    -0.267 OA
ATOM      8  C   UNL     1      -2.516   0.961   0.038  0.00  0.00    +0.004 A 
ATOM      9  C   UNL     1      -2.735  -0.027  -0.864  0.00  0.00    +0.056 A 
ATOM     10  S   UNL     1      -4.373  -0.600  -0.457  0.00  0.00    -0.076 S 
ENDROOT
BRANCH   8  11
ATOM     11  C   UNL     1      -1.237   1.710   0.041  0.00  0.00    -0.016 A 
ATOM     12  C   UNL     1      -1.240   3.105   0.054  0.00  0.00    +0.009 A 
ATOM     13  C   UNL     1      -0.045   3.788   0.049  0.00  0.00    +0.004 A 
ATOM     14  C   UNL     1       1.165   3.103   0.035  0.00  0.00    -0.044 A 
ATOM     15  C   UNL     1       1.174   1.726   0.032  0.00  0.00    -0.044 A 
ATOM     16  C   UNL     1      -0.025   1.028   0.037  0.00  0.00    +0.012 A 
ATOM     17  C   UNL     1       2.449   0.923   0.028  0.00  0.00    +0.035 C 
ATOM     18  C   UNL     1       3.628   1.790  -0.406  0.00  0.00    +0.005 C 
ATOM     19  C   UNL     1       3.626   3.069   0.441  0.00  0.00    +0.005 C 
ATOM     20  C   UNL     1       2.430   3.921   0.022  0.00  0.00    +0.035 C 
ENDBRANCH   8  11
BRANCH   1  22
ATOM     21  C   UNL     1      -4.874   2.701   5.232  0.00  0.00    +0.041 C 
ATOM     22  C   UNL     1      -4.687   3.389   3.878  0.00  0.00    +0.174 C 
BRANCH  22  23
ATOM     23  C   UNL     1      -5.826   4.346   3.639  0.00  0.00    +0.240 C 
ATOM     24  O   UNL     1      -6.550   4.199   2.677  0.00  0.00    -0.273 OA
ATOM     25  N   UNL     1      -6.041   5.365   4.495  0.00  0.00    -0.283 N 
ATOM     26  H   UNL     1      -5.504   5.445   5.299  0.00  0.00    +0.155 HD
BRANCH  25  27
ATOM     27  C   UNL     1      -7.038   6.308   4.223  0.00  0.00    +0.045 A 
ATOM     28  C   UNL     1      -8.214   5.917   3.595  0.00  0.00    +0.024 A 
ATOM     29  C   UNL     1      -9.198   6.849   3.333  0.00  0.00    +0.002 A 
ATOM     30  C   UNL     1      -9.011   8.173   3.687  0.00  0.00    +0.001 A 
ATOM     31  C   UNL     1      -7.840   8.566   4.308  0.00  0.00    +0.014 A 
ATOM     32  C   UNL     1      -6.853   7.638   4.577  0.00  0.00    +0.076 A 
BRANCH  32  33
ATOM     33  C   UNL     1      -5.577   8.068   5.253  0.00  0.00    +0.419 C 
ATOM     34  F   UNL     1      -5.624   9.443   5.508  0.00  0.00    -0.166 F 
ATOM     35  F   UNL     1      -5.431   7.375   6.459  0.00  0.00    -0.166 F 
ATOM     36  F   UNL     1      -4.489   7.786   4.419  0.00  0.00    -0.166 F 
ENDBRANCH  32  33
ENDBRANCH  25  27
ENDBRANCH  22  23
ENDBRANCH   1  22
TORSDOF 5
