REMARK  Name = ZINC21486431
REMARK  6 active torsions:
REMARK  status: ('A' for Active; 'I' for Inactive)
REMARK    1  A    between atoms: C_4  and  C_7
REMARK    2  A    between atoms: C_7  and  C_8
REMARK    3  A    between atoms: C_7  and  N_14
REMARK    4  A    between atoms: N_17  and  C_20
REMARK    5  A    between atoms: C_20  and  C_21
REMARK    6  A    between atoms: C_27  and  C_32
REMARK                            x       y       z     vdW  Elec       q    Type
REMARK                         _______ _______ _______ _____ _____    ______ ____
ROOT
ATOM      1  N   UNL     1      -1.057  -0.323   1.015  0.00  0.00    -0.295 NA
ATOM      2  C   UNL     1      -0.723  -0.013   2.412  0.00  0.00    +0.067 C 
ATOM      3  C   UNL     1      -1.857  -0.488   3.323  0.00  0.00    -0.063 C 
ATOM      4  N   UNL     1      -2.056  -1.933   3.140  0.00  0.00    +0.386 N 
ATOM      5  C   UNL     1      -2.390  -2.243   1.743  0.00  0.00    -0.063 C 
ATOM      6  C   UNL     1      -1.256  -1.767   0.832  0.00  0.00    +0.067 C 
ATOM      7  H   UNL     1      -1.110  -2.439   3.384  0.00  0.00    -0.081 HD
ENDROOT
BRANCH   1   8
ATOM      8  C   UNL     1      -0.026   0.186   0.101  0.00  0.00    +0.117 C 
BRANCH   8  12
ATOM      9  C   UNL     1       0.472   4.385   0.713  0.00  0.00    +0.000 A 
ATOM     10  C   UNL     1       1.576   3.583   0.492  0.00  0.00    +0.000 A 
ATOM     11  C   UNL     1       1.415   2.224   0.295  0.00  0.00    +0.005 A 
ATOM     12  C   UNL     1       0.150   1.667   0.317  0.00  0.00    -0.026 A 
ATOM     13  C   UNL     1      -0.955   2.470   0.532  0.00  0.00    +0.005 A 
ATOM     14  C   UNL     1      -0.793   3.828   0.735  0.00  0.00    +0.000 A 
ENDBRANCH   8  12
BRANCH   8  15
ATOM     15  C   UNL     1      -0.447  -0.067  -1.323  0.00  0.00    -0.026 A 
ATOM     16  C   UNL     1      -1.768   0.103  -1.694  0.00  0.00    +0.005 A 
ATOM     17  C   UNL     1      -2.154  -0.125  -3.002  0.00  0.00    +0.000 A 
ATOM     18  C   UNL     1      -1.220  -0.533  -3.937  0.00  0.00    +0.000 A 
ATOM     19  C   UNL     1       0.099  -0.708  -3.564  0.00  0.00    +0.000 A 
ATOM     20  C   UNL     1       0.486  -0.475  -2.258  0.00  0.00    +0.005 A 
ENDBRANCH   8  15
ENDBRANCH   1   8
BRANCH   4  21
ATOM     21  C   UNL     1      -3.087  -2.442   4.054  0.00  0.00    -0.003 C 
BRANCH  21  22
ATOM     22  C   UNL     1      -3.086  -3.948   4.023  0.00  0.00    +0.094 A 
ATOM     23  N   UNL     1      -4.040  -4.630   4.708  0.00  0.00    -0.312 N 
ATOM     24  H   UNL     1      -4.801  -4.083   5.283  0.00  0.00    +0.170 HD
ATOM     25  C   UNL     1      -4.078  -5.976   4.701  0.00  0.00    +0.260 A 
ATOM     26  O   UNL     1      -4.943  -6.573   5.318  0.00  0.00    -0.267 OA
ATOM     27  C   UNL     1      -3.082  -6.694   3.965  0.00  0.00    +0.080 A 
ATOM     28  C   UNL     1      -2.909  -8.134   3.811  0.00  0.00    +0.004 A 
ATOM     29  C   UNL     1      -1.880  -8.589   3.055  0.00  0.00    +0.056 A 
ATOM     30  S   UNL     1      -1.080  -7.094   2.505  0.00  0.00    -0.076 S 
ATOM     31  C   UNL     1      -2.135  -5.905   3.294  0.00  0.00    +0.116 A 
ATOM     32  N   UNL     1      -2.165  -4.576   3.342  0.00  0.00    -0.229 NA
BRANCH  28  33
ATOM     33  C   UNL     1      -3.840  -9.082   4.468  0.00  0.00    -0.016 A 
ATOM     34  C   UNL     1      -4.128  -8.951   5.826  0.00  0.00    +0.010 A 
ATOM     35  C   UNL     1      -4.999  -9.834   6.432  0.00  0.00    +0.020 A 
ATOM     36  C   UNL     1      -5.579 -10.853   5.696  0.00  0.00    +0.041 A 
ATOM     37  C   UNL     1      -5.292 -10.990   4.348  0.00  0.00    +0.020 A 
ATOM     38  C   UNL     1      -4.427 -10.110   3.732  0.00  0.00    +0.010 A 
ATOM     39 CL   UNL     1      -6.669 -11.963   6.466  0.00  0.00    -0.084 Cl
ENDBRANCH  28  33
ENDBRANCH  21  22
ENDBRANCH   4  21
TORSDOF 6
