REMARK  Name = ZINC20534207
REMARK  8 active torsions:
REMARK  status: ('A' for Active; 'I' for Inactive)
REMARK    1  A    between atoms: C_6  and  O_11
REMARK    2  A    between atoms: O_11  and  C_12
REMARK    3  A    between atoms: C_12  and  C_13
REMARK    4  A    between atoms: C_16  and  C_18
REMARK    5  A    between atoms: N_20  and  N_21
REMARK    6  A    between atoms: N_21  and  C_22
REMARK    7  A    between atoms: C_22  and  N_24
REMARK    8  A    between atoms: N_24  and  C_25
REMARK                            x       y       z     vdW  Elec       q    Type
REMARK                         _______ _______ _______ _____ _____    ______ ____
ROOT
ATOM      1  C   UNL     1      -0.061   9.303  -0.257  0.00  0.00    +0.295 C 
ATOM      2  O   UNL     1      -1.120   9.898  -0.336  0.00  0.00    -0.265 OA
ATOM      3  N   UNL     1      -0.048   7.959  -0.162  0.00  0.00    -0.229 N 
ATOM      4  H   UNL     1       0.909   7.421  -0.090  0.00  0.00    +0.173 HD
ENDROOT
BRANCH   1   8
ATOM      5  C   UNL     1       3.349  10.498  -0.221  0.00  0.00    +0.143 A 
ATOM      6  C   UNL     1       2.707  11.682  -0.327  0.00  0.00    +0.049 A 
ATOM      7  C   UNL     1       1.331  11.405  -0.356  0.00  0.00    +0.055 A 
ATOM      8  C   UNL     1       1.202  10.049  -0.265  0.00  0.00    +0.191 A 
ATOM      9  O   UNL     1       2.438   9.517  -0.178  0.00  0.00    -0.452 OA
BRANCH   5  10
ATOM     10  C   UNL     1       4.843  10.312  -0.157  0.00  0.00    +0.303 C 
BRANCH  10  11
ATOM     11  O   UNL     1       5.269  10.348   1.207  0.00  0.00    -0.484 OA
BRANCH  11  17
ATOM     12  C   UNL     1      11.158   9.743   3.405  0.00  0.00    +0.001 A 
ATOM     13  C   UNL     1      10.288   9.924   4.479  0.00  0.00    +0.001 A 
ATOM     14  C   UNL     1       8.951  10.082   4.279  0.00  0.00    +0.008 A 
ATOM     15  C   UNL     1       8.437  10.061   2.971  0.00  0.00    -0.014 A 
ATOM     16  C   UNL     1       7.063  10.220   2.726  0.00  0.00    +0.054 A 
ATOM     17  C   UNL     1       6.598  10.194   1.442  0.00  0.00    +0.122 A 
ATOM     18  C   UNL     1       7.472  10.006   0.367  0.00  0.00    +0.046 A 
ATOM     19  C   UNL     1       8.808   9.855   0.570  0.00  0.00    +0.012 A 
ATOM     20  C   UNL     1       9.321   9.876   1.879  0.00  0.00    -0.018 A 
ATOM     21  C   UNL     1      10.695   9.717   2.125  0.00  0.00    +0.008 A 
ENDBRANCH  11  17
ENDBRANCH  10  11
ENDBRANCH   5  10
ENDBRANCH   1   8
BRANCH   3  22
ATOM     22  N   UNL     1      -1.254   7.246  -0.153  0.00  0.00    -0.245 N 
ATOM     23  H   UNL     1      -2.212   7.783  -0.225  0.00  0.00    +0.172 HD
BRANCH  22  24
ATOM     24  C   UNL     1      -1.242   5.901  -0.058  0.00  0.00    +0.151 C 
ATOM     25  S   UNL     1      -2.716   5.030  -0.049  0.00  0.00    -0.017 S 
BRANCH  24  26
ATOM     26  N   UNL     1      -0.069   5.243   0.029  0.00  0.00    -0.296 N 
ATOM     27  H   UNL     1       0.874   5.805   0.094  0.00  0.00    +0.154 HD
BRANCH  26  28
ATOM     28  C   UNL     1      -0.051   3.844   0.037  0.00  0.00    +0.035 A 
ATOM     29  C   UNL     1       0.857   3.155  -0.756  0.00  0.00    +0.043 A 
ATOM     30  C   UNL     1       0.872   1.773  -0.746  0.00  0.00    +0.044 A 
ATOM     31  C   UNL     1      -0.017   1.076   0.053  0.00  0.00    +0.040 A 
ATOM     32  C   UNL     1      -0.926   1.760   0.840  0.00  0.00    +0.044 A 
ATOM     33  C   UNL     1      -0.942   3.142   0.838  0.00  0.00    +0.043 A 
ATOM     34 CL   UNL     1      -2.044   0.881   1.836  0.00  0.00    -0.083 Cl
ATOM     35 CL   UNL     1       2.007   0.911  -1.738  0.00  0.00    -0.083 Cl
ENDBRANCH  26  28
ENDBRANCH  24  26
ENDBRANCH  22  24
ENDBRANCH   3  22
TORSDOF 8
