REMARK  Name = ZINC15053040
REMARK  7 active torsions:
REMARK  status: ('A' for Active; 'I' for Inactive)
REMARK    1  A    between atoms: C_1  and  C_2
REMARK    2  A    between atoms: C_5  and  N_8
REMARK    3  A    between atoms: C_12  and  C_13
REMARK    4  A    between atoms: C_18  and  O_19
REMARK    5  A    between atoms: O_19  and  C_20
REMARK    6  A    between atoms: C_20  and  C_21
REMARK    7  A    between atoms: N_23  and  C_24
REMARK                            x       y       z     vdW  Elec       q    Type
REMARK                         _______ _______ _______ _____ _____    ______ ____
ROOT
ATOM      1  C   UNL     1       0.349  -8.681   1.852  0.00  0.00    +0.019 A 
ATOM      2  C   UNL     1       0.432  -9.140   0.532  0.00  0.00    +0.031 A 
ATOM      3  C   UNL     1       0.487 -10.494   0.279  0.00  0.00    +0.042 A 
ATOM      4  C   UNL     1       0.461 -11.403   1.325  0.00  0.00    +0.023 A 
ATOM      5  C   UNL     1       0.378 -10.963   2.632  0.00  0.00    +0.048 A 
ATOM      6  C   UNL     1       0.328  -9.606   2.908  0.00  0.00    +0.128 A 
ATOM      7 CL   UNL     1       0.590 -11.063  -1.358  0.00  0.00    -0.084 Cl
ENDROOT
BRANCH   1  12
ATOM      8  N   UNL     1       0.960  -4.245   0.091  0.00  0.00    -0.215 N 
ATOM      9  C   UNL     1       0.503  -4.883   1.155  0.00  0.00    +0.263 C 
ATOM     10  O   UNL     1      -0.027  -4.287   2.074  0.00  0.00    -0.269 OA
ATOM     11  C   UNL     1       0.662  -6.349   1.177  0.00  0.00    +0.079 C 
ATOM     12  C   UNL     1       0.290  -7.240   2.131  0.00  0.00    +0.032 C 
ATOM     13  S   UNL     1       1.478  -6.637  -0.386  0.00  0.00    -0.049 S 
ATOM     14  C   UNL     1       1.553  -4.943  -0.945  0.00  0.00    +0.165 C 
ATOM     15  N   UNL     1       2.049  -4.477  -2.058  0.00  0.00    -0.279 NA
ATOM     16  H   UNL     1       2.439  -5.084  -2.706  0.00  0.00    +0.189 HD
BRANCH   8  21
ATOM     17  C   UNL     1       0.464   1.399  -0.235  0.00  0.00    +0.044 C 
ATOM     18  C   UNL     1       0.596  -0.100  -0.149  0.00  0.00    -0.050 A 
ATOM     19  C   UNL     1      -0.412  -0.911  -0.639  0.00  0.00    +0.005 A 
ATOM     20  C   UNL     1      -0.294  -2.285  -0.561  0.00  0.00    +0.024 A 
ATOM     21  C   UNL     1       0.838  -2.852   0.010  0.00  0.00    +0.043 A 
ATOM     22  C   UNL     1       1.848  -2.035   0.500  0.00  0.00    +0.024 A 
ATOM     23  C   UNL     1       1.727  -0.662   0.415  0.00  0.00    +0.005 A 
ENDBRANCH   8  21
ENDBRANCH   1  12
BRANCH   6  24
ATOM     24  O   UNL     1       0.253  -9.173   4.192  0.00  0.00    -0.482 OA
BRANCH  24  25
ATOM     25  C   UNL     1       0.236 -10.173   5.214  0.00  0.00    +0.324 C 
BRANCH  25  26
ATOM     26  C   UNL     1       0.151  -9.509   6.564  0.00  0.00    +0.255 C 
ATOM     27  O   UNL     1       0.109  -8.300   6.644  0.00  0.00    -0.272 OA
ATOM     28  N   UNL     1       0.122 -10.260   7.683  0.00  0.00    -0.283 N 
ATOM     29  H   UNL     1       0.098 -11.228   7.617  0.00  0.00    +0.155 HD
BRANCH  28  30
ATOM     30  C   UNL     1       0.126  -9.644   8.940  0.00  0.00    +0.034 A 
ATOM     31  C   UNL     1       0.803 -10.231  10.000  0.00  0.00    +0.025 A 
ATOM     32  C   UNL     1       0.805  -9.620  11.239  0.00  0.00    +0.022 A 
ATOM     33  C   UNL     1       0.133  -8.425  11.424  0.00  0.00    +0.041 A 
ATOM     34  C   UNL     1      -0.543  -7.838  10.369  0.00  0.00    +0.022 A 
ATOM     35  C   UNL     1      -0.543  -8.441   9.127  0.00  0.00    +0.025 A 
ATOM     36 CL   UNL     1       0.137  -7.661  12.983  0.00  0.00    -0.084 Cl
ENDBRANCH  28  30
ENDBRANCH  25  26
ENDBRANCH  24  25
ENDBRANCH   6  24
TORSDOF 6
