REMARK  Name = ZINC20344312
REMARK  12 active torsions:
REMARK  status: ('A' for Active; 'I' for Inactive)
REMARK    1  A    between atoms: C_1  and  C_2
REMARK    2  A    between atoms: C_6  and  C_10
REMARK    3  A    between atoms: C_10  and  C_33
REMARK    4  A    between atoms: N_11  and  N_12
REMARK    5  A    between atoms: C_13  and  C_15
REMARK    6  A    between atoms: C_15  and  C_16
REMARK    7  A    between atoms: C_16  and  C_17
REMARK    8  A    between atoms: C_17  and  C_18
REMARK    9  A    between atoms: N_20  and  N_21
REMARK   10  A    between atoms: C_22  and  C_23
REMARK   11  A    between atoms: C_22  and  C_32
REMARK   12  A    between atoms: C_27  and  C_31
REMARK                            x       y       z     vdW  Elec       q    Type
REMARK                         _______ _______ _______ _____ _____    ______ ____
ROOT
ATOM      1  C   UNL     1      -1.583  -7.285  -2.454  0.00  0.00    +0.018 C 
ENDROOT
BRANCH   1   2
ATOM      2  C   UNL     1      -1.477  -6.761  -1.020  0.00  0.00    +0.098 C 
BRANCH   2   4
ATOM      3  N   UNL     1      -1.845  -4.628   0.178  0.00  0.00    -0.207 N 
ATOM      4  C   UNL     1      -1.864  -5.305  -0.988  0.00  0.00    +0.232 C 
ATOM      5  O   UNL     1      -2.194  -4.742  -2.010  0.00  0.00    -0.274 OA
ATOM      6  H   UNL     1      -1.582  -5.079   0.996  0.00  0.00    +0.177 HD
BRANCH   3   8
ATOM      7  C   UNL     1      -2.187  -2.623   1.333  0.00  0.00    +0.074 C 
ATOM      8  N   UNL     1      -2.206  -3.275   0.208  0.00  0.00    -0.184 NA
ATOM      9  C   UNL     1      -1.778  -3.322   2.603  0.00  0.00    +0.068 C 
BRANCH   7  15
ATOM     10  C   UNL     1      -3.740   2.889   1.465  0.00  0.00    +0.086 C 
ATOM     11  C   UNL     1      -3.315   1.444   1.429  0.00  0.00    +0.110 A 
ATOM     12  O   UNL     1      -4.249   0.486   1.508  0.00  0.00    -0.427 OA
ATOM     13  C   UNL     1      -3.923  -0.818   1.480  0.00  0.00    +0.350 A 
ATOM     14  O   UNL     1      -4.794  -1.667   1.554  0.00  0.00    -0.244 OA
ATOM     15  C   UNL     1      -2.565  -1.203   1.365  0.00  0.00    +0.128 A 
ATOM     16  C   UNL     1      -1.591  -0.201   1.282  0.00  0.00    +0.198 A 
ATOM     17  C   UNL     1      -2.006   1.145   1.312  0.00  0.00    +0.093 A 
ATOM     18  O   UNL     1      -0.281  -0.518   1.170  0.00  0.00    -0.287 OA
ENDBRANCH   7  15
ENDBRANCH   3   8
ENDBRANCH   2   4
ENDBRANCH   1   2
BRANCH   1  19
ATOM     19  C   UNL     1      -1.190  -8.763  -2.487  0.00  0.00    +0.098 C 
BRANCH  19  20
ATOM     20  C   UNL     1      -1.295  -9.279  -3.899  0.00  0.00    +0.232 C 
ATOM     21  O   UNL     1      -1.650  -8.537  -4.791  0.00  0.00    -0.274 OA
ATOM     22  N   UNL     1      -0.995 -10.565  -4.171  0.00  0.00    -0.207 N 
ATOM     23  H   UNL     1      -0.711 -11.158  -3.458  0.00  0.00    +0.177 HD
BRANCH  22  24
ATOM     24  N   UNL     1      -1.093 -11.044  -5.483  0.00  0.00    -0.184 NA
ATOM     25  C   UNL     1      -0.803 -12.284  -5.745  0.00  0.00    +0.074 C 
ATOM     26  C   UNL     1      -0.362 -13.205  -4.637  0.00  0.00    +0.068 C 
BRANCH  25  27
ATOM     27  C   UNL     1      -0.906 -12.788  -7.123  0.00  0.00    +0.128 A 
ATOM     28  C   UNL     1      -2.142 -13.250  -7.634  0.00  0.00    +0.350 A 
ATOM     29  O   UNL     1      -3.138 -13.234  -6.931  0.00  0.00    -0.244 OA
ATOM     30  O   UNL     1      -2.216 -13.707  -8.896  0.00  0.00    -0.427 OA
ATOM     31  C   UNL     1      -1.141 -13.738  -9.694  0.00  0.00    +0.110 A 
ATOM     32  C   UNL     1       0.066 -13.312  -9.269  0.00  0.00    +0.093 A 
ATOM     33  C   UNL     1       0.216 -12.815  -7.960  0.00  0.00    +0.198 A 
ATOM     34  O   UNL     1       1.418 -12.379  -7.519  0.00  0.00    -0.287 OA
ATOM     35  C   UNL     1      -1.283 -14.261 -11.100  0.00  0.00    +0.086 C 
ENDBRANCH  25  27
ENDBRANCH  22  24
ENDBRANCH  19  20
ENDBRANCH   1  19
TORSDOF 8
