REMARK  Name = ZINC06408961
REMARK  12 active torsions:
REMARK  status: ('A' for Active; 'I' for Inactive)
REMARK    1  A    between atoms: C_1  and  C_2
REMARK    2  A    between atoms: C_9  and  C_14
REMARK    3  A    between atoms: C_14  and  C_16
REMARK    4  A    between atoms: C_14  and  N_69
REMARK    5  A    between atoms: N_20  and  C_21
REMARK    6  A    between atoms: C_21  and  C_22
REMARK    7  A    between atoms: C_21  and  C_23
REMARK    8  A    between atoms: C_21  and  C_24
REMARK    9  A    between atoms: C_25  and  C_26
REMARK   10  A    between atoms: C_25  and  N_69
REMARK   11  A    between atoms: C_32  and  C_33
REMARK   12  A    between atoms: C_32  and  N_69
REMARK                            x       y       z     vdW  Elec       q    Type
REMARK                         _______ _______ _______ _____ _____    ______ ____
ROOT
ATOM      1  C   UNL     1       0.930  -3.426  -2.245  0.00  0.00    +0.040 C 
ENDROOT
BRANCH   1  10
ATOM      2  C   UNL     1       3.713  -3.852  -9.150  0.00  0.00    +0.044 C 
ATOM      3  C   UNL     1       2.600  -3.489  -8.203  0.00  0.00    -0.050 A 
ATOM      4  C   UNL     1       1.423  -2.946  -8.700  0.00  0.00    +0.005 A 
ATOM      5  C   UNL     1       0.392  -2.605  -7.851  0.00  0.00    +0.026 A 
ATOM      6  C   UNL     1       0.529  -2.808  -6.482  0.00  0.00    +0.049 A 
ATOM      7  C   UNL     1       1.724  -3.359  -5.981  0.00  0.00    -0.001 A 
ATOM      8  C   UNL     1       2.757  -3.697  -6.862  0.00  0.00    +0.013 A 
ATOM      9  C   UNL     1       1.859  -3.569  -4.539  0.00  0.00    +0.017 A 
ATOM     10  C   UNL     1       0.823  -3.224  -3.734  0.00  0.00    +0.011 A 
ATOM     11  C   UNL     1      -0.356  -2.680  -4.287  0.00  0.00    +0.251 A 
ATOM     12  O   UNL     1      -1.276  -2.380  -3.547  0.00  0.00    -0.268 OA
ATOM     13  N   UNL     1      -0.487  -2.478  -5.610  0.00  0.00    -0.322 N 
ATOM     14  H   UNL     1      -1.310  -2.099  -5.957  0.00  0.00    +0.169 HD
ENDBRANCH   1  10
BRANCH   1  15
ATOM     15  C   UNL     1      -0.131  -4.397  -1.793  0.00  0.00    +0.143 A 
ATOM     16  N   UNL     1      -1.407  -4.142  -1.630  0.00  0.00    -0.115 NA
ATOM     17  N   UNL     1      -1.982  -5.226  -1.238  0.00  0.00    -0.023 NA
ATOM     18  N   UNL     1      -1.106  -6.163  -1.139  0.00  0.00    -0.043 NA
ATOM     19  N   UNL     1       0.048  -5.692  -1.473  0.00  0.00    -0.225 N 
BRANCH  19  20
ATOM     20  C   UNL     1       1.315  -6.427  -1.498  0.00  0.00    +0.059 C 
ATOM     21  C   UNL     1       2.271  -5.832  -0.463  0.00  0.00    +0.036 C 
ATOM     22  C   UNL     1       1.057  -7.899  -1.168  0.00  0.00    +0.036 C 
ATOM     23  C   UNL     1       1.939  -6.319  -2.891  0.00  0.00    +0.036 C 
ENDBRANCH  19  20
ENDBRANCH   1  15
BRANCH   1  24
ATOM     24  N   UNL     1       0.713  -2.133  -1.563  0.00  0.00    +0.395 N 
ATOM     25  H   UNL     1      -0.274  -1.865  -1.663  0.00  0.00    -0.079 HD
BRANCH  24  26
ATOM     26  C   UNL     1       1.034  -2.259  -0.126  0.00  0.00    -0.041 C 
BRANCH  26  27
ATOM     27  C   UNL     1      -0.100  -2.974   0.561  0.00  0.00    -0.064 A 
ATOM     28  C   UNL     1      -1.384  -2.467   0.487  0.00  0.00    +0.002 A 
ATOM     29  C   UNL     1      -2.425  -3.127   1.113  0.00  0.00    +0.000 A 
ATOM     30  C   UNL     1      -2.180  -4.287   1.823  0.00  0.00    +0.000 A 
ATOM     31  C   UNL     1      -0.895  -4.791   1.903  0.00  0.00    +0.000 A 
ATOM     32  C   UNL     1       0.145  -4.135   1.272  0.00  0.00    +0.002 A 
ENDBRANCH  26  27
ENDBRANCH  24  26
BRANCH  24  33
ATOM     33  C   UNL     1       1.558  -1.089  -2.181  0.00  0.00    -0.041 C 
BRANCH  33  34
ATOM     34  C   UNL     1       1.160   0.253  -1.621  0.00  0.00    -0.064 A 
ATOM     35  C   UNL     1       1.792   0.747  -0.495  0.00  0.00    +0.003 A 
ATOM     36  C   UNL     1       1.427   1.977   0.018  0.00  0.00    +0.020 A 
ATOM     37  C   UNL     1       0.429   2.714  -0.595  0.00  0.00    +0.041 A 
ATOM     38  C   UNL     1      -0.203   2.219  -1.722  0.00  0.00    +0.020 A 
ATOM     39  C   UNL     1       0.163   0.989  -2.234  0.00  0.00    +0.003 A 
ATOM     40 CL   UNL     1      -0.029   4.259   0.050  0.00  0.00    -0.084 Cl
ENDBRANCH  33  34
ENDBRANCH  24  33
ENDBRANCH   1  24
TORSDOF 8
