REMARK  Name = ZINC32564527
REMARK  9 active torsions:
REMARK  status: ('A' for Active; 'I' for Inactive)
REMARK    1  A    between atoms: C_1  and  C_2
REMARK    2  A    between atoms: C_4  and  S_29
REMARK    3  A    between atoms: C_6  and  N_9
REMARK    4  A    between atoms: C_7  and  C_8
REMARK    5  A    between atoms: C_10  and  C_12
REMARK    6  A    between atoms: C_12  and  S_13
REMARK    7  A    between atoms: S_13  and  C_14
REMARK    8  A    between atoms: N_18  and  C_19
REMARK    9  A    between atoms: S_29  and  N_32
REMARK                            x       y       z     vdW  Elec       q    Type
REMARK                         _______ _______ _______ _____ _____    ______ ____
ROOT
ATOM      1  N   UNL     1      -3.492   0.539   3.694  0.00  0.00    -0.285 N 
ATOM      2  C   UNL     1      -3.768  -0.635   3.092  0.00  0.00    +0.227 C 
ATOM      3  O   UNL     1      -3.146  -0.973   2.108  0.00  0.00    -0.275 OA
ATOM      4  H   UNL     1      -4.005   0.812   4.628  0.00  0.00    +0.155 HD
ENDROOT
BRANCH   1  10
ATOM      5  C   UNL     1      -1.998   5.132   2.777  0.00  0.00    +0.044 C 
ATOM      6  C   UNL     1      -1.804   3.641   2.671  0.00  0.00    -0.044 A 
ATOM      7  C   UNL     1      -0.694   3.133   2.021  0.00  0.00    +0.032 A 
ATOM      8  C   UNL     1      -0.516   1.766   1.917  0.00  0.00    +0.107 A 
ATOM      9  C   UNL     1      -1.441   0.903   2.473  0.00  0.00    +0.052 A 
ATOM     10  C   UNL     1      -2.554   1.410   3.131  0.00  0.00    +0.038 A 
ATOM     11  C   UNL     1      -2.733   2.784   3.229  0.00  0.00    -0.026 A 
ATOM     12  C   UNL     1      -3.939   3.339   3.942  0.00  0.00    +0.046 C 
BRANCH   8  13
ATOM     13  S   UNL     1       0.896   1.123   1.082  0.00  0.00    +0.056 S 
ATOM     14  O   UNL     1       1.116  -0.181   1.601  0.00  0.00    -0.153 OA
ATOM     15  O   UNL     1       1.890   2.138   1.126  0.00  0.00    -0.153 OA
BRANCH  13  16
ATOM     16  N   UNL     1       0.480   0.936  -0.510  0.00  0.00    -0.204 NA
ATOM     17  H   UNL     1       1.339   0.535  -1.068  0.00  0.00    +0.144 HD
ATOM     18  H   UNL     1       0.192   1.911  -0.930  0.00  0.00    +0.144 HD
ENDBRANCH  13  16
ENDBRANCH   8  13
ENDBRANCH   1  10
BRANCH   2  19
ATOM     19  C   UNL     1      -4.851  -1.527   3.642  0.00  0.00    +0.173 C 
BRANCH  19  20
ATOM     20  S   UNL     1      -4.981  -3.017   2.623  0.00  0.00    -0.078 S 
BRANCH  20  21
ATOM     21  C   UNL     1      -6.281  -3.854   3.467  0.00  0.00    +0.174 A 
ATOM     22  N   UNL     1      -6.906  -3.419   4.540  0.00  0.00    -0.226 NA
ATOM     23  C   UNL     1      -7.835  -4.313   4.903  0.00  0.00    +0.064 A 
ATOM     24  C   UNL     1      -7.789  -5.346   4.039  0.00  0.00    +0.047 A 
ATOM     25  N   UNL     1      -6.807  -5.067   3.123  0.00  0.00    -0.291 N 
ATOM     26  C   UNL     1      -8.675  -6.562   4.114  0.00  0.00    +0.056 C 
ATOM     27  C   UNL     1      -9.308  -6.615   5.510  0.00  0.00    +0.007 C 
ATOM     28  C   UNL     1      -9.915  -5.250   5.847  0.00  0.00    +0.007 C 
ATOM     29  C   UNL     1      -8.791  -4.231   6.068  0.00  0.00    +0.057 C 
BRANCH  25  30
ATOM     30  C   UNL     1      -6.418  -5.871   2.042  0.00  0.00    +0.049 A 
ATOM     31  C   UNL     1      -7.308  -6.122   1.007  0.00  0.00    +0.026 A 
ATOM     32  C   UNL     1      -6.920  -6.910  -0.059  0.00  0.00    +0.002 A 
ATOM     33  C   UNL     1      -5.651  -7.458  -0.090  0.00  0.00    +0.000 A 
ATOM     34  C   UNL     1      -4.764  -7.213   0.942  0.00  0.00    +0.002 A 
ATOM     35  C   UNL     1      -5.144  -6.421   2.008  0.00  0.00    +0.026 A 
ENDBRANCH  25  30
ENDBRANCH  20  21
ENDBRANCH  19  20
ENDBRANCH   2  19
TORSDOF 7
