REMARK  Name = ZINC45830150
REMARK  10 active torsions:
REMARK  status: ('A' for Active; 'I' for Inactive)
REMARK    1  A    between atoms: C_1  and  C_2
REMARK    2  A    between atoms: C_2  and  C_4
REMARK    3  A    between atoms: C_2  and  S_20
REMARK    4  A    between atoms: N_6  and  C_7
REMARK    5  A    between atoms: C_12  and  C_13
REMARK    6  A    between atoms: C_13  and  C_14
REMARK    7  A    between atoms: S_20  and  C_21
REMARK    8  A    between atoms: C_24  and  C_32
REMARK    9  A    between atoms: N_25  and  C_26
REMARK   10  A    between atoms: C_32  and  N_33
REMARK                            x       y       z     vdW  Elec       q    Type
REMARK                         _______ _______ _______ _____ _____    ______ ____
ROOT
ATOM      1  C   UNL     1       0.337   2.054   1.024  0.00  0.00    +0.029 C 
ATOM      2  C   UNL     1       0.292   0.548   1.291  0.00  0.00    +0.137 C 
ENDROOT
BRANCH   2   3
ATOM      3  C   UNL     1      -1.107   0.150   1.688  0.00  0.00    +0.230 C 
ATOM      4  O   UNL     1      -1.849  -0.353   0.871  0.00  0.00    -0.274 OA
ATOM      5  N   UNL     1      -1.533   0.353   2.950  0.00  0.00    -0.284 N 
ATOM      6  H   UNL     1      -0.921   0.697   3.619  0.00  0.00    +0.155 HD
BRANCH   5   7
ATOM      7  C   UNL     1      -2.858   0.067   3.296  0.00  0.00    +0.037 A 
ATOM      8  C   UNL     1      -3.583  -0.865   2.564  0.00  0.00    +0.023 A 
ATOM      9  C   UNL     1      -4.891  -1.145   2.907  0.00  0.00    +0.002 A 
ATOM     10  C   UNL     1      -5.479  -0.498   3.979  0.00  0.00    +0.000 A 
ATOM     11  C   UNL     1      -4.761   0.430   4.709  0.00  0.00    +0.006 A 
ATOM     12  C   UNL     1      -3.450   0.710   4.375  0.00  0.00    -0.022 A 
BRANCH  12  13
ATOM     13  C   UNL     1      -2.665   1.717   5.176  0.00  0.00    +0.072 C 
BRANCH  13  14
ATOM     14  C   UNL     1      -2.752   3.066   4.510  0.00  0.00    -0.043 A 
ATOM     15  C   UNL     1      -1.816   3.429   3.560  0.00  0.00    +0.004 A 
ATOM     16  C   UNL     1      -1.895   4.667   2.950  0.00  0.00    +0.000 A 
ATOM     17  C   UNL     1      -2.911   5.541   3.289  0.00  0.00    +0.000 A 
ATOM     18  C   UNL     1      -3.847   5.177   4.238  0.00  0.00    +0.000 A 
ATOM     19  C   UNL     1      -3.771   3.938   4.846  0.00  0.00    +0.004 A 
ENDBRANCH  13  14
ENDBRANCH  12  13
ENDBRANCH   5   7
ENDBRANCH   2   3
BRANCH   2  20
ATOM     20  S   UNL     1       0.772  -0.348  -0.211  0.00  0.00    -0.073 S 
BRANCH  20  21
ATOM     21  C   UNL     1       2.457   0.106  -0.457  0.00  0.00    +0.197 A 
ATOM     22  N   UNL     1       3.169   0.907   0.301  0.00  0.00    -0.122 NA
ATOM     23  N   UNL     1       4.359   1.015  -0.172  0.00  0.00    -0.135 NA
ATOM     24  C   UNL     1       4.479   0.296  -1.253  0.00  0.00    +0.122 A 
ATOM     25  N   UNL     1       3.273  -0.315  -1.471  0.00  0.00    -0.276 N 
BRANCH  25  26
ATOM     26  C   UNL     1       2.943  -1.188  -2.518  0.00  0.00    +0.050 A 
ATOM     27  C   UNL     1       3.530  -2.444  -2.588  0.00  0.00    +0.026 A 
ATOM     28  C   UNL     1       3.203  -3.302  -3.619  0.00  0.00    +0.002 A 
ATOM     29  C   UNL     1       2.291  -2.910  -4.583  0.00  0.00    +0.000 A 
ATOM     30  C   UNL     1       1.705  -1.660  -4.516  0.00  0.00    +0.002 A 
ATOM     31  C   UNL     1       2.024  -0.800  -3.483  0.00  0.00    +0.026 A 
ENDBRANCH  25  26
BRANCH  24  32
ATOM     32  C   UNL     1       5.717   0.159  -2.100  0.00  0.00    -0.001 C 
BRANCH  32  33
ATOM     33  N   UNL     1       5.769   1.257  -3.074  0.00  0.00    +0.384 N 
ATOM     34  C   UNL     1       6.037   2.543  -2.381  0.00  0.00    -0.078 C 
ATOM     35  C   UNL     1       6.609   3.440  -3.508  0.00  0.00    -0.020 C 
ATOM     36  C   UNL     1       7.465   2.453  -4.335  0.00  0.00    -0.020 C 
ATOM     37  C   UNL     1       6.899   1.059  -4.008  0.00  0.00    -0.078 C 
ATOM     38  H   UNL     1       4.901   1.311  -3.585  0.00  0.00    -0.081 HD
ENDBRANCH  32  33
ENDBRANCH  24  32
ENDBRANCH  20  21
ENDBRANCH   2  20
TORSDOF 9
