REMARK  Name = ZINC06443740
REMARK  10 active torsions:
REMARK  status: ('A' for Active; 'I' for Inactive)
REMARK    1  A    between atoms: C_1  and  C_2
REMARK    2  A    between atoms: C_12  and  C_14
REMARK    3  A    between atoms: C_14  and  C_16
REMARK    4  A    between atoms: C_14  and  N_68
REMARK    5  A    between atoms: N_20  and  C_21
REMARK    6  A    between atoms: C_21  and  C_22
REMARK    7  A    between atoms: C_28  and  C_29
REMARK    8  A    between atoms: C_28  and  N_68
REMARK    9  A    between atoms: C_35  and  C_36
REMARK   10  A    between atoms: C_35  and  N_68
REMARK                            x       y       z     vdW  Elec       q    Type
REMARK                         _______ _______ _______ _____ _____    ______ ____
ROOT
ATOM      1  C   UNL     1       7.173   0.117   0.583  0.00  0.00    +0.040 C 
ENDROOT
BRANCH   1  13
ATOM      2  C   UNL     1       3.911   5.631   2.054  0.00  0.00    +0.046 C 
ATOM      3  C   UNL     1       3.424   4.240   1.737  0.00  0.00    -0.026 A 
ATOM      4  C   UNL     1       2.073   3.967   1.726  0.00  0.00    +0.005 A 
ATOM      5  C   UNL     1       1.611   2.690   1.436  0.00  0.00    +0.001 A 
ATOM      6  C   UNL     1       2.488   1.681   1.156  0.00  0.00    +0.010 A 
ATOM      7  C   UNL     1       3.863   1.935   1.161  0.00  0.00    -0.001 A 
ATOM      8  C   UNL     1       4.335   3.228   1.455  0.00  0.00    +0.052 A 
ATOM      9  N   UNL     1       5.692   3.474   1.459  0.00  0.00    -0.322 N 
ATOM     10  H   UNL     1       6.016   4.365   1.662  0.00  0.00    +0.169 HD
ATOM     11  C   UNL     1       6.573   2.495   1.186  0.00  0.00    +0.251 A 
ATOM     12  O   UNL     1       7.765   2.748   1.198  0.00  0.00    -0.268 OA
ATOM     13  C   UNL     1       6.151   1.182   0.885  0.00  0.00    +0.011 A 
ATOM     14  C   UNL     1       4.830   0.876   0.866  0.00  0.00    +0.017 A 
ENDBRANCH   1  13
BRANCH   1  15
ATOM     15  C   UNL     1       7.930   0.486  -0.666  0.00  0.00    +0.143 A 
ATOM     16  N   UNL     1       8.653   1.563  -0.854  0.00  0.00    -0.115 NA
ATOM     17  N   UNL     1       9.137   1.515  -2.047  0.00  0.00    -0.023 NA
ATOM     18  N   UNL     1       8.743   0.434  -2.625  0.00  0.00    -0.044 NA
ATOM     19  N   UNL     1       8.001  -0.230  -1.804  0.00  0.00    -0.228 N 
BRANCH  19  20
ATOM     20  C   UNL     1       7.354  -1.518  -2.063  0.00  0.00    +0.178 C 
BRANCH  20  21
ATOM     21  C   UNL     1       6.016  -1.284  -2.767  0.00  0.00    +0.140 C 
ATOM     22  C   UNL     1       5.274  -2.627  -2.941  0.00  0.00    +0.035 C 
ATOM     23  C   UNL     1       4.650  -2.478  -4.356  0.00  0.00    +0.031 C 
ATOM     24  C   UNL     1       5.742  -1.645  -5.073  0.00  0.00    +0.160 C 
ATOM     25  O   UNL     1       6.242  -0.742  -4.074  0.00  0.00    -0.375 OA
ENDBRANCH  20  21
ENDBRANCH  19  20
ENDBRANCH   1  15
BRANCH   1  26
ATOM     26  N   UNL     1       8.120   0.031   1.715  0.00  0.00    +0.397 N 
ATOM     27  H   UNL     1       8.445   0.976   1.950  0.00  0.00    -0.079 HD
BRANCH  26  28
ATOM     28  C   UNL     1       7.445  -0.552   2.894  0.00  0.00    -0.041 C 
BRANCH  28  29
ATOM     29  C   UNL     1       6.602   0.515   3.544  0.00  0.00    -0.064 A 
ATOM     30  C   UNL     1       7.192   1.678   4.004  0.00  0.00    +0.002 A 
ATOM     31  C   UNL     1       6.418   2.659   4.595  0.00  0.00    +0.000 A 
ATOM     32  C   UNL     1       5.056   2.473   4.736  0.00  0.00    +0.000 A 
ATOM     33  C   UNL     1       4.466   1.308   4.282  0.00  0.00    +0.000 A 
ATOM     34  C   UNL     1       5.240   0.329   3.685  0.00  0.00    +0.002 A 
ENDBRANCH  28  29
ENDBRANCH  26  28
BRANCH  26  35
ATOM     35  C   UNL     1       9.284  -0.798   1.339  0.00  0.00    -0.001 C 
BRANCH  35  36
ATOM     36  C   UNL     1      10.352   0.104   0.776  0.00  0.00    +0.089 A 
ATOM     37  C   UNL     1      11.246   0.808   1.494  0.00  0.00    +0.042 A 
ATOM     38  C   UNL     1      12.054   1.508   0.570  0.00  0.00    +0.041 A 
ATOM     39  C   UNL     1      11.601   1.197  -0.658  0.00  0.00    +0.195 A 
ATOM     40  O   UNL     1      10.570   0.346  -0.527  0.00  0.00    -0.470 OA
ENDBRANCH  35  36
ENDBRANCH  26  35
ENDBRANCH   1  26
TORSDOF 9
