REMARK  Name = ZINC21722912
REMARK  9 active torsions:
REMARK  status: ('A' for Active; 'I' for Inactive)
REMARK    1  A    between atoms: C_1  and  C_2
REMARK    2  A    between atoms: C_2  and  O_3
REMARK    3  A    between atoms: O_3  and  C_4
REMARK    4  A    between atoms: C_4  and  C_5
REMARK    5  A    between atoms: C_5  and  C_6
REMARK    6  A    between atoms: C_6  and  N_7
REMARK    7  A    between atoms: C_20  and  C_22
REMARK    8  A    between atoms: C_30  and  C_32
REMARK    9  A    between atoms: C_30  and  C_33
REMARK                            x       y       z     vdW  Elec       q    Type
REMARK                         _______ _______ _______ _____ _____    ______ ____
ROOT
ATOM      1  N   UNL     1      -1.475  -3.283  -2.804  0.00  0.00    -0.299 N 
ATOM      2  C   UNL     1      -1.731  -2.291  -1.929  0.00  0.00    +0.307 C 
ATOM      3  O   UNL     1      -2.742  -1.625  -2.044  0.00  0.00    -0.252 OA
ATOM      4  N   UNL     1      -0.868  -2.037  -0.925  0.00  0.00    -0.242 N 
ATOM      5  C   UNL     1       0.289  -2.809  -0.804  0.00  0.00    +0.060 A 
ATOM      6  C   UNL     1       1.283  -2.781  -1.769  0.00  0.00    +0.025 A 
ATOM      7  C   UNL     1       2.432  -3.529  -1.584  0.00  0.00    +0.002 A 
ATOM      8  C   UNL     1       2.593  -4.295  -0.444  0.00  0.00    +0.002 A 
ATOM      9  C   UNL     1       1.594  -4.339   0.514  0.00  0.00    +0.025 A 
ATOM     10  C   UNL     1       0.435  -3.608   0.319  0.00  0.00    +0.053 A 
ATOM     11  N   UNL     1      -0.648  -3.691   1.187  0.00  0.00    -0.316 N 
ATOM     12  C   UNL     1      -1.139  -2.655   1.913  0.00  0.00    +0.017 C 
ATOM     13  C   UNL     1      -1.387  -1.430   1.428  0.00  0.00    +0.038 C 
ATOM     14  C   UNL     1      -1.155  -0.969   0.008  0.00  0.00    +0.155 C 
ATOM     15  C   UNL     1      -1.925  -0.425   2.272  0.00  0.00    +0.163 C 
ATOM     16  O   UNL     1      -2.130   0.680   1.810  0.00  0.00    -0.292 OA
ATOM     17  C   UNL     1      -2.250  -0.677   3.714  0.00  0.00    +0.086 C 
ATOM     18  C   UNL     1      -2.581  -2.164   3.888  0.00  0.00    -0.023 C 
ATOM     19  C   UNL     1      -1.387  -2.969   3.379  0.00  0.00    +0.058 C 
ATOM     20  C   UNL     1      -3.829  -2.516   3.075  0.00  0.00    +0.011 C 
ATOM     21  C   UNL     1      -2.821  -2.471   5.368  0.00  0.00    +0.011 C 
ATOM     22  H   UNL     1      -0.560  -3.886  -2.700  0.00  0.00    +0.150 HD
ATOM     23  H   UNL     1      -1.172  -4.649   1.322  0.00  0.00    +0.152 HD
ENDROOT
BRANCH  14  24
ATOM     24  C   UNL     1       0.002  -0.004   0.002  0.00  0.00    +0.015 A 
ATOM     25  C   UNL     1      -0.016   1.351   0.009  0.00  0.00    +0.013 A 
ATOM     26  C   UNL     1       1.183   2.038   0.002  0.00  0.00    +0.008 A 
ATOM     27  C   UNL     1       2.343   1.336  -0.013  0.00  0.00    +0.045 A 
ATOM     28  S   UNL     1       1.754  -0.349  -0.017  0.00  0.00    -0.099 S 
ENDBRANCH  14  24
BRANCH   1  29
ATOM     29  C   UNL     1      -2.413  -3.559  -3.894  0.00  0.00    +0.108 C 
BRANCH  29  30
ATOM     30  C   UNL     1      -1.889  -4.724  -4.736  0.00  0.00    +0.047 C 
BRANCH  30  31
ATOM     31  C   UNL     1      -2.869  -5.012  -5.875  0.00  0.00    +0.161 C 
BRANCH  31  32
ATOM     32  O   UNL     1      -2.380  -6.101  -6.661  0.00  0.00    -0.380 OA
BRANCH  32  34
ATOM     33  C   UNL     1      -2.607  -7.623  -8.524  0.00  0.00    +0.034 C 
ATOM     34  C   UNL     1      -3.226  -6.452  -7.757  0.00  0.00    +0.156 C 
ENDBRANCH  32  34
ENDBRANCH  31  32
ENDBRANCH  30  31
ENDBRANCH  29  30
ENDBRANCH   1  29
TORSDOF 6
