REMARK  Name = ZINC10438921
REMARK  11 active torsions:
REMARK  status: ('A' for Active; 'I' for Inactive)
REMARK    1  A    between atoms: C_1  and  C_2
REMARK    2  A    between atoms: C_3  and  C_9
REMARK    3  A    between atoms: C_4  and  C_8
REMARK    4  A    between atoms: N_5  and  C_7
REMARK    5  A    between atoms: C_10  and  C_11
REMARK    6  A    between atoms: C_11  and  O_13
REMARK    7  A    between atoms: O_13  and  C_14
REMARK    8  A    between atoms: C_14  and  C_16
REMARK    9  A    between atoms: C_14  and  C_22
REMARK   10  A    between atoms: N_24  and  C_25
REMARK   11  A    between atoms: C_28  and  N_32
REMARK                            x       y       z     vdW  Elec       q    Type
REMARK                         _______ _______ _______ _____ _____    ______ ____
ROOT
ATOM      1  C   UNL     1       2.445   0.674   0.068  0.00  0.00    +0.292 C 
ENDROOT
BRANCH   1   2
ATOM      2  C   UNL     1       2.430  -0.093   1.365  0.00  0.00    +0.002 A 
ATOM      3  C   UNL     1       2.825   0.524   2.537  0.00  0.00    +0.008 A 
ATOM      4  C   UNL     1       2.807  -0.179   3.728  0.00  0.00    +0.000 A 
ATOM      5  C   UNL     1       2.404  -1.501   3.744  0.00  0.00    +0.000 A 
ATOM      6  C   UNL     1       2.014  -2.119   2.571  0.00  0.00    +0.000 A 
ATOM      7  C   UNL     1       2.027  -1.415   1.381  0.00  0.00    +0.008 A 
ENDBRANCH   1   2
BRANCH   1   8
ATOM      8  C   UNL     1       1.210   1.534  -0.021  0.00  0.00    +0.263 C 
ATOM      9  O   UNL     1       1.317   2.739  -0.117  0.00  0.00    -0.271 OA
ATOM     10  N   UNL     1      -0.011   0.966   0.007  0.00  0.00    -0.281 N 
ATOM     11  H   UNL     1      -0.096  -0.000   0.019  0.00  0.00    +0.155 HD
BRANCH  10  12
ATOM     12  C   UNL     1      -1.157   1.769   0.014  0.00  0.00    +0.052 A 
ATOM     13  C   UNL     1      -1.171   2.968  -0.687  0.00  0.00    +0.027 A 
ATOM     14  C   UNL     1      -2.303   3.759  -0.679  0.00  0.00    +0.034 A 
ATOM     15  C   UNL     1      -3.423   3.358   0.026  0.00  0.00    +0.128 A 
ATOM     16  C   UNL     1      -3.414   2.166   0.726  0.00  0.00    +0.054 A 
ATOM     17  C   UNL     1      -2.286   1.367   0.717  0.00  0.00    +0.064 A 
ATOM     18 CL   UNL     1      -2.277  -0.134   1.590  0.00  0.00    -0.082 Cl
BRANCH  15  19
ATOM     19  N   UNL     1      -4.635   4.209   0.032  0.00  0.00    +0.056 N 
ATOM     20  O   UNL     1      -4.645   5.259  -0.584  0.00  0.00    -0.126 OA
ATOM     21  O   UNL     1      -5.622   3.857   0.653  0.00  0.00    -0.126 OA
ENDBRANCH  15  19
ENDBRANCH  10  12
ENDBRANCH   1   8
BRANCH   1  22
ATOM     22  O   UNL     1       3.608   1.503   0.017  0.00  0.00    -0.444 OA
BRANCH  22  23
ATOM     23  C   UNL     1       4.720   0.965  -0.525  0.00  0.00    +0.333 C 
ATOM     24  O   UNL     1       4.701  -0.177  -0.945  0.00  0.00    -0.246 OA
BRANCH  23  26
ATOM     25  C   UNL     1       7.023   1.191  -1.151  0.00  0.00    +0.018 C 
ATOM     26  C   UNL     1       5.909   1.730  -0.607  0.00  0.00    +0.092 C 
BRANCH  25  29
ATOM     27  C   UNL     1       7.260   4.131  -2.321  0.00  0.00    +0.068 C 
ATOM     28  C   UNL     1       8.378   3.295  -1.754  0.00  0.00    +0.067 A 
ATOM     29  C   UNL     1       8.256   1.985  -1.236  0.00  0.00    +0.018 A 
ATOM     30  C   UNL     1       9.516   1.593  -0.819  0.00  0.00    +0.043 A 
ATOM     31  N   UNL     1      10.357   2.608  -1.079  0.00  0.00    -0.271 N 
ATOM     32  N   UNL     1       9.628   3.654  -1.655  0.00  0.00    -0.176 NA
ATOM     33  C   UNL     1      11.795   2.619  -0.799  0.00  0.00    +0.172 C 
ATOM     34  C   UNL     1       9.878   0.271  -0.193  0.00  0.00    +0.066 C 
ENDBRANCH  25  29
ENDBRANCH  23  26
ENDBRANCH  22  23
ENDBRANCH   1  22
TORSDOF 8
