REMARK  Name = ZINC36321549
REMARK  5 active torsions:
REMARK  status: ('A' for Active; 'I' for Inactive)
REMARK    1  A    between atoms: C_1  and  C_2
REMARK    2  A    between atoms: C_5  and  N_8
REMARK    3  A    between atoms: C_9  and  C_11
REMARK    4  A    between atoms: C_12  and  C_27
REMARK    5  A    between atoms: C_17  and  C_19
REMARK                            x       y       z     vdW  Elec       q    Type
REMARK                         _______ _______ _______ _____ _____    ______ ____
ROOT
ATOM      1  C   UNL     1      -0.006  -6.274   0.938  0.00  0.00    +0.056 C 
ATOM      2  C   UNL     1      -0.055  -7.065   2.030  0.00  0.00    +0.017 C 
ATOM      3  N   UNL     1      -0.045  -8.426   1.916  0.00  0.00    -0.300 N 
ATOM      4  C   UNL     1       0.014  -9.072   0.745  0.00  0.00    +0.135 C 
ATOM      5  S   UNL     1       0.020 -10.784   0.743  0.00  0.00    -0.019 S 
ATOM      6  N   UNL     1       0.067  -8.419  -0.433  0.00  0.00    -0.315 N 
ATOM      7  C   UNL     1       0.055  -6.947  -0.419  0.00  0.00    +0.139 C 
ATOM      8  C   UNL     1      -0.122  -6.437   3.398  0.00  0.00    +0.061 C 
ATOM      9  H   UNL     1      -0.081  -8.954   2.729  0.00  0.00    +0.154 HD
ATOM     10  H   UNL     1       0.109  -8.907  -1.270  0.00  0.00    +0.149 HD
ENDROOT
BRANCH   7  11
ATOM     11  C   UNL     1      -1.131  -6.479  -1.222  0.00  0.00    -0.021 A 
ATOM     12  C   UNL     1      -2.396  -6.956  -0.930  0.00  0.00    +0.008 A 
ATOM     13  C   UNL     1      -3.484  -6.528  -1.665  0.00  0.00    +0.040 A 
ATOM     14  C   UNL     1      -3.309  -5.621  -2.696  0.00  0.00    +0.137 A 
ATOM     15  C   UNL     1      -2.042  -5.143  -2.989  0.00  0.00    +0.053 A 
ATOM     16  C   UNL     1      -0.955  -5.569  -2.248  0.00  0.00    +0.024 A 
ATOM     17 BR   UNL     1      -1.800  -3.904  -4.397  0.00  0.00    -0.047 Br
ATOM     18  F   UNL     1      -4.372  -5.202  -3.417  0.00  0.00    -0.204 F 
ENDBRANCH   7  11
BRANCH   1  20
ATOM     19  N   UNL     1      -1.179  -4.211   1.252  0.00  0.00    -0.282 N 
ATOM     20  C   UNL     1      -0.016  -4.862   1.055  0.00  0.00    +0.248 C 
ATOM     21  O   UNL     1       1.026  -4.237   0.978  0.00  0.00    -0.270 OA
ATOM     22  H   UNL     1      -1.990  -4.711   1.438  0.00  0.00    +0.155 HD
BRANCH  19  27
ATOM     23  C   UNL     1      -1.338   1.453   1.000  0.00  0.00    +0.044 C 
ATOM     24  C   UNL     1      -1.296  -0.052   1.067  0.00  0.00    -0.050 A 
ATOM     25  C   UNL     1      -2.396  -0.791   0.673  0.00  0.00    +0.005 A 
ATOM     26  C   UNL     1      -2.361  -2.170   0.733  0.00  0.00    +0.023 A 
ATOM     27  C   UNL     1      -1.218  -2.815   1.190  0.00  0.00    +0.034 A 
ATOM     28  C   UNL     1      -0.115  -2.069   1.585  0.00  0.00    +0.023 A 
ATOM     29  C   UNL     1      -0.155  -0.691   1.517  0.00  0.00    +0.005 A 
ENDBRANCH  19  27
ENDBRANCH   1  20
TORSDOF 3
