REMARK  Name = ZINC56744317
REMARK  12 active torsions:
REMARK  status: ('A' for Active; 'I' for Inactive)
REMARK    1  A    between atoms: C_1  and  C_2
REMARK    2  A    between atoms: C_5  and  C_30
REMARK    3  A    between atoms: N_8  and  C_10
REMARK    4  A    between atoms: C_10  and  C_11
REMARK    5  A    between atoms: C_10  and  C_12
REMARK    6  A    between atoms: C_10  and  C_13
REMARK    7  A    between atoms: C_13  and  N_14
REMARK    8  A    between atoms: N_17  and  C_18
REMARK    9  A    between atoms: C_23  and  C_24
REMARK   10  A    between atoms: C_24  and  C_25
REMARK   11  A    between atoms: N_27  and  C_28
REMARK   12  A    between atoms: N_27  and  C_29
REMARK                            x       y       z     vdW  Elec       q    Type
REMARK                         _______ _______ _______ _____ _____    ______ ____
ROOT
ATOM      1  N   UNL     1       2.803  -0.371   2.324  0.00  0.00    -0.300 N 
ATOM      2  C   UNL     1       3.884   0.403   2.103  0.00  0.00    +0.304 C 
ATOM      3  O   UNL     1       4.959  -0.110   1.855  0.00  0.00    -0.253 OA
ATOM      4  N   UNL     1       3.775   1.745   2.157  0.00  0.00    -0.269 N 
ATOM      5  H   UNL     1       1.946   0.038   2.522  0.00  0.00    +0.150 HD
ATOM      6  H   UNL     1       2.905   2.156   2.278  0.00  0.00    +0.156 HD
ENDROOT
BRANCH   4   7
ATOM      7  C   UNL     1       4.917   2.546   2.038  0.00  0.00    +0.038 A 
ATOM      8  C   UNL     1       6.164   2.032   2.366  0.00  0.00    +0.023 A 
ATOM      9  C   UNL     1       7.289   2.824   2.247  0.00  0.00    +0.002 A 
ATOM     10  C   UNL     1       7.174   4.128   1.802  0.00  0.00    +0.000 A 
ATOM     11  C   UNL     1       5.933   4.643   1.475  0.00  0.00    +0.006 A 
ATOM     12  C   UNL     1       4.805   3.854   1.586  0.00  0.00    -0.017 A 
BRANCH  12  13
ATOM     13  C   UNL     1       3.454   4.414   1.223  0.00  0.00    +0.133 C 
BRANCH  13  14
ATOM     14  C   UNL     1       2.778   4.938   2.464  0.00  0.00    +0.219 C 
ATOM     15  O   UNL     1       3.338   4.864   3.537  0.00  0.00    -0.275 OA
ATOM     16  N   UNL     1       1.550   5.489   2.381  0.00  0.00    -0.307 N 
ATOM     17  C   UNL     1       0.893   5.998   3.587  0.00  0.00    +0.131 C 
ATOM     18  C   UNL     1       0.874   5.578   1.085  0.00  0.00    +0.131 C 
ENDBRANCH  13  14
ENDBRANCH  12  13
ENDBRANCH   4   7
BRANCH   1  19
ATOM     19  C   UNL     1       2.922  -1.830   2.265  0.00  0.00    +0.093 C 
BRANCH  19  20
ATOM     20  C   UNL     1       1.539  -2.461   2.431  0.00  0.00    -0.055 C 
ATOM     21  C   UNL     1       1.674  -3.985   2.462  0.00  0.00    -0.008 C 
ATOM     22  C   UNL     1       0.647  -2.052   1.257  0.00  0.00    -0.008 C 
BRANCH  20  28
ATOM     23  C   UNL     1       2.010  -2.417   7.304  0.00  0.00    +0.005 C 
ATOM     24  C   UNL     1       1.167  -1.922   6.127  0.00  0.00    -0.031 C 
ATOM     25  C   UNL     1      -0.274  -2.413   6.287  0.00  0.00    +0.003 C 
ATOM     26  C   UNL     1      -1.090  -1.979   5.066  0.00  0.00    -0.031 C 
ATOM     27  C   UNL     1      -0.429  -2.524   3.798  0.00  0.00    -0.075 C 
ATOM     28  N   UNL     1       0.936  -1.998   3.688  0.00  0.00    +0.384 N 
ATOM     29  C   UNL     1       1.745  -2.469   4.819  0.00  0.00    -0.075 C 
ATOM     30  C   UNL     1      -1.139  -0.451   5.001  0.00  0.00    +0.005 C 
ATOM     31  H   UNL     1       0.908  -0.989   3.694  0.00  0.00    -0.081 HD
ENDBRANCH  20  28
ENDBRANCH  19  20
ENDBRANCH   1  19
TORSDOF 6
