REMARK  Name = ZINC01419054
REMARK  8 active torsions:
REMARK  status: ('A' for Active; 'I' for Inactive)
REMARK    1  A    between atoms: N_9  and  C_10
REMARK    2  A    between atoms: C_10  and  C_11
REMARK    3  A    between atoms: N_13  and  C_14
REMARK    4  A    between atoms: N_13  and  C_21
REMARK    5  A    between atoms: C_14  and  C_15
REMARK    6  A    between atoms: C_21  and  C_23
REMARK    7  A    between atoms: C_21  and  C_30
REMARK    8  A    between atoms: N_32  and  C_33
REMARK                            x       y       z     vdW  Elec       q    Type
REMARK                         _______ _______ _______ _____ _____    ______ ____
ROOT
ATOM      1  C   UNL     1       2.917  -4.249   0.031  0.00  0.00    +0.238 C 
ATOM      2  O   UNL     1       2.736  -4.222  -1.168  0.00  0.00    -0.274 OA
ATOM      3  N   UNL     1       2.289  -3.361   0.828  0.00  0.00    -0.284 N 
ENDROOT
BRANCH   1   4
ATOM      4  C   UNL     1       3.844  -5.275   0.630  0.00  0.00    +0.241 C 
BRANCH   4  13
ATOM      5  C   UNL     1       3.521  -9.544  -2.437  0.00  0.00    +0.002 A 
ATOM      6  C   UNL     1       2.618  -9.153  -1.456  0.00  0.00    +0.002 A 
ATOM      7  C   UNL     1       2.829  -8.014  -0.731  0.00  0.00    +0.029 A 
ATOM      8  C   UNL     1       3.957  -7.238  -0.976  0.00  0.00    +0.090 A 
ATOM      9  C   UNL     1       4.873  -7.627  -1.969  0.00  0.00    +0.113 A 
ATOM     10  C   UNL     1       4.630  -8.797  -2.701  0.00  0.00    +0.032 A 
ATOM     11  N   UNL     1       5.863  -6.712  -1.993  0.00  0.00    -0.129 NA
ATOM     12  N   UNL     1       5.646  -5.796  -1.117  0.00  0.00    -0.064 NA
ATOM     13  N   UNL     1       4.449  -6.071  -0.441  0.00  0.00    -0.235 N 
ENDBRANCH   4  13
ENDBRANCH   1   4
BRANCH   3  14
ATOM     14  C   UNL     1       2.572  -3.338   2.265  0.00  0.00    +0.145 C 
BRANCH  14  15
ATOM     15  C   UNL     1       3.624  -2.297   2.553  0.00  0.00    -0.012 A 
ATOM     16  C   UNL     1       3.276  -1.093   3.147  0.00  0.00    +0.008 A 
ATOM     17  C   UNL     1       4.276  -0.166   3.393  0.00  0.00    +0.020 A 
ATOM     18  C   UNL     1       5.577  -0.469   3.040  0.00  0.00    +0.111 A 
ATOM     19  N   UNL     1       5.872  -1.624   2.477  0.00  0.00    -0.263 NA
ATOM     20  C   UNL     1       4.947  -2.533   2.233  0.00  0.00    +0.115 A 
ENDBRANCH  14  15
ENDBRANCH   3  14
BRANCH   3  21
ATOM     21  C   UNL     1       1.323  -2.420   0.257  0.00  0.00    +0.166 C 
BRANCH  21  22
ATOM     22  C   UNL     1       1.697  -0.994   0.665  0.00  0.00    +0.023 C 
ATOM     23  C   UNL     1       0.715  -0.001   0.031  0.00  0.00    +0.010 C 
ATOM     24  C   UNL     1       1.002   1.392   0.596  0.00  0.00    +0.027 C 
ATOM     25  C   UNL     1       2.469   1.694   0.504  0.00  0.00    -0.031 C 
ATOM     26  C   UNL     1       3.384   0.798   0.319  0.00  0.00    -0.031 C 
ATOM     27  C   UNL     1       3.106  -0.668   0.162  0.00  0.00    +0.032 C 
ENDBRANCH  21  22
BRANCH  21  28
ATOM     28  C   UNL     1      -0.057  -2.743   0.769  0.00  0.00    +0.238 C 
ATOM     29  O   UNL     1      -0.191  -3.326   1.825  0.00  0.00    -0.273 OA
ATOM     30  N   UNL     1      -1.143  -2.385   0.056  0.00  0.00    -0.284 N 
ATOM     31  H   UNL     1      -1.038  -1.874  -0.762  0.00  0.00    +0.155 HD
BRANCH  30  32
ATOM     32  C   UNL     1      -2.422  -2.749   0.495  0.00  0.00    +0.037 A 
ATOM     33  C   UNL     1      -2.696  -2.818   1.855  0.00  0.00    +0.027 A 
ATOM     34  C   UNL     1      -3.957  -3.178   2.289  0.00  0.00    +0.051 A 
ATOM     35  C   UNL     1      -4.952  -3.471   1.371  0.00  0.00    +0.166 A 
ATOM     36  C   UNL     1      -4.680  -3.404   0.006  0.00  0.00    +0.168 A 
ATOM     37  C   UNL     1      -3.417  -3.037  -0.429  0.00  0.00    +0.072 A 
ATOM     38  O   UNL     1      -5.812  -3.735  -0.681  0.00  0.00    -0.453 OA
ATOM     39  C   UNL     1      -6.660  -4.401   0.273  0.00  0.00    +0.466 C 
ATOM     40  O   UNL     1      -6.255  -3.845   1.538  0.00  0.00    -0.453 OA
ENDBRANCH  30  32
ENDBRANCH  21  28
ENDBRANCH   3  21
TORSDOF 8
