REMARK  Name = ZINC36187129
REMARK  12 active torsions:
REMARK  status: ('A' for Active; 'I' for Inactive)
REMARK    1  A    between atoms: C_1  and  C_2
REMARK    2  A    between atoms: C_2  and  O_3
REMARK    3  A    between atoms: O_3  and  C_4
REMARK    4  A    between atoms: C_11  and  C_18
REMARK    5  A    between atoms: C_13  and  O_14
REMARK    6  A    between atoms: C_18  and  O_19
REMARK    7  A    between atoms: O_19  and  C_20
REMARK    8  A    between atoms: C_20  and  C_22
REMARK    9  A    between atoms: C_22  and  C_24
REMARK   10  A    between atoms: C_22  and  O_25
REMARK   11  A    between atoms: O_25  and  C_26
REMARK   12  A    between atoms: C_31  and  C_32
REMARK                            x       y       z     vdW  Elec       q    Type
REMARK                         _______ _______ _______ _____ _____    ______ ____
ROOT
ATOM      1  C   UNL     1       0.820  -1.496  -1.596  0.00  0.00    +0.405 C 
ATOM      2  O   UNL     1       0.819  -2.207  -0.605  0.00  0.00    -0.226 OA
ATOM      3  N   UNL     1       1.201  -1.989  -2.766  0.00  0.00    -0.251 N 
ATOM      4  C   UNL     1       1.442  -3.321  -2.896  0.00  0.00    +0.040 A 
ATOM      5  C   UNL     1       2.174  -3.795  -4.000  0.00  0.00    +0.024 A 
ATOM      6  C   UNL     1       2.421  -5.123  -4.141  0.00  0.00    +0.014 A 
ATOM      7  C   UNL     1       1.945  -6.032  -3.179  0.00  0.00    +0.024 A 
ATOM      8  C   UNL     1       2.192  -7.414  -3.308  0.00  0.00    +0.007 A 
ATOM      9  C   UNL     1       1.703  -8.265  -2.335  0.00  0.00    +0.095 A 
ATOM     10  C   UNL     1       0.987  -7.752  -1.264  0.00  0.00    +0.285 A 
ATOM     11  O   UNL     1       0.755  -6.440  -1.146  0.00  0.00    -0.425 OA
ATOM     12  C   UNL     1       1.210  -5.565  -2.066  0.00  0.00    +0.141 A 
ATOM     13  C   UNL     1       0.968  -4.210  -1.929  0.00  0.00    +0.070 A 
ATOM     14  H   UNL     1       1.309  -1.400  -3.529  0.00  0.00    +0.158 HD
ENDROOT
BRANCH  10  15
ATOM     15  O   UNL     1       0.517  -8.592  -0.323  0.00  0.00    -0.480 OA
ATOM     16  H   UNL     1       0.030  -8.154   0.388  0.00  0.00    +0.295 HD
ENDBRANCH  10  15
BRANCH   1  17
ATOM     17  O   UNL     1       0.431  -0.204  -1.501  0.00  0.00    -0.450 OA
BRANCH  17  19
ATOM     18  C   UNL     1      -0.369   1.734  -0.300  0.00  0.00    +0.048 C 
ATOM     19  C   UNL     1       0.033   0.260  -0.210  0.00  0.00    +0.230 C 
ENDBRANCH  17  19
ENDBRANCH   1  17
BRANCH   8  20
ATOM     20  C   UNL     1       2.972  -7.952  -4.480  0.00  0.00    +0.268 C 
BRANCH  20  21
ATOM     21  O   UNL     1       2.155  -8.863  -5.218  0.00  0.00    -0.457 OA
BRANCH  21  22
ATOM     22  C   UNL     1       2.704  -9.434  -6.301  0.00  0.00    +0.348 C 
ATOM     23  O   UNL     1       3.841  -9.169  -6.612  0.00  0.00    -0.247 OA
BRANCH  22  24
ATOM     24  C   UNL     1       1.903 -10.405  -7.129  0.00  0.00    +0.278 C 
ATOM     25  C   UNL     1       0.724  -9.674  -7.775  0.00  0.00    +0.064 C 
BRANCH  24  26
ATOM     26  O   UNL     1       2.735 -10.961  -8.149  0.00  0.00    -0.478 OA
BRANCH  26  27
ATOM     27  C   UNL     1       2.417 -12.205  -8.595  0.00  0.00    +0.125 A 
ATOM     28  C   UNL     1       1.265 -12.832  -8.142  0.00  0.00    +0.047 A 
ATOM     29  C   UNL     1       0.944 -14.096  -8.596  0.00  0.00    +0.023 A 
ATOM     30  C   UNL     1       1.769 -14.737  -9.503  0.00  0.00    +0.041 A 
ATOM     31  C   UNL     1       2.918 -14.114  -9.956  0.00  0.00    +0.027 A 
ATOM     32  C   UNL     1       3.240 -12.847  -9.509  0.00  0.00    -0.007 A 
ATOM     33  C   UNL     1       4.487 -12.165 -10.009  0.00  0.00    +0.047 C 
ATOM     34 CL   UNL     1       1.363 -16.326 -10.072  0.00  0.00    -0.084 Cl
ENDBRANCH  26  27
ENDBRANCH  24  26
ENDBRANCH  22  24
ENDBRANCH  21  22
ENDBRANCH  20  21
ENDBRANCH   8  20
TORSDOF 9
