REMARK  Name = ZINC13064553
REMARK  13 active torsions:
REMARK  status: ('A' for Active; 'I' for Inactive)
REMARK    1  A    between atoms: C_1  and  C_2
REMARK    2  A    between atoms: C_2  and  C_3
REMARK    3  A    between atoms: C_3  and  C_5
REMARK    4  A    between atoms: C_3  and  N_71
REMARK    5  A    between atoms: N_9  and  C_10
REMARK    6  A    between atoms: C_10  and  C_11
REMARK    7  A    between atoms: C_10  and  C_12
REMARK    8  A    between atoms: C_10  and  C_13
REMARK    9  A    between atoms: C_14  and  C_15
REMARK   10  A    between atoms: C_14  and  N_71
REMARK   11  A    between atoms: C_19  and  C_28
REMARK   12  A    between atoms: C_20  and  C_27
REMARK   13  A    between atoms: C_29  and  N_71
REMARK                            x       y       z     vdW  Elec       q    Type
REMARK                         _______ _______ _______ _____ _____    ______ ____
ROOT
ATOM      1  N   UNL     1       1.655   1.193   2.584  0.00  0.00    +0.391 N 
ATOM      2  H   UNL     1       2.198   0.997   3.433  0.00  0.00    -0.080 HD
ENDROOT
BRANCH   1   3
ATOM      3  C   UNL     1       1.784   2.627   2.251  0.00  0.00    -0.067 C 
ATOM      4  C   UNL     1       1.458   3.454   3.497  0.00  0.00    -0.015 C 
ATOM      5  C   UNL     1       1.608   4.942   3.175  0.00  0.00    -0.002 C 
ATOM      6  C   UNL     1       0.648   5.320   2.046  0.00  0.00    -0.000 C 
ATOM      7  C   UNL     1       0.974   4.493   0.801  0.00  0.00    -0.002 C 
ATOM      8  C   UNL     1       0.824   3.005   1.122  0.00  0.00    -0.015 C 
ENDBRANCH   1   3
BRANCH   1   9
ATOM      9  C   UNL     1       0.237   0.858   2.833  0.00  0.00    +0.003 C 
BRANCH   9  10
ATOM     10  C   UNL     1      -0.513   0.736   1.531  0.00  0.00    +0.139 A 
ATOM     11  N   UNL     1      -0.060   0.226   0.412  0.00  0.00    -0.115 NA
ATOM     12  N   UNL     1      -0.998   0.300  -0.468  0.00  0.00    -0.023 NA
ATOM     13  N   UNL     1      -2.035   0.852   0.059  0.00  0.00    -0.043 NA
ATOM     14  N   UNL     1      -1.776   1.135   1.290  0.00  0.00    -0.226 N 
BRANCH  14  15
ATOM     15  C   UNL     1      -2.684   1.771   2.247  0.00  0.00    +0.059 C 
ATOM     16  C   UNL     1      -2.145   3.152   2.623  0.00  0.00    +0.036 C 
ATOM     17  C   UNL     1      -4.069   1.920   1.614  0.00  0.00    +0.036 C 
ATOM     18  C   UNL     1      -2.789   0.905   3.504  0.00  0.00    +0.036 C 
ENDBRANCH  14  15
ENDBRANCH   9  10
BRANCH   9  20
ATOM     19  C   UNL     1       0.815  -0.310   4.964  0.00  0.00    +0.002 C 
ATOM     20  C   UNL     1       0.172  -0.472   3.586  0.00  0.00    -0.011 C 
ENDBRANCH   9  20
ENDBRANCH   1   9
BRANCH   1  21
ATOM     21  C   UNL     1       2.181   0.368   1.476  0.00  0.00    -0.036 C 
BRANCH  21  22
ATOM     22  C   UNL     1       3.687   0.415   1.512  0.00  0.00    +0.001 A 
ATOM     23  C   UNL     1       4.377  -0.543   2.181  0.00  0.00    +0.017 A 
ATOM     24  C   UNL     1       5.839  -0.473   2.192  0.00  0.00    -0.001 A 
ATOM     25  C   UNL     1       6.605  -1.435   2.858  0.00  0.00    +0.013 A 
ATOM     26  C   UNL     1       7.967  -1.339   2.854  0.00  0.00    -0.047 A 
ATOM     27  C   UNL     1       8.599  -0.294   2.194  0.00  0.00    -0.046 A 
ATOM     28  C   UNL     1       7.865   0.666   1.531  0.00  0.00    +0.030 A 
ATOM     29  C   UNL     1       6.476   0.588   1.522  0.00  0.00    +0.049 A 
ATOM     30  N   UNL     1       5.717   1.534   0.866  0.00  0.00    -0.322 N 
ATOM     31  H   UNL     1       6.158   2.264   0.404  0.00  0.00    +0.169 HD
ATOM     32  C   UNL     1       4.375   1.458   0.856  0.00  0.00    +0.251 A 
ATOM     33  O   UNL     1       3.736   2.312   0.266  0.00  0.00    -0.268 OA
ATOM     34  C   UNL     1      10.104  -0.208   2.202  0.00  0.00    +0.044 C 
ATOM     35  C   UNL     1       8.792  -2.376   3.572  0.00  0.00    +0.044 C 
ENDBRANCH  21  22
ENDBRANCH   1  21
TORSDOF 7
