REMARK  Name = ZINC14638908
REMARK  9 active torsions:
REMARK  status: ('A' for Active; 'I' for Inactive)
REMARK    1  A    between atoms: C_4  and  C_7
REMARK    2  A    between atoms: C_7  and  N_8
REMARK    3  A    between atoms: C_9  and  C_31
REMARK    4  A    between atoms: C_12  and  S_13
REMARK    5  A    between atoms: S_13  and  C_14
REMARK    6  A    between atoms: C_14  and  C_15
REMARK    7  A    between atoms: N_17  and  C_18
REMARK    8  A    between atoms: C_18  and  C_19
REMARK    9  A    between atoms: C_19  and  N_25
REMARK                            x       y       z     vdW  Elec       q    Type
REMARK                         _______ _______ _______ _____ _____    ______ ____
ROOT
ATOM      1  S   UNL     1       2.155  -2.843   2.592  0.00  0.00    -0.077 S 
ENDROOT
BRANCH   1   6
ATOM      2  N   UNL     1       3.073  -0.202   2.710  0.00  0.00    -0.295 N 
ATOM      3  C   UNL     1       3.820   0.550   3.590  0.00  0.00    +0.201 A 
ATOM      4  N   UNL     1       4.147  -0.239   4.590  0.00  0.00    -0.125 NA
ATOM      5  N   UNL     1       3.664  -1.414   4.397  0.00  0.00    -0.122 NA
ATOM      6  C   UNL     1       2.995  -1.448   3.267  0.00  0.00    +0.193 A 
BRANCH   3   7
ATOM      7  C   UNL     1       4.182   1.968   3.440  0.00  0.00    +0.172 A 
ATOM      8  C   UNL     1       4.669   2.778   4.422  0.00  0.00    +0.053 A 
ATOM      9  C   UNL     1       4.875   4.043   3.839  0.00  0.00    +0.042 A 
ATOM     10  C   UNL     1       4.508   3.947   2.546  0.00  0.00    +0.196 A 
ATOM     11  O   UNL     1       4.095   2.692   2.307  0.00  0.00    -0.460 OA
ENDBRANCH   3   7
BRANCH   2  12
ATOM     12  C   UNL     1       2.482   0.242   1.446  0.00  0.00    +0.161 C 
BRANCH  12  16
ATOM     13  C   UNL     1      -1.449   1.753   2.162  0.00  0.00    +0.000 A 
ATOM     14  C   UNL     1      -0.360   2.603   2.220  0.00  0.00    +0.000 A 
ATOM     15  C   UNL     1       0.912   2.114   1.988  0.00  0.00    +0.005 A 
ATOM     16  C   UNL     1       1.095   0.775   1.699  0.00  0.00    -0.028 A 
ATOM     17  C   UNL     1       0.007  -0.075   1.642  0.00  0.00    +0.005 A 
ATOM     18  C   UNL     1      -1.265   0.414   1.873  0.00  0.00    +0.000 A 
ENDBRANCH  12  16
ENDBRANCH   2  12
ENDBRANCH   1   6
BRANCH   1  19
ATOM     19  C   UNL     1       2.438  -4.157   3.809  0.00  0.00    +0.173 C 
BRANCH  19  20
ATOM     20  C   UNL     1       1.763  -5.423   3.348  0.00  0.00    +0.223 C 
ATOM     21  O   UNL     1       1.151  -5.437   2.301  0.00  0.00    -0.275 OA
ATOM     22  N   UNL     1       1.839  -6.540   4.099  0.00  0.00    -0.313 N 
ATOM     23  H   UNL     1       2.328  -6.528   4.936  0.00  0.00    +0.149 HD
BRANCH  22  24
ATOM     24  C   UNL     1       1.183  -7.770   3.651  0.00  0.00    +0.126 C 
BRANCH  24  25
ATOM     25  C   UNL     1       1.313  -8.842   4.734  0.00  0.00    +0.038 C 
ATOM     26  C   UNL     1       0.747 -10.165   4.215  0.00  0.00    +0.024 C 
ATOM     27  C   UNL     1      -0.729  -9.981   3.854  0.00  0.00    +0.002 C 
ATOM     28  C   UNL     1      -1.507  -9.546   5.098  0.00  0.00    +0.000 C 
ATOM     29  C   UNL     1      -0.940  -8.224   5.618  0.00  0.00    +0.002 C 
ATOM     30  C   UNL     1       0.535  -8.408   5.978  0.00  0.00    +0.024 C 
BRANCH  25  31
ATOM     31  N   UNL     1       2.730  -9.018   5.080  0.00  0.00    -0.291 NA
ATOM     32  C   UNL     1       3.520  -9.385   3.895  0.00  0.00    +0.113 C 
ATOM     33  C   UNL     1       4.995  -9.500   4.288  0.00  0.00    +0.175 C 
ATOM     34  O   UNL     1       5.129 -10.455   5.344  0.00  0.00    -0.377 OA
ATOM     35  C   UNL     1       4.374 -10.129   6.514  0.00  0.00    +0.175 C 
ATOM     36  C   UNL     1       2.892 -10.020   6.144  0.00  0.00    +0.113 C 
ENDBRANCH  25  31
ENDBRANCH  24  25
ENDBRANCH  22  24
ENDBRANCH  19  20
ENDBRANCH   1  19
TORSDOF 9
