REMARK  Name = ZINC67262937
REMARK  6 active torsions:
REMARK  status: ('A' for Active; 'I' for Inactive)
REMARK    1  A    between atoms: C_1  and  C_2
REMARK    2  A    between atoms: C_5  and  C_9
REMARK    3  A    between atoms: C_10  and  C_11
REMARK    4  A    between atoms: N_13  and  C_14
REMARK    5  A    between atoms: C_17  and  C_20
REMARK    6  A    between atoms: C_20  and  N_21
REMARK                            x       y       z     vdW  Elec       q    Type
REMARK                         _______ _______ _______ _____ _____    ______ ____
ROOT
ATOM      1  C   UNL     1       0.091  -6.391   1.132  0.00  0.00    +0.241 C 
ATOM      2  O   UNL     1       0.085  -6.993   0.074  0.00  0.00    -0.270 OA
ATOM      3  N   UNL     1       0.108  -7.072   2.295  0.00  0.00    -0.282 N 
ATOM      4  H   UNL     1       0.180  -6.595   3.135  0.00  0.00    +0.155 HD
ENDROOT
BRANCH   3   5
ATOM      5  C   UNL     1       0.021  -8.468   2.289  0.00  0.00    +0.034 A 
ATOM      6  C   UNL     1      -0.667  -9.127   3.300  0.00  0.00    +0.023 A 
ATOM      7  C   UNL     1      -0.751 -10.505   3.291  0.00  0.00    +0.007 A 
ATOM      8  C   UNL     1      -0.151 -11.229   2.277  0.00  0.00    -0.030 A 
ATOM      9  C   UNL     1       0.534 -10.577   1.269  0.00  0.00    +0.007 A 
ATOM     10  C   UNL     1       0.617  -9.198   1.269  0.00  0.00    +0.023 A 
BRANCH   8  11
ATOM     11  C   UNL     1      -0.245 -12.734   2.271  0.00  0.00    +0.141 C 
BRANCH  11  12
ATOM     12  N   UNL     1      -1.438 -13.146   1.528  0.00  0.00    -0.295 N 
ATOM     13  C   UNL     1      -1.728 -14.455   1.391  0.00  0.00    +0.297 C 
ATOM     14  O   UNL     1      -0.998 -15.294   1.883  0.00  0.00    -0.253 OA
ATOM     15  N   UNL     1      -2.825 -14.834   0.707  0.00  0.00    -0.313 N 
ATOM     16  H   UNL     1      -2.020 -12.477   1.135  0.00  0.00    +0.151 HD
ATOM     17  H   UNL     1      -3.407 -14.165   0.314  0.00  0.00    +0.146 HD
ATOM     18  H   UNL     1      -3.034 -15.776   0.608  0.00  0.00    +0.146 HD
ENDBRANCH  11  12
ENDBRANCH   8  11
ENDBRANCH   3   5
BRANCH   1  20
ATOM     19  C   UNL     1       0.064  -4.246  -0.022  0.00  0.00    +0.013 C 
ATOM     20  C   UNL     1       0.080  -4.928   1.141  0.00  0.00    +0.068 C 
BRANCH  19  25
ATOM     21  C   UNL     1       0.019   1.504   0.011  0.00  0.00    +0.045 C 
ATOM     22  C   UNL     1       0.031  -0.004   0.003  0.00  0.00    -0.032 A 
ATOM     23  C   UNL     1       0.025  -0.685  -1.202  0.00  0.00    +0.005 A 
ATOM     24  C   UNL     1       0.035  -2.064  -1.218  0.00  0.00    +0.008 A 
ATOM     25  C   UNL     1       0.053  -2.774  -0.013  0.00  0.00    -0.023 A 
ATOM     26  C   UNL     1       0.059  -2.079   1.200  0.00  0.00    +0.028 A 
ATOM     27  C   UNL     1       0.054  -0.699   1.200  0.00  0.00    +0.044 A 
ATOM     28 CL   UNL     1       0.069   0.167   2.705  0.00  0.00    -0.083 Cl
ENDBRANCH  19  25
ENDBRANCH   1  20
TORSDOF 5
