REMARK  Name = ZINC59520400
REMARK  12 active torsions:
REMARK  status: ('A' for Active; 'I' for Inactive)
REMARK    1  A    between atoms: C_3  and  C_33
REMARK    2  A    between atoms: C_4  and  N_25
REMARK    3  A    between atoms: C_6  and  C_7
REMARK    4  A    between atoms: C_7  and  C_8
REMARK    5  A    between atoms: C_11  and  C_22
REMARK    6  A    between atoms: C_12  and  N_14
REMARK    7  A    between atoms: C_15  and  C_17
REMARK    8  A    between atoms: C_17  and  C_18
REMARK    9  A    between atoms: C_18  and  C_19
REMARK   10  A    between atoms: C_26  and  C_28
REMARK   11  A    between atoms: C_28  and  C_29
REMARK   12  A    between atoms: C_29  and  C_30
REMARK                            x       y       z     vdW  Elec       q    Type
REMARK                         _______ _______ _______ _____ _____    ______ ____
ROOT
ATOM      1  C   UNL     1      -1.788  -0.177  -0.438  0.00  0.00    +0.070 C 
ENDROOT
BRANCH   1   7
ATOM      2  C   UNL     1      -0.853   2.144  -0.402  0.00  0.00    +0.005 A 
ATOM      3  C   UNL     1       0.203   3.028  -0.385  0.00  0.00    +0.017 A 
ATOM      4  C   UNL     1       1.516   2.546  -0.386  0.00  0.00    +0.084 A 
ATOM      5  C   UNL     1       1.745   1.160  -0.404  0.00  0.00    +0.048 A 
ATOM      6  C   UNL     1       0.667   0.286  -0.421  0.00  0.00    +0.028 A 
ATOM      7  C   UNL     1      -0.623   0.778  -0.420  0.00  0.00    -0.041 A 
BRANCH   5   8
ATOM      8  N   UNL     1       3.046   0.667  -0.405  0.00  0.00    -0.285 N 
ATOM      9  C   UNL     1       3.302  -0.559   0.093  0.00  0.00    +0.218 C 
ATOM     10  O   UNL     1       2.390  -1.262   0.473  0.00  0.00    -0.275 OA
ATOM     11  H   UNL     1       3.769   1.205  -0.764  0.00  0.00    +0.155 HD
BRANCH   9  12
ATOM     12  C   UNL     1       4.722  -1.057   0.176  0.00  0.00    +0.107 C 
BRANCH  12  13
ATOM     13  C   UNL     1       4.734  -2.466   0.773  0.00  0.00    +0.134 C 
BRANCH  13  14
ATOM     14  C   UNL     1       6.154  -2.964   0.857  0.00  0.00    +0.356 C 
ATOM     15  O   UNL     1       7.072  -2.258   0.474  0.00  0.00    -0.246 OA
ATOM     16  O   UNL     1       6.386  -4.073   1.307  0.00  0.00    -0.246 OA
ENDBRANCH  13  14
ENDBRANCH  12  13
ENDBRANCH   9  12
ENDBRANCH   5   8
BRANCH   4  17
ATOM     17  C   UNL     1       2.650   3.484  -0.368  0.00  0.00    +0.388 C 
ATOM     18  O   UNL     1       2.449   4.688  -0.454  0.00  0.00    -0.241 OA
ATOM     19  O   UNL     1       3.793   3.060  -0.269  0.00  0.00    -0.241 OA
ENDBRANCH   4  17
ENDBRANCH   1   7
BRANCH   1  20
ATOM     20  C   UNL     1      -2.170  -0.476  -1.865  0.00  0.00    -0.041 A 
ATOM     21  C   UNL     1      -3.103   0.321  -2.509  0.00  0.00    +0.005 A 
ATOM     22  C   UNL     1      -3.460   0.058  -3.813  0.00  0.00    +0.017 A 
ATOM     23  C   UNL     1      -2.880  -1.018  -4.493  0.00  0.00    +0.084 A 
ATOM     24  C   UNL     1      -1.935  -1.823  -3.836  0.00  0.00    +0.048 A 
ATOM     25  C   UNL     1      -1.584  -1.539  -2.523  0.00  0.00    +0.028 A 
BRANCH  24  26
ATOM     26  N   UNL     1      -1.350  -2.897  -4.500  0.00  0.00    -0.285 N 
ATOM     27  C   UNL     1      -0.865  -3.940  -3.798  0.00  0.00    +0.218 C 
ATOM     28  O   UNL     1      -1.035  -3.995  -2.598  0.00  0.00    -0.275 OA
ATOM     29  H   UNL     1      -1.290  -2.895  -5.468  0.00  0.00    +0.155 HD
BRANCH  27  30
ATOM     30  C   UNL     1      -0.113  -5.039  -4.503  0.00  0.00    +0.107 C 
BRANCH  30  31
ATOM     31  C   UNL     1       0.324  -6.093  -3.484  0.00  0.00    +0.134 C 
BRANCH  31  32
ATOM     32  C   UNL     1       1.076  -7.192  -4.189  0.00  0.00    +0.356 C 
ATOM     33  O   UNL     1       1.247  -7.138  -5.395  0.00  0.00    -0.246 OA
ATOM     34  O   UNL     1       1.514  -8.136  -3.554  0.00  0.00    -0.246 OA
ENDBRANCH  31  32
ENDBRANCH  30  31
ENDBRANCH  27  30
ENDBRANCH  24  26
BRANCH  23  35
ATOM     35  C   UNL     1      -3.257  -1.304  -5.886  0.00  0.00    +0.388 C 
ATOM     36  O   UNL     1      -4.005  -0.544  -6.486  0.00  0.00    -0.241 OA
ATOM     37  O   UNL     1      -2.824  -2.303  -6.444  0.00  0.00    -0.241 OA
ENDBRANCH  23  35
ENDBRANCH   1  20
TORSDOF 12
