REMARK  Name = ZINC11905074
REMARK  8 active torsions:
REMARK  status: ('A' for Active; 'I' for Inactive)
REMARK    1  A    between atoms: C_1  and  C_2
REMARK    2  A    between atoms: C_5  and  N_9
REMARK    3  A    between atoms: C_7  and  C_8
REMARK    4  A    between atoms: C_22  and  C_23
REMARK    5  A    between atoms: C_22  and  N_59
REMARK    6  A    between atoms: C_23  and  C_24
REMARK    7  A    between atoms: C_27  and  S_30
REMARK    8  A    between atoms: S_30  and  N_33
REMARK                            x       y       z     vdW  Elec       q    Type
REMARK                         _______ _______ _______ _____ _____    ______ ____
ROOT
ATOM      1  N   UNL     1       0.770  -0.283   2.325  0.00  0.00    -0.270 N 
ATOM      2  C   UNL     1       1.137  -0.432   0.922  0.00  0.00    +0.090 C 
ATOM      3  C   UNL     1       2.413   0.406   0.662  0.00  0.00    +0.187 C 
ATOM      4  S   UNL     1       1.732   2.006   0.064  0.00  0.00    -0.031 S 
ATOM      5  O   UNL     1       2.159   2.218  -1.275  0.00  0.00    -0.174 OA
ATOM      6  O   UNL     1       1.975   3.007   1.043  0.00  0.00    -0.174 OA
ATOM      7  C   UNL     1      -0.064   1.593   0.062  0.00  0.00    +0.152 C 
ATOM      8  C   UNL     1       0.001   0.042   0.009  0.00  0.00    -0.024 C 
ATOM      9  C   UNL     1      -1.632   0.097   1.788  0.00  0.00    +0.020 C 
ATOM     10  C   UNL     1      -0.479  -0.054   2.741  0.00  0.00    +0.203 C 
ATOM     11  O   UNL     1      -0.691   0.036   3.932  0.00  0.00    -0.277 OA
ATOM     12  N   UNL     1      -1.273  -0.524   0.484  0.00  0.00    +0.390 N 
ATOM     13  H   UNL     1      -1.164  -1.537   0.613  0.00  0.00    -0.081 HD
ENDROOT
BRANCH   1  18
ATOM     14  C   UNL     1       4.865  -0.700   6.229  0.00  0.00    +0.044 C 
ATOM     15  C   UNL     1       3.777  -0.589   5.192  0.00  0.00    -0.047 A 
ATOM     16  C   UNL     1       3.413  -1.700   4.452  0.00  0.00    +0.005 A 
ATOM     17  C   UNL     1       2.413  -1.603   3.505  0.00  0.00    +0.024 A 
ATOM     18  C   UNL     1       1.780  -0.386   3.288  0.00  0.00    +0.037 A 
ATOM     19  C   UNL     1       2.147   0.727   4.033  0.00  0.00    +0.027 A 
ATOM     20  C   UNL     1       3.145   0.622   4.982  0.00  0.00    -0.046 A 
ATOM     21  C   UNL     1       3.544   1.830   5.791  0.00  0.00    +0.044 C 
ENDBRANCH   1  18
BRANCH  12  22
ATOM     22  C   UNL     1      -2.342  -0.277  -0.508  0.00  0.00    -0.073 C 
BRANCH  22  23
ATOM     23  C   UNL     1      -3.588  -1.067  -0.104  0.00  0.00    +0.016 C 
BRANCH  23  24
ATOM     24  C   UNL     1      -4.680  -0.835  -1.117  0.00  0.00    -0.049 A 
ATOM     25  C   UNL     1      -5.573   0.205  -0.945  0.00  0.00    +0.005 A 
ATOM     26  C   UNL     1      -6.572   0.420  -1.876  0.00  0.00    +0.029 A 
ATOM     27  C   UNL     1      -6.683  -0.411  -2.975  0.00  0.00    +0.105 A 
ATOM     28  C   UNL     1      -5.792  -1.454  -3.145  0.00  0.00    +0.029 A 
ATOM     29  C   UNL     1      -4.791  -1.667  -2.216  0.00  0.00    +0.005 A 
BRANCH  27  30
ATOM     30  S   UNL     1      -7.959  -0.140  -4.159  0.00  0.00    +0.056 S 
ATOM     31  O   UNL     1      -8.324   1.230  -4.056  0.00  0.00    -0.153 OA
ATOM     32  O   UNL     1      -7.514  -0.721  -5.377  0.00  0.00    -0.153 OA
BRANCH  30  33
ATOM     33  N   UNL     1      -9.275  -1.018  -3.669  0.00  0.00    -0.204 NA
ATOM     34  H   UNL     1      -9.230  -1.548  -2.858  0.00  0.00    +0.144 HD
ATOM     35  H   UNL     1     -10.091  -1.002  -4.194  0.00  0.00    +0.144 HD
ENDBRANCH  30  33
ENDBRANCH  27  30
ENDBRANCH  23  24
ENDBRANCH  22  23
ENDBRANCH  12  22
TORSDOF 6
