REMARK  Name = ZINC13503637
REMARK  6 active torsions:
REMARK  status: ('A' for Active; 'I' for Inactive)
REMARK    1  A    between atoms: C_1  and  C_2
REMARK    2  A    between atoms: C_2  and  C_3
REMARK    3  A    between atoms: C_12  and  S_13
REMARK    4  A    between atoms: S_13  and  C_14
REMARK    5  A    between atoms: C_14  and  C_15
REMARK    6  A    between atoms: N_17  and  C_18
REMARK                            x       y       z     vdW  Elec       q    Type
REMARK                         _______ _______ _______ _____ _____    ______ ____
ROOT
ATOM      1  C   UNL     1      -1.107  -2.113  -0.045  0.00  0.00    -0.015 A 
ATOM      2  C   UNL     1      -1.195  -0.753  -0.047  0.00  0.00    +0.016 A 
ATOM      3  C   UNL     1      -0.001  -0.005  -0.055  0.00  0.00    +0.004 A 
ATOM      4  C   UNL     1      -0.020   1.398  -0.058  0.00  0.00    +0.059 A 
ATOM      5  C   UNL     1       1.155   2.096  -0.067  0.00  0.00    +0.163 A 
ATOM      6  C   UNL     1       2.384   1.422  -0.071  0.00  0.00    +0.164 A 
ATOM      7  C   UNL     1       2.431   0.055  -0.069  0.00  0.00    +0.077 A 
ATOM      8  C   UNL     1       1.240  -0.689  -0.061  0.00  0.00    +0.076 A 
ATOM      9  N   UNL     1       1.265  -2.027  -0.059  0.00  0.00    -0.240 NA
ATOM     10  C   UNL     1       0.150  -2.731  -0.051  0.00  0.00    +0.101 A 
ATOM     11  O   UNL     1       3.555   2.118  -0.075  0.00  0.00    -0.485 OA
ATOM     12  C   UNL     1       3.484   3.495  -0.457  0.00  0.00    +0.270 C 
ATOM     13  C   UNL     1       2.311   4.143   0.292  0.00  0.00    +0.270 C 
ATOM     14  O   UNL     1       1.110   3.457  -0.077  0.00  0.00    -0.485 OA
ENDROOT
BRANCH   1  16
ATOM     15  C   UNL     1      -2.707  -3.336   1.402  0.00  0.00    +0.009 C 
ATOM     16  C   UNL     1      -2.360  -2.950  -0.037  0.00  0.00    +0.034 C 
ENDBRANCH   1  16
BRANCH  10  17
ATOM     17  S   UNL     1       0.244  -4.491  -0.049  0.00  0.00    -0.096 S 
BRANCH  17  18
ATOM     18  C   UNL     1       2.041  -4.710  -0.059  0.00  0.00    +0.171 C 
BRANCH  18  19
ATOM     19  C   UNL     1       2.368  -6.181  -0.059  0.00  0.00    +0.227 C 
ATOM     20  O   UNL     1       1.474  -7.000  -0.052  0.00  0.00    -0.275 OA
ATOM     21  N   UNL     1       3.654  -6.585  -0.066  0.00  0.00    -0.284 N 
ATOM     22  H   UNL     1       4.367  -5.932  -0.137  0.00  0.00    +0.155 HD
BRANCH  21  23
ATOM     23  C   UNL     1       3.959  -7.948   0.030  0.00  0.00    +0.047 A 
ATOM     24  C   UNL     1       3.127  -8.890  -0.560  0.00  0.00    +0.024 A 
ATOM     25  C   UNL     1       3.433 -10.234  -0.467  0.00  0.00    +0.002 A 
ATOM     26  C   UNL     1       4.561 -10.642   0.219  0.00  0.00    +0.001 A 
ATOM     27  C   UNL     1       5.390  -9.707   0.812  0.00  0.00    +0.017 A 
ATOM     28  C   UNL     1       5.092  -8.361   0.720  0.00  0.00    +0.039 A 
ATOM     29 BR   UNL     1       6.224  -7.083   1.531  0.00  0.00    -0.048 Br
ENDBRANCH  21  23
ENDBRANCH  18  19
ENDBRANCH  17  18
ENDBRANCH  10  17
TORSDOF 5
