REMARK  Name = ZINC41586317
REMARK  12 active torsions:
REMARK  status: ('A' for Active; 'I' for Inactive)
REMARK    1  A    between atoms: C_1  and  C_2
REMARK    2  A    between atoms: C_2  and  O_3
REMARK    3  A    between atoms: O_3  and  C_4
REMARK    4  A    between atoms: C_4  and  C_6
REMARK    5  A    between atoms: N_9  and  C_12
REMARK    6  A    between atoms: C_12  and  C_13
REMARK    7  A    between atoms: C_14  and  O_34
REMARK    8  A    between atoms: C_20  and  C_33
REMARK    9  A    between atoms: C_21  and  O_24
REMARK   10  A    between atoms: O_24  and  C_25
REMARK   11  A    between atoms: C_28  and  O_31
REMARK   12  A    between atoms: O_31  and  C_32
REMARK                            x       y       z     vdW  Elec       q    Type
REMARK                         _______ _______ _______ _____ _____    ______ ____
ROOT
ATOM      1  C   UNL     1       4.512  -6.181   4.411  0.00  0.00    +0.020 A 
ATOM      2  C   UNL     1       3.515  -7.019   4.883  0.00  0.00    +0.122 A 
ATOM      3  C   UNL     1       3.554  -8.386   4.619  0.00  0.00    +0.046 A 
ATOM      4  C   UNL     1       4.579  -8.920   3.890  0.00  0.00    +0.019 A 
ATOM      5  C   UNL     1       5.591  -8.089   3.408  0.00  0.00    +0.068 A 
ATOM      6  C   UNL     1       5.556  -6.707   3.664  0.00  0.00    +0.144 A 
ATOM      7  O   UNL     1       6.537  -5.913   3.188  0.00  0.00    -0.456 OA
ATOM      8  C   UNL     1       7.559  -6.389   2.465  0.00  0.00    +0.148 A 
ATOM      9  C   UNL     1       7.687  -7.695   2.156  0.00  0.00    +0.213 A 
ATOM     10  C   UNL     1       6.713  -8.625   2.619  0.00  0.00    +0.235 A 
ATOM     11  O   UNL     1       6.797  -9.814   2.360  0.00  0.00    -0.283 OA
ATOM     12  C   UNL     1       8.608  -5.425   1.976  0.00  0.00    +0.090 C 
ENDROOT
BRANCH   2  13
ATOM     13  O   UNL     1       2.490  -6.503   5.609  0.00  0.00    -0.506 OA
ATOM     14  H   UNL     1       1.733  -6.223   5.077  0.00  0.00    +0.292 HD
ENDBRANCH   2  13
BRANCH   1  15
ATOM     15  C   UNL     1       4.459  -4.703   4.702  0.00  0.00    -0.036 C 
BRANCH  15  19
ATOM     16  C   UNL     1       1.600  -2.306   2.644  0.00  0.00    +0.094 C 
ATOM     17  C   UNL     1       3.060  -1.849   2.707  0.00  0.00    -0.004 C 
ATOM     18  C   UNL     1       3.765  -2.570   3.858  0.00  0.00    -0.078 C 
ATOM     19  N   UNL     1       3.714  -4.020   3.636  0.00  0.00    +0.383 N 
ATOM     20  C   UNL     1       2.319  -4.476   3.647  0.00  0.00    -0.078 C 
ATOM     21  C   UNL     1       1.558  -3.829   2.487  0.00  0.00    -0.004 C 
ATOM     22  H   UNL     1       4.132  -4.238   2.744  0.00  0.00    -0.081 HD
BRANCH  16  23
ATOM     23  C   UNL     1       0.920  -1.660   1.464  0.00  0.00    +0.310 C 
ATOM     24  O   UNL     1       0.450  -2.345   0.588  0.00  0.00    -0.251 OA
BRANCH  23  25
ATOM     25  O   UNL     1       0.837  -0.322   1.388  0.00  0.00    -0.465 OA
BRANCH  25  27
ATOM     26  C   UNL     1       0.182   1.750   0.331  0.00  0.00    +0.048 C 
ATOM     27  C   UNL     1       0.179   0.223   0.242  0.00  0.00    +0.229 C 
ENDBRANCH  25  27
ENDBRANCH  23  25
ENDBRANCH  16  23
ENDBRANCH  15  19
ENDBRANCH   1  15
BRANCH   9  28
ATOM     28  O   UNL     1       8.746  -8.123   1.416  0.00  0.00    -0.449 OA
BRANCH  28  29
ATOM     29  C   UNL     1       8.501  -8.603   0.168  0.00  0.00    +0.129 A 
ATOM     30  C   UNL     1       7.221  -8.535  -0.362  0.00  0.00    +0.050 A 
ATOM     31  C   UNL     1       6.972  -9.023  -1.630  0.00  0.00    +0.049 A 
ATOM     32  C   UNL     1       8.002  -9.582  -2.373  0.00  0.00    +0.120 A 
ATOM     33  C   UNL     1       9.281  -9.651  -1.842  0.00  0.00    +0.049 A 
ATOM     34  C   UNL     1       9.532  -9.157  -0.577  0.00  0.00    +0.050 A 
BRANCH  32  35
ATOM     35  O   UNL     1       7.756 -10.063  -3.621  0.00  0.00    -0.495 OA
ATOM     36  C   UNL     1       8.863 -10.625  -4.329  0.00  0.00    +0.277 C 
ENDBRANCH  32  35
ENDBRANCH  28  29
ENDBRANCH   9  28
TORSDOF 9
