REMARK  Name = ZINC57312888
REMARK  9 active torsions:
REMARK  status: ('A' for Active; 'I' for Inactive)
REMARK    1  A    between atoms: C_1  and  C_2
REMARK    2  A    between atoms: C_2  and  O_3
REMARK    3  A    between atoms: O_3  and  C_4
REMARK    4  A    between atoms: C_4  and  C_6
REMARK    5  A    between atoms: C_10  and  N_11
REMARK    6  A    between atoms: C_12  and  C_14
REMARK    7  A    between atoms: C_17  and  N_23
REMARK    8  A    between atoms: C_18  and  N_20
REMARK    9  A    between atoms: C_26  and  C_29
REMARK                            x       y       z     vdW  Elec       q    Type
REMARK                         _______ _______ _______ _____ _____    ______ ____
ROOT
ATOM      1  N   UNL     1      -2.622  -2.281   2.507  0.00  0.00    -0.275 N 
ATOM      2  C   UNL     1      -3.516  -2.669   3.438  0.00  0.00    +0.249 C 
ATOM      3  O   UNL     1      -4.602  -3.098   3.097  0.00  0.00    -0.270 OA
ATOM      4  H   UNL     1      -1.756  -1.938   2.778  0.00  0.00    +0.156 HD
ENDROOT
BRANCH   1   9
ATOM      5  C   UNL     1      -2.154  -2.021   0.074  0.00  0.00    +0.091 A 
ATOM      6  C   UNL     1      -2.724  -2.219  -1.248  0.00  0.00    -0.021 A 
ATOM      7  C   UNL     1      -3.976  -2.724  -1.240  0.00  0.00    -0.004 A 
ATOM      8  S   UNL     1      -4.369  -2.924   0.473  0.00  0.00    -0.077 S 
ATOM      9  C   UNL     1      -2.941  -2.370   1.162  0.00  0.00    +0.087 A 
ATOM     10  C   UNL     1      -4.828  -3.037  -2.431  0.00  0.00    +0.043 C 
ATOM     11  C   UNL     1      -4.213  -2.348  -3.658  0.00  0.00    +0.005 C 
ATOM     12  C   UNL     1      -2.711  -2.643  -3.691  0.00  0.00    +0.005 C 
ATOM     13  C   UNL     1      -2.008  -1.901  -2.553  0.00  0.00    +0.037 C 
BRANCH   5  14
ATOM     14  C   UNL     1      -0.804  -1.481   0.250  0.00  0.00    +0.342 C 
ATOM     15  O   UNL     1       0.150  -2.233   0.295  0.00  0.00    -0.245 OA
BRANCH  14  16
ATOM     16  O   UNL     1      -0.620  -0.150   0.362  0.00  0.00    -0.461 OA
BRANCH  16  18
ATOM     17  C   UNL     1       0.733   1.833   0.639  0.00  0.00    +0.048 C 
ATOM     18  C   UNL     1       0.723   0.307   0.531  0.00  0.00    +0.229 C 
ENDBRANCH  16  18
ENDBRANCH  14  16
ENDBRANCH   5  14
ENDBRANCH   1   9
BRANCH   2  19
ATOM     19  C   UNL     1      -3.177  -2.573   4.870  0.00  0.00    +0.039 A 
ATOM     20  C   UNL     1      -1.931  -2.075   5.263  0.00  0.00    +0.015 A 
ATOM     21  C   UNL     1      -1.618  -1.986   6.600  0.00  0.00    +0.026 A 
ATOM     22  C   UNL     1      -2.541  -2.393   7.561  0.00  0.00    +0.060 A 
ATOM     23  C   UNL     1      -3.781  -2.889   7.173  0.00  0.00    +0.148 A 
ATOM     24  C   UNL     1      -4.103  -2.975   5.837  0.00  0.00    +0.047 A 
BRANCH  22  25
ATOM     25  N   UNL     1      -2.221  -2.303   8.911  0.00  0.00    -0.328 N 
ATOM     26  C   UNL     1      -2.449  -1.055   9.653  0.00  0.00    +0.105 C 
ATOM     27  C   UNL     1      -1.142  -0.643  10.338  0.00  0.00    +0.022 C 
ATOM     28  C   UNL     1      -0.634  -1.802  11.198  0.00  0.00    -0.011 C 
ATOM     29  C   UNL     1      -0.352  -3.015  10.309  0.00  0.00    +0.022 C 
ATOM     30  C   UNL     1      -1.655  -3.455   9.625  0.00  0.00    +0.105 C 
ATOM     31  C   UNL     1       0.653  -1.382  11.911  0.00  0.00    +0.007 C 
ENDBRANCH  22  25
BRANCH  23  32
ATOM     32  N   UNL     1      -4.759  -3.320   8.197  0.00  0.00    +0.058 N 
ATOM     33  O   UNL     1      -5.795  -3.846   7.862  0.00  0.00    -0.126 OA
ATOM     34  O   UNL     1      -4.521  -3.147   9.370  0.00  0.00    -0.126 OA
ENDBRANCH  23  32
ENDBRANCH   2  19
TORSDOF 7
