REMARK  Name = ZINC59563996
REMARK  1 active torsions:
REMARK  status: ('A' for Active; 'I' for Inactive)
REMARK    1  A    between atoms: C_4  and  C_7
REMARK                            x       y       z     vdW  Elec       q    Type
REMARK                         _______ _______ _______ _____ _____    ______ ____
ROOT
ATOM      1  C   UNL     1       3.705  -0.709  -0.040  0.00  0.00    +0.163 C 
ATOM      2  C   UNL     1       4.014  -1.137  -1.446  0.00  0.00    +0.019 C 
ATOM      3  C   UNL     1       4.486  -2.338  -1.708  0.00  0.00    +0.073 C 
ATOM      4  N   UNL     1       4.699  -3.239  -0.668  0.00  0.00    -0.294 N 
ATOM      5  C   UNL     1       4.099  -3.019   0.550  0.00  0.00    +0.188 C 
ATOM      6  N   UNL     1       3.624  -1.854   0.858  0.00  0.00    -0.243 NA
ATOM      7  N   UNL     1       4.000  -4.054   1.456  0.00  0.00    -0.241 N 
ATOM      8  C   UNL     1       3.496  -3.820   2.720  0.00  0.00    +0.295 A 
ATOM      9  N   UNL     1       2.995  -2.683   3.128  0.00  0.00    -0.195 NA
ATOM     10  C   UNL     1       2.598  -2.820   4.422  0.00  0.00    +0.111 A 
ATOM     11  C   UNL     1       2.008  -1.956   5.346  0.00  0.00    +0.031 A 
ATOM     12  C   UNL     1       1.720  -2.408   6.616  0.00  0.00    +0.002 A 
ATOM     13  C   UNL     1       2.012  -3.713   6.979  0.00  0.00    +0.004 A 
ATOM     14  C   UNL     1       2.595  -4.578   6.075  0.00  0.00    +0.048 A 
ATOM     15  C   UNL     1       2.892  -4.141   4.794  0.00  0.00    +0.157 A 
ATOM     16  O   UNL     1       3.443  -4.729   3.708  0.00  0.00    -0.424 OA
ATOM     17  H   UNL     1       4.284  -4.947   1.205  0.00  0.00    +0.159 HD
ATOM     18  H   UNL     1       5.265  -4.015  -0.801  0.00  0.00    +0.154 HD
ENDROOT
BRANCH   1  22
ATOM     19  C   UNL     1      -0.029   1.366  -0.002  0.00  0.00    +0.000 A 
ATOM     20  C   UNL     1       1.157   2.077  -0.007  0.00  0.00    +0.000 A 
ATOM     21  C   UNL     1       2.365   1.405  -0.019  0.00  0.00    +0.006 A 
ATOM     22  C   UNL     1       2.388   0.023  -0.026  0.00  0.00    -0.019 A 
ATOM     23  C   UNL     1       1.202  -0.687  -0.020  0.00  0.00    +0.006 A 
ATOM     24  C   UNL     1      -0.006  -0.016  -0.009  0.00  0.00    +0.000 A 
ENDBRANCH   1  22
TORSDOF 1
