REMARK  Name = ZINC13552870
REMARK  6 active torsions:
REMARK  status: ('A' for Active; 'I' for Inactive)
REMARK    1  A    between atoms: C_1  and  C_2
REMARK    2  A    between atoms: C_2  and  C_30
REMARK    3  A    between atoms: C_4  and  N_9
REMARK    4  A    between atoms: C_6  and  C_7
REMARK    5  A    between atoms: C_6  and  C_8
REMARK    6  A    between atoms: C_10  and  C_12
REMARK                            x       y       z     vdW  Elec       q    Type
REMARK                         _______ _______ _______ _____ _____    ______ ____
ROOT
ATOM      1  C   UNL     1      -2.005   3.708  -2.434  0.00  0.00    +0.092 C 
ATOM      2  C   UNL     1      -1.012   3.778  -3.597  0.00  0.00    +0.016 C 
ATOM      3  C   UNL     1      -1.725   4.334  -4.833  0.00  0.00    +0.020 C 
ATOM      4  C   UNL     1      -2.307   5.711  -4.504  0.00  0.00    +0.106 C 
ATOM      5  N   UNL     1      -3.251   5.590  -3.385  0.00  0.00    -0.313 N 
ATOM      6  C   UNL     1      -2.580   5.102  -2.174  0.00  0.00    +0.119 C 
ATOM      7  C   UNL     1      -3.894   6.794  -3.146  0.00  0.00    +0.152 A 
ATOM      8  C   UNL     1      -4.604   7.438  -4.162  0.00  0.00    +0.126 A 
ATOM      9  C   UNL     1      -5.239   8.656  -3.871  0.00  0.00    +0.184 A 
ATOM     10  N   UNL     1      -5.843   9.061  -5.004  0.00  0.00    -0.216 NA
ATOM     11  C   UNL     1      -5.628   8.193  -5.953  0.00  0.00    +0.199 A 
ATOM     12  N   UNL     1      -4.871   7.174  -5.489  0.00  0.00    -0.340 N 
ATOM     13  H   UNL     1      -4.562   6.379  -6.010  0.00  0.00    +0.167 HD
ATOM     14  N   UNL     1      -5.139   9.152  -2.633  0.00  0.00    -0.196 NA
ATOM     15  C   UNL     1      -4.459   8.510  -1.708  0.00  0.00    +0.226 A 
ATOM     16  N   UNL     1      -3.853   7.359  -1.942  0.00  0.00    -0.200 NA
ATOM     17 CL   UNL     1      -4.360   9.197  -0.117  0.00  0.00    -0.041 Cl
ENDROOT
BRANCH   1  19
ATOM     18  N   UNL     1      -0.709   2.004  -1.194  0.00  0.00    -0.312 N 
ATOM     19  C   UNL     1      -1.297   3.217  -1.197  0.00  0.00    +0.218 C 
ATOM     20  O   UNL     1      -1.257   3.912  -0.205  0.00  0.00    -0.275 OA
ATOM     21  H   UNL     1      -0.741   1.448  -1.988  0.00  0.00    +0.149 HD
BRANCH  18  25
ATOM     22  C   UNL     1      -0.156  -0.289   2.488  0.00  0.00    -0.010 C 
ATOM     23  C   UNL     1       0.717  -0.517   1.254  0.00  0.00    -0.072 C 
ATOM     24  C   UNL     1       0.002  -0.004   0.002  0.00  0.00    +0.009 C 
ATOM     25  C   UNL     1      -0.019   1.526   0.010  0.00  0.00    +0.070 C 
ATOM     26  C   UNL     1       1.423   2.032  -0.001  0.00  0.00    +0.009 C 
ATOM     27  C   UNL     1       2.191   1.508   1.210  0.00  0.00    -0.072 C 
ATOM     28  C   UNL     1       1.782   2.290   2.461  0.00  0.00    -0.010 C 
ATOM     29  C   UNL     1       3.690   1.792   0.965  0.00  0.00    -0.010 C 
ATOM     30  C   UNL     1       0.897  -2.043   1.090  0.00  0.00    -0.010 C 
ATOM     31  N   UNL     1       2.089   0.038   1.415  0.00  0.00    +0.386 N 
ATOM     32  H   UNL     1       2.704  -0.424   0.735  0.00  0.00    -0.084 HD
ATOM     33  H   UNL     1       2.410  -0.175   2.367  0.00  0.00    -0.084 HD
ENDBRANCH  18  25
ENDBRANCH   1  19
TORSDOF 2
