REMARK  Name = ZINC15303567
REMARK  3 active torsions:
REMARK  status: ('A' for Active; 'I' for Inactive)
REMARK    1  A    between atoms: C_4  and  N_7
REMARK    2  A    between atoms: C_12  and  C_29
REMARK    3  A    between atoms: C_29  and  C_30
REMARK                            x       y       z     vdW  Elec       q    Type
REMARK                         _______ _______ _______ _____ _____    ______ ____
ROOT
ATOM      1  N   UNL     1       3.624  -0.652  -0.037  0.00  0.00    -0.210 N 
ATOM      2  C   UNL     1       4.801  -0.025  -0.139  0.00  0.00    +0.232 C 
ATOM      3  O   UNL     1       4.950   1.175  -0.225  0.00  0.00    -0.274 OA
ATOM      4  C   UNL     1       5.917  -1.045  -0.129  0.00  0.00    +0.108 C 
ATOM      5  C   UNL     1       6.582  -1.079  -1.521  0.00  0.00    +0.072 C 
ATOM      6  N   UNL     1       6.710  -2.524  -1.848  0.00  0.00    -0.295 NA
ATOM      7  C   UNL     1       5.464  -3.122  -1.333  0.00  0.00    +0.136 C 
ATOM      8  C   UNL     1       5.164  -2.398   0.003  0.00  0.00    +0.123 C 
ATOM      9  C   UNL     1       3.710  -1.984   0.053  0.00  0.00    +0.233 C 
ATOM     10  O   UNL     1       2.769  -2.742   0.155  0.00  0.00    -0.274 OA
ATOM     11  C   UNL     1       5.609  -4.604  -1.130  0.00  0.00    +0.003 A 
ATOM     12  C   UNL     1       6.450  -5.378  -0.362  0.00  0.00    +0.008 A 
ATOM     13  C   UNL     1       6.338  -6.757  -0.389  0.00  0.00    +0.000 A 
ATOM     14  C   UNL     1       5.379  -7.355  -1.187  0.00  0.00    +0.002 A 
ATOM     15  C   UNL     1       4.534  -6.583  -1.957  0.00  0.00    +0.023 A 
ATOM     16  C   UNL     1       4.640  -5.194  -1.937  0.00  0.00    +0.039 A 
ATOM     17  N   UNL     1       3.912  -4.213  -2.614  0.00  0.00    -0.283 N 
ATOM     18  C   UNL     1       4.335  -2.970  -2.315  0.00  0.00    +0.243 C 
ATOM     19  O   UNL     1       3.891  -1.929  -2.752  0.00  0.00    -0.273 OA
ATOM     20  H   UNL     1       6.793  -2.664  -2.843  0.00  0.00    +0.124 HD
ATOM     21  H   UNL     1       3.187  -4.405  -3.229  0.00  0.00    +0.155 HD
ENDROOT
BRANCH   1  25
ATOM     22  C   UNL     1      -0.016   1.380   0.011  0.00  0.00    +0.000 A 
ATOM     23  C   UNL     1       0.419   0.717   1.144  0.00  0.00    +0.002 A 
ATOM     24  C   UNL     1       1.625   0.043   1.131  0.00  0.00    +0.024 A 
ATOM     25  C   UNL     1       2.399   0.031  -0.021  0.00  0.00    +0.044 A 
ATOM     26  C   UNL     1       1.959   0.697  -1.157  0.00  0.00    +0.024 A 
ATOM     27  C   UNL     1       0.753   1.370  -1.138  0.00  0.00    +0.002 A 
ENDBRANCH   1  25
BRANCH   5  28
ATOM     28  C   UNL     1       7.962  -0.419  -1.469  0.00  0.00    +0.056 C 
BRANCH  28  29
ATOM     29  C   UNL     1       8.540  -0.353  -2.858  0.00  0.00    -0.021 A 
ATOM     30  C   UNL     1       9.375  -1.242  -3.419  0.00  0.00    +0.087 A 
ATOM     31  N   UNL     1       9.688  -0.851  -4.692  0.00  0.00    -0.360 N 
ATOM     32  H   UNL     1      10.275  -1.333  -5.295  0.00  0.00    +0.165 HD
ATOM     33  C   UNL     1       9.046   0.331  -4.990  0.00  0.00    +0.047 A 
ATOM     34  C   UNL     1       8.294   0.691  -3.856  0.00  0.00    +0.003 A 
ATOM     35  C   UNL     1       7.527   1.857  -3.872  0.00  0.00    +0.010 A 
ATOM     36  C   UNL     1       7.507   2.642  -4.990  0.00  0.00    +0.001 A 
ATOM     37  C   UNL     1       8.244   2.288  -6.112  0.00  0.00    +0.002 A 
ATOM     38  C   UNL     1       9.015   1.147  -6.115  0.00  0.00    +0.026 A 
ENDBRANCH  28  29
ENDBRANCH   5  28
TORSDOF 3
