REMARK  Name = ZINC60019719
REMARK  9 active torsions:
REMARK  status: ('A' for Active; 'I' for Inactive)
REMARK    1  A    between atoms: C_1  and  C_2
REMARK    2  A    between atoms: C_5  and  C_32
REMARK    3  A    between atoms: C_8  and  C_31
REMARK    4  A    between atoms: C_9  and  C_11
REMARK    5  A    between atoms: N_13  and  N_14
REMARK    6  A    between atoms: C_15  and  C_17
REMARK    7  A    between atoms: N_26  and  C_28
REMARK    8  A    between atoms: C_28  and  C_29
REMARK    9  A    between atoms: C_28  and  C_30
REMARK                            x       y       z     vdW  Elec       q    Type
REMARK                         _______ _______ _______ _____ _____    ______ ____
ROOT
ATOM      1  N   UNL     1       0.103  -2.876   6.786  0.00  0.00    -0.229 N 
ATOM      2  C   UNL     1       0.125  -4.084   7.383  0.00  0.00    +0.281 C 
ATOM      3  O   UNL     1       0.134  -5.096   6.709  0.00  0.00    -0.267 OA
ATOM      4  H   UNL     1       0.097  -2.069   7.324  0.00  0.00    +0.173 HD
ENDROOT
BRANCH   2   5
ATOM      5  C   UNL     1       0.140  -4.179   8.856  0.00  0.00    +0.155 A 
ATOM      6  C   UNL     1       0.170  -5.494   9.518  0.00  0.00    +0.020 A 
ATOM      7  C   UNL     1       0.186  -6.692   8.811  0.00  0.00    +0.011 A 
ATOM      8  C   UNL     1       0.214  -7.885   9.503  0.00  0.00    +0.001 A 
ATOM      9  C   UNL     1       0.226  -7.901  10.891  0.00  0.00    +0.001 A 
ATOM     10  C   UNL     1       0.210  -6.725  11.611  0.00  0.00    +0.014 A 
ATOM     11  C   UNL     1       0.183  -5.511  10.931  0.00  0.00    +0.050 A 
ATOM     12  C   UNL     1       0.164  -4.212  11.618  0.00  0.00    +0.275 A 
ATOM     13  O   UNL     1       0.174  -4.151  12.834  0.00  0.00    -0.266 OA
ATOM     14  N   UNL     1       0.137  -3.090  10.870  0.00  0.00    -0.226 N 
ATOM     15  N   UNL     1       0.131  -3.094   9.591  0.00  0.00    -0.163 NA
BRANCH  14  16
ATOM     16  C   UNL     1       0.118  -1.798  11.560  0.00  0.00    +0.105 C 
ATOM     17  C   UNL     1       1.349  -0.985  11.153  0.00  0.00    +0.032 C 
ATOM     18  C   UNL     1      -1.149  -1.032  11.175  0.00  0.00    +0.032 C 
ENDBRANCH  14  16
ENDBRANCH   2   5
BRANCH   1  21
ATOM     19  C   UNL     1       0.067  -1.578   4.791  0.00  0.00    +0.296 C 
ATOM     20  O   UNL     1       0.059  -0.566   5.466  0.00  0.00    -0.265 OA
ATOM     21  N   UNL     1       0.089  -2.786   5.388  0.00  0.00    -0.228 N 
ATOM     22  H   UNL     1       0.096  -3.593   4.850  0.00  0.00    +0.173 HD
BRANCH  19  31
ATOM     23  C   UNL     1      -0.018   1.503   0.010  0.00  0.00    +0.044 C 
ATOM     24  C   UNL     1       0.002  -0.004   0.002  0.00  0.00    -0.039 A 
ATOM     25  C   UNL     1       0.006  -0.684  -1.183  0.00  0.00    +0.004 A 
ATOM     26  C   UNL     1       0.025  -2.072  -1.198  0.00  0.00    +0.007 A 
ATOM     27  C   UNL     1       0.040  -2.789  -0.021  0.00  0.00    -0.008 A 
ATOM     28  C   UNL     1       0.037  -2.119   1.197  0.00  0.00    +0.139 A 
ATOM     29  C   UNL     1       0.023  -0.712   1.206  0.00  0.00    +0.027 A 
ATOM     30  C   UNL     1       0.030  -0.325   2.616  0.00  0.00    +0.008 A 
ATOM     31  C   UNL     1       0.053  -1.483   3.324  0.00  0.00    +0.195 A 
ATOM     32  O   UNL     1       0.049  -2.535   2.478  0.00  0.00    -0.450 OA
ATOM     33  C   UNL     1       0.016   1.076   3.171  0.00  0.00    +0.048 C 
ATOM     34  C   UNL     1       0.059  -4.295  -0.055  0.00  0.00    +0.047 C 
ENDBRANCH  19  31
ENDBRANCH   1  21
TORSDOF 4
