REMARK  Name = ZINC20214545
REMARK  9 active torsions:
REMARK  status: ('A' for Active; 'I' for Inactive)
REMARK    1  A    between atoms: C_1  and  C_2
REMARK    2  A    between atoms: C_6  and  C_7
REMARK    3  A    between atoms: N_8  and  N_9
REMARK    4  A    between atoms: C_10  and  C_12
REMARK    5  A    between atoms: C_12  and  N_13
REMARK    6  A    between atoms: N_13  and  C_14
REMARK    7  A    between atoms: N_13  and  S_23
REMARK    8  A    between atoms: C_17  and  N_20
REMARK    9  A    between atoms: S_23  and  C_26
REMARK                            x       y       z     vdW  Elec       q    Type
REMARK                         _______ _______ _______ _____ _____    ______ ____
ROOT
ATOM      1  N   UNL     1       0.079  -2.088   8.203  0.00  0.00    -0.194 N 
ENDROOT
BRANCH   1   2
ATOM      2  C   UNL     1       1.378  -2.474   8.542  0.00  0.00    +0.052 A 
ATOM      3  C   UNL     1       1.596  -3.671   9.212  0.00  0.00    +0.027 A 
ATOM      4  C   UNL     1       2.881  -4.050   9.545  0.00  0.00    +0.034 A 
ATOM      5  C   UNL     1       3.951  -3.239   9.212  0.00  0.00    +0.126 A 
ATOM      6  C   UNL     1       3.737  -2.047   8.545  0.00  0.00    +0.034 A 
ATOM      7  C   UNL     1       2.455  -1.665   8.204  0.00  0.00    +0.027 A 
BRANCH   5   8
ATOM      8  N   UNL     1       5.327  -3.648   9.571  0.00  0.00    +0.056 N 
ATOM      9  O   UNL     1       5.515  -4.690  10.155  0.00  0.00    -0.126 OA
ATOM     10  O   UNL     1       6.263  -2.941   9.281  0.00  0.00    -0.126 OA
ENDBRANCH   5   8
ENDBRANCH   1   2
BRANCH   1  11
ATOM     11  S   UNL     1      -1.003  -1.688   9.391  0.00  0.00    +0.075 S 
ATOM     12  O   UNL     1      -0.241  -1.426  10.562  0.00  0.00    -0.150 OA
ATOM     13  O   UNL     1      -1.888  -0.729   8.829  0.00  0.00    -0.150 OA
BRANCH  11  14
ATOM     14  C   UNL     1      -1.964  -3.126   9.727  0.00  0.00    +0.109 A 
ATOM     15  C   UNL     1      -3.053  -3.430   8.932  0.00  0.00    +0.029 A 
ATOM     16  C   UNL     1      -3.807  -4.558   9.195  0.00  0.00    +0.002 A 
ATOM     17  C   UNL     1      -3.472  -5.382  10.253  0.00  0.00    +0.000 A 
ATOM     18  C   UNL     1      -2.382  -5.079  11.047  0.00  0.00    +0.002 A 
ATOM     19  C   UNL     1      -1.625  -3.953  10.781  0.00  0.00    +0.029 A 
ENDBRANCH  11  14
ENDBRANCH   1  11
BRANCH   1  20
ATOM     20  C   UNL     1      -0.327  -2.037   6.796  0.00  0.00    +0.228 C 
BRANCH  20  22
ATOM     21  N   UNL     1      -1.193  -3.600   5.086  0.00  0.00    -0.206 N 
ATOM     22  C   UNL     1      -0.773  -3.406   6.352  0.00  0.00    +0.251 C 
ATOM     23  O   UNL     1      -0.754  -4.334   7.134  0.00  0.00    -0.272 OA
ATOM     24  H   UNL     1      -1.208  -2.859   4.461  0.00  0.00    +0.177 HD
BRANCH  21  26
ATOM     25  C   UNL     1      -2.013  -5.061   3.452  0.00  0.00    +0.145 C 
ATOM     26  N   UNL     1      -1.607  -4.873   4.673  0.00  0.00    -0.187 NA
BRANCH  25  32
ATOM     27  C   UNL     1      -3.022  -5.824   0.639  0.00  0.00    +0.045 C 
ATOM     28  C   UNL     1      -2.908  -6.802   1.780  0.00  0.00    -0.035 A 
ATOM     29  C   UNL     1      -3.254  -8.123   1.614  0.00  0.00    +0.011 A 
ATOM     30  C   UNL     1      -3.139  -8.977   2.664  0.00  0.00    +0.046 A 
ATOM     31  S   UNL     1      -2.521  -7.912   3.956  0.00  0.00    -0.095 S 
ATOM     32  C   UNL     1      -2.447  -6.394   3.020  0.00  0.00    +0.035 A 
ENDBRANCH  25  32
ENDBRANCH  21  26
ENDBRANCH  20  22
ENDBRANCH   1  20
TORSDOF 8
