REMARK  Name = ZINC20279395
REMARK  11 active torsions:
REMARK  status: ('A' for Active; 'I' for Inactive)
REMARK    1  A    between atoms: C_1  and  C_2
REMARK    2  A    between atoms: C_2  and  N_3
REMARK    3  A    between atoms: N_3  and  C_4
REMARK    4  A    between atoms: N_3  and  S_6
REMARK    5  A    between atoms: C_4  and  C_5
REMARK    6  A    between atoms: S_6  and  C_9
REMARK    7  A    between atoms: N_15  and  C_20
REMARK    8  A    between atoms: C_20  and  C_21
REMARK    9  A    between atoms: N_23  and  C_24
REMARK   10  A    between atoms: C_29  and  C_34
REMARK   11  A    between atoms: C_31  and  C_33
REMARK                            x       y       z     vdW  Elec       q    Type
REMARK                         _______ _______ _______ _____ _____    ______ ____
ROOT
ATOM      1  C   UNL     1      -1.795  -4.460  -4.271  0.00  0.00    +0.107 A 
ATOM      2  C   UNL     1      -2.434  -4.609  -5.489  0.00  0.00    +0.032 A 
ATOM      3  C   UNL     1      -2.347  -3.616  -6.448  0.00  0.00    +0.049 A 
ATOM      4  C   UNL     1      -1.619  -2.469  -6.188  0.00  0.00    +0.143 A 
ATOM      5  C   UNL     1      -0.971  -2.319  -4.964  0.00  0.00    +0.081 A 
ATOM      6  C   UNL     1      -1.065  -3.316  -4.005  0.00  0.00    +0.055 A 
ATOM      7  N   UNL     1      -0.240  -1.150  -4.711  0.00  0.00    -0.256 N 
ATOM      8  C   UNL     1      -0.421  -0.078  -5.513  0.00  0.00    +0.258 C 
ATOM      9  O   UNL     1       0.226   0.932  -5.335  0.00  0.00    -0.271 OA
ATOM     10  C   UNL     1      -1.432  -0.142  -6.629  0.00  0.00    +0.325 C 
ATOM     11  O   UNL     1      -1.523  -1.482  -7.119  0.00  0.00    -0.481 OA
ENDROOT
BRANCH   1  12
ATOM     12  S   UNL     1      -1.910  -5.731  -3.057  0.00  0.00    +0.061 S 
ATOM     13  O   UNL     1      -1.677  -5.113  -1.799  0.00  0.00    -0.153 OA
ATOM     14  O   UNL     1      -3.098  -6.457  -3.341  0.00  0.00    -0.153 OA
BRANCH  12  15
ATOM     15  N   UNL     1      -0.647  -6.771  -3.315  0.00  0.00    -0.177 NA
BRANCH  15  17
ATOM     16  C   UNL     1       0.691  -7.376  -1.360  0.00  0.00    +0.022 C 
ATOM     17  C   UNL     1       0.635  -6.546  -2.644  0.00  0.00    +0.106 C 
ENDBRANCH  15  17
BRANCH  15  18
ATOM     18  C   UNL     1      -0.813  -7.915  -4.215  0.00  0.00    +0.106 C 
ATOM     19  C   UNL     1      -0.314  -7.542  -5.612  0.00  0.00    +0.022 C 
ENDBRANCH  15  18
ENDBRANCH  12  15
ENDBRANCH   1  12
BRANCH   7  20
ATOM     20  C   UNL     1       0.712  -1.094  -3.598  0.00  0.00    +0.209 C 
BRANCH  20  21
ATOM     21  C   UNL     1       0.006  -0.608  -2.358  0.00  0.00    +0.231 C 
ATOM     22  O   UNL     1      -1.175  -0.336  -2.400  0.00  0.00    -0.274 OA
ATOM     23  N   UNL     1       0.688  -0.476  -1.203  0.00  0.00    -0.311 N 
ATOM     24  H   UNL     1       1.759  -0.724  -1.165  0.00  0.00    +0.149 HD
BRANCH  23  25
ATOM     25  C   UNL     1       0.002  -0.004   0.002  0.00  0.00    +0.076 C 
ATOM     26  C   UNL     1      -0.019   1.526   0.010  0.00  0.00    +0.022 C 
ATOM     27  C   UNL     1       1.417   2.055  -0.000  0.00  0.00    +0.002 C 
ATOM     28  C   UNL     1       2.157   1.548   1.239  0.00  0.00    +0.003 C 
ATOM     29  C   UNL     1       2.178   0.019   1.231  0.00  0.00    -0.009 C 
ATOM     30  C   UNL     1       0.742  -0.511   1.242  0.00  0.00    +0.009 C 
ATOM     31  C   UNL     1       0.763  -2.041   1.233  0.00  0.00    +0.009 C 
ATOM     32  C   UNL     1       2.917  -0.488   2.470  0.00  0.00    +0.008 C 
ENDBRANCH  23  25
ENDBRANCH  20  21
ENDBRANCH   7  20
TORSDOF 7
