REMARK  Name = ZINC38547016
REMARK  10 active torsions:
REMARK  status: ('A' for Active; 'I' for Inactive)
REMARK    1  A    between atoms: C_1  and  C_2
REMARK    2  A    between atoms: C_6  and  N_8
REMARK    3  A    between atoms: N_8  and  C_9
REMARK    4  A    between atoms: C_9  and  C_11
REMARK    5  A    between atoms: C_9  and  C_19
REMARK    6  A    between atoms: C_14  and  S_17
REMARK    7  A    between atoms: S_17  and  C_18
REMARK    8  A    between atoms: C_21  and  C_32
REMARK    9  A    between atoms: C_23  and  N_24
REMARK   10  A    between atoms: C_25  and  C_27
REMARK                            x       y       z     vdW  Elec       q    Type
REMARK                         _______ _______ _______ _____ _____    ______ ____
ROOT
ATOM      1  C   UNL     1       0.157  -4.098   2.400  0.00  0.00    +0.135 C 
ENDROOT
BRANCH   1   2
ATOM      2  C   UNL     1      -1.132  -4.537   1.755  0.00  0.00    -0.023 A 
ATOM      3  C   UNL     1      -1.570  -3.920   0.598  0.00  0.00    +0.007 A 
ATOM      4  C   UNL     1      -2.751  -4.320   0.005  0.00  0.00    +0.015 A 
ATOM      5  C   UNL     1      -3.499  -5.344   0.572  0.00  0.00    +0.008 A 
ATOM      6  C   UNL     1      -3.056  -5.963   1.734  0.00  0.00    +0.015 A 
ATOM      7  C   UNL     1      -1.871  -5.561   2.319  0.00  0.00    +0.007 A 
BRANCH   5   8
ATOM      8  S   UNL     1      -5.007  -5.858  -0.181  0.00  0.00    -0.129 S 
ATOM      9  C   UNL     1      -5.606  -7.188   0.896  0.00  0.00    +0.090 C 
ENDBRANCH   5   8
ENDBRANCH   1   2
BRANCH   1  10
ATOM     10  C   UNL     1       1.322  -4.586   1.577  0.00  0.00    +0.006 A 
ATOM     11  C   UNL     1       1.890  -3.776   0.611  0.00  0.00    +0.018 A 
ATOM     12  C   UNL     1       2.936  -4.246  -0.110  0.00  0.00    -0.011 A 
ATOM     13  S   UNL     1       3.154  -5.881   0.571  0.00  0.00    -0.078 S 
ATOM     14  C   UNL     1       1.839  -5.831   1.777  0.00  0.00    +0.078 A 
ATOM     15  C   UNL     1       3.714  -3.564  -1.206  0.00  0.00    +0.051 C 
BRANCH  14  16
ATOM     16  N   UNL     1       1.442  -6.812   2.687  0.00  0.00    -0.273 N 
ATOM     17  C   UNL     1       2.089  -7.994   2.730  0.00  0.00    +0.284 C 
ATOM     18  O   UNL     1       3.020  -8.205   1.975  0.00  0.00    -0.266 OA
ATOM     19  H   UNL     1       0.700  -6.644   3.289  0.00  0.00    +0.156 HD
BRANCH  17  20
ATOM     20  C   UNL     1       1.672  -9.024   3.685  0.00  0.00    +0.189 A 
ATOM     21  C   UNL     1       2.242 -10.256   3.837  0.00  0.00    +0.054 A 
ATOM     22  C   UNL     1       1.531 -10.907   4.857  0.00  0.00    +0.042 A 
ATOM     23  C   UNL     1       0.570 -10.055   5.278  0.00  0.00    +0.196 A 
ATOM     24  O   UNL     1       0.662  -8.920   4.574  0.00  0.00    -0.458 OA
ENDBRANCH  17  20
ENDBRANCH  14  16
ENDBRANCH   1  10
BRANCH   1  25
ATOM     25  N   UNL     1       0.192  -2.635   2.475  0.00  0.00    -0.320 N 
ATOM     26  H   UNL     1      -0.367  -2.106   1.884  0.00  0.00    +0.148 HD
BRANCH  25  32
ATOM     27  C   UNL     1       1.987   1.455   4.197  0.00  0.00    +0.063 C 
ATOM     28  C   UNL     1       1.905  -0.049   4.243  0.00  0.00    +0.014 A 
ATOM     29  C   UNL     1       2.647  -0.744   5.178  0.00  0.00    +0.021 A 
ATOM     30  C   UNL     1       2.569  -2.129   5.215  0.00  0.00    +0.005 A 
ATOM     31  C   UNL     1       1.743  -2.768   4.308  0.00  0.00    +0.041 A 
ATOM     32  C   UNL     1       1.024  -2.006   3.393  0.00  0.00    +0.097 A 
ATOM     33  N   UNL     1       1.122  -0.685   3.393  0.00  0.00    -0.347 N 
ATOM     34  H   UNL     1       0.609  -0.173   2.749  0.00  0.00    +0.167 HD
ENDBRANCH  25  32
ENDBRANCH   1  25
TORSDOF 7
