REMARK  Name = ZINC38748341
REMARK  6 active torsions:
REMARK  status: ('A' for Active; 'I' for Inactive)
REMARK    1  A    between atoms: C_4  and  C_7
REMARK    2  A    between atoms: C_9  and  C_13
REMARK    3  A    between atoms: C_17  and  S_21
REMARK    4  A    between atoms: N_19  and  N_20
REMARK    5  A    between atoms: S_21  and  C_22
REMARK    6  A    between atoms: C_22  and  C_23
REMARK                            x       y       z     vdW  Elec       q    Type
REMARK                         _______ _______ _______ _____ _____    ______ ____
ROOT
ATOM      1  C   UNL     1       5.705  -2.965  -1.205  0.00  0.00    +0.185 C 
ATOM      2  N   UNL     1       5.169  -4.306  -1.559  0.00  0.00    -0.234 NA
ATOM      3  N   UNL     1       6.229  -4.924  -2.361  0.00  0.00    -0.228 NA
ATOM      4  C   UNL     1       7.492  -4.254  -1.990  0.00  0.00    +0.214 C 
ATOM      5  N   UNL     1       7.148  -3.233  -0.970  0.00  0.00    -0.197 NA
ATOM      6  H   UNL     1       4.315  -4.225  -2.090  0.00  0.00    +0.143 HD
ATOM      7  H   UNL     1       6.042  -4.823  -3.347  0.00  0.00    +0.143 HD
ENDROOT
BRANCH   1  10
ATOM      8  C   UNL     1       3.276  -1.023   0.040  0.00  0.00    +0.091 C 
ATOM      9  C   UNL     1       3.535  -2.335  -0.118  0.00  0.00    +0.034 C 
ATOM     10  C   UNL     1       5.039  -2.434   0.066  0.00  0.00    +0.187 C 
ATOM     11  N   UNL     1       5.438  -1.041   0.323  0.00  0.00    -0.176 NA
ATOM     12  N   UNL     1       4.424  -0.339   0.286  0.00  0.00    -0.154 NA
BRANCH   8  16
ATOM     13  C   UNL     1      -0.587   0.736  -0.213  0.00  0.00    +0.000 A 
ATOM     14  C   UNL     1       0.516   1.530   0.044  0.00  0.00    +0.001 A 
ATOM     15  C   UNL     1       1.772   0.965   0.127  0.00  0.00    +0.010 A 
ATOM     16  C   UNL     1       1.928  -0.409  -0.048  0.00  0.00    +0.002 A 
ATOM     17  C   UNL     1       0.813  -1.204  -0.306  0.00  0.00    +0.010 A 
ATOM     18  C   UNL     1      -0.438  -0.628  -0.387  0.00  0.00    +0.001 A 
ENDBRANCH   8  16
ENDBRANCH   1  10
BRANCH   5  19
ATOM     19  N   UNL     1       7.938  -2.026  -1.149  0.00  0.00    -0.264 NA
ATOM     20  H   UNL     1       8.918  -2.208  -0.990  0.00  0.00    +0.137 HD
ATOM     21  H   UNL     1       7.788  -1.628  -2.064  0.00  0.00    +0.137 HD
ENDBRANCH   5  19
BRANCH   4  22
ATOM     22  S   UNL     1       8.656  -5.462  -1.298  0.00  0.00    -0.115 S 
BRANCH  22  23
ATOM     23  C   UNL     1       7.773  -6.156   0.127  0.00  0.00    +0.168 C 
BRANCH  23  24
ATOM     24  C   UNL     1       8.640  -7.187   0.801  0.00  0.00    +0.234 C 
ATOM     25  O   UNL     1       9.588  -7.663   0.211  0.00  0.00    -0.274 OA
ATOM     26  N   UNL     1       8.364  -7.581   2.060  0.00  0.00    -0.237 N 
ATOM     27  C   UNL     1       9.253  -8.441   2.716  0.00  0.00    +0.055 A 
ATOM     28  C   UNL     1       9.891  -9.454   2.016  0.00  0.00    +0.025 A 
ATOM     29  C   UNL     1      10.767 -10.301   2.671  0.00  0.00    +0.002 A 
ATOM     30  C   UNL     1      11.014 -10.146   4.022  0.00  0.00    +0.001 A 
ATOM     31  C   UNL     1      10.383  -9.137   4.731  0.00  0.00    +0.017 A 
ATOM     32  C   UNL     1       9.506  -8.289   4.081  0.00  0.00    +0.035 A 
ATOM     33  S   UNL     1       8.686  -6.994   4.958  0.00  0.00    -0.086 S 
ATOM     34  C   UNL     1       7.192  -6.802   4.038  0.00  0.00    +0.035 A 
ATOM     35  C   UNL     1       7.197  -7.114   2.679  0.00  0.00    +0.055 A 
ATOM     36  C   UNL     1       6.030  -6.961   1.947  0.00  0.00    +0.025 A 
ATOM     37  C   UNL     1       4.881  -6.501   2.565  0.00  0.00    +0.002 A 
ATOM     38  C   UNL     1       4.887  -6.191   3.913  0.00  0.00    +0.001 A 
ATOM     39  C   UNL     1       6.038  -6.347   4.649  0.00  0.00    +0.017 A 
ENDBRANCH  23  24
ENDBRANCH  22  23
ENDBRANCH   4  22
TORSDOF 6
