REMARK  Name = ZINC00377735
REMARK  4 active torsions:
REMARK  status: ('A' for Active; 'I' for Inactive)
REMARK    1  A    between atoms: C_1  and  C_2
REMARK    2  A    between atoms: C_2  and  C_3
REMARK    3  A    between atoms: C_4  and  C_21
REMARK    4  A    between atoms: C_19  and  C_20
REMARK                            x       y       z     vdW  Elec       q    Type
REMARK                         _______ _______ _______ _____ _____    ______ ____
ROOT
ATOM      1  C   UNL     1      -0.906   1.713  -1.089  0.00  0.00    -0.023 A 
ATOM      2  C   UNL     1      -0.397   2.795  -1.768  0.00  0.00    -0.034 A 
ATOM      3  C   UNL     1      -0.924   3.114  -3.043  0.00  0.00    +0.035 A 
ATOM      4  C   UNL     1      -0.529   4.214  -3.929  0.00  0.00    +0.072 A 
ATOM      5  C   UNL     1      -1.205   4.308  -5.132  0.00  0.00    +0.103 A 
ATOM      6  C   UNL     1      -0.912   5.322  -6.061  0.00  0.00    +0.268 A 
ATOM      7  O   UNL     1      -1.518   5.388  -7.115  0.00  0.00    -0.266 OA
ATOM      8  N   UNL     1       0.053   6.221  -5.768  0.00  0.00    -0.274 N 
ATOM      9  H   UNL     1       0.274   6.948  -6.418  0.00  0.00    +0.173 HD
ATOM     10  C   UNL     1       0.716   6.137  -4.601  0.00  0.00    +0.327 A 
ATOM     11  O   UNL     1       1.580   6.958  -4.358  0.00  0.00    -0.247 OA
ATOM     12  N   UNL     1       0.458   5.183  -3.696  0.00  0.00    -0.306 N 
ATOM     13  H   UNL     1       0.978   5.162  -2.842  0.00  0.00    +0.170 HD
ATOM     14  S   UNL     1      -2.358   2.962  -5.109  0.00  0.00    -0.062 S 
ATOM     15  C   UNL     1      -1.953   2.276  -3.522  0.00  0.00    +0.111 A 
ATOM     16  N   UNL     1      -2.408   1.250  -2.835  0.00  0.00    -0.244 NA
ATOM     17  C   UNL     1      -1.916   0.946  -1.649  0.00  0.00    +0.043 A 
ATOM     18  C   UNL     1      -2.460  -0.240  -0.896  0.00  0.00    +0.066 C 
ATOM     19  C   UNL     1       0.706   3.628  -1.165  0.00  0.00    +0.045 C 
ENDROOT
BRANCH   1  21
ATOM     20  C   UNL     1      -1.158   2.087   1.349  0.00  0.00    +0.009 C 
ATOM     21  C   UNL     1      -0.359   1.355   0.269  0.00  0.00    +0.034 C 
ENDBRANCH   1  21
TORSDOF 1
