REMARK  Name = ZINC38789276
REMARK  4 active torsions:
REMARK  status: ('A' for Active; 'I' for Inactive)
REMARK    1  A    between atoms: C_4  and  C_7
REMARK    2  A    between atoms: C_12  and  N_13
REMARK    3  A    between atoms: N_13  and  C_14
REMARK    4  A    between atoms: C_14  and  C_15
REMARK                            x       y       z     vdW  Elec       q    Type
REMARK                         _______ _______ _______ _____ _____    ______ ____
ROOT
ATOM      1  C   UNL     1       3.230  -3.140   2.778  0.00  0.00    +0.118 C 
ENDROOT
BRANCH   1   2
ATOM      2  C   UNL     1       2.010  -3.321   3.683  0.00  0.00    +0.115 C 
ATOM      3  C   UNL     1       2.394  -4.278   4.794  0.00  0.00    -0.003 C 
ATOM      4  C   UNL     1       1.655  -5.412   4.925  0.00  0.00    -0.003 A 
ATOM      5  C   UNL     1       1.962  -6.388   5.972  0.00  0.00    +0.059 A 
ATOM      6  C   UNL     1       1.205  -7.512   6.075  0.00  0.00    +0.167 A 
ATOM      7  C   UNL     1       0.130  -7.753   5.192  0.00  0.00    +0.168 A 
ATOM      8  C   UNL     1      -0.199  -6.865   4.190  0.00  0.00    +0.073 A 
ATOM      9  C   UNL     1       0.529  -5.681   4.012  0.00  0.00    +0.044 A 
ATOM     10  N   UNL     1       0.194  -4.835   3.035  0.00  0.00    -0.284 N 
ATOM     11  C   UNL     1       0.837  -3.704   2.810  0.00  0.00    +0.226 C 
ATOM     12  O   UNL     1       0.486  -2.972   1.903  0.00  0.00    -0.275 OA
ATOM     13  O   UNL     1      -0.440  -8.945   5.532  0.00  0.00    -0.453 OA
ATOM     14  C   UNL     1       0.534  -9.625   6.342  0.00  0.00    +0.466 C 
ATOM     15  O   UNL     1       1.286  -8.560   6.950  0.00  0.00    -0.453 OA
ATOM     16  H   UNL     1      -0.556  -5.062   2.463  0.00  0.00    +0.155 HD
ENDBRANCH   1   2
BRANCH   1  17
ATOM     17  N   UNL     1       2.970  -2.065   1.817  0.00  0.00    -0.342 N 
ATOM     18  H   UNL     1       2.121  -1.596   1.832  0.00  0.00    +0.146 HD
BRANCH  17  24
ATOM     19  C   UNL     1       3.698  -0.688  -0.037  0.00  0.00    +0.003 A 
ATOM     20  C   UNL     1       4.679  -0.343  -0.964  0.00  0.00    +0.010 A 
ATOM     21  C   UNL     1       5.883  -1.017  -0.976  0.00  0.00    +0.001 A 
ATOM     22  C   UNL     1       6.122  -2.036  -0.070  0.00  0.00    +0.002 A 
ATOM     23  C   UNL     1       5.157  -2.387   0.855  0.00  0.00    +0.023 A 
ATOM     24  C   UNL     1       3.944  -1.715   0.882  0.00  0.00    +0.035 A 
BRANCH  19  28
ATOM     25  C   UNL     1      -0.017   1.379   0.010  0.00  0.00    +0.000 A 
ATOM     26  C   UNL     1       1.169   2.092   0.002  0.00  0.00    +0.001 A 
ATOM     27  C   UNL     1       2.377   1.426  -0.013  0.00  0.00    +0.008 A 
ATOM     28  C   UNL     1       2.402   0.033  -0.021  0.00  0.00    -0.016 A 
ATOM     29  C   UNL     1       1.205  -0.680  -0.013  0.00  0.00    +0.008 A 
ATOM     30  C   UNL     1       0.002  -0.004   0.002  0.00  0.00    +0.001 A 
ENDBRANCH  19  28
ENDBRANCH  17  24
ENDBRANCH   1  17
TORSDOF 4
