REMARK  Name = ZINC22185957
REMARK  4 active torsions:
REMARK  status: ('A' for Active; 'I' for Inactive)
REMARK    1  A    between atoms: C_1  and  N_2
REMARK    2  A    between atoms: N_2  and  C_3
REMARK    3  A    between atoms: C_3  and  C_4
REMARK    4  A    between atoms: C_15  and  C_17
REMARK                            x       y       z     vdW  Elec       q    Type
REMARK                         _______ _______ _______ _____ _____    ______ ____
ROOT
ATOM      1  C   UNL     1       0.799   1.318  -0.086  0.00  0.00    +0.133 C 
ATOM      2  N   UNL     1       0.392  -0.089  -0.054  0.00  0.00    -0.293 N 
ATOM      3  C   UNL     1      -0.102  -0.673  -1.163  0.00  0.00    +0.248 C 
ATOM      4  O   UNL     1      -0.529  -1.810  -1.113  0.00  0.00    -0.270 OA
ENDROOT
BRANCH   3   5
ATOM      5  C   UNL     1      -0.124   0.068  -2.441  0.00  0.00    +0.051 A 
ATOM      6  C   UNL     1       0.998   0.793  -2.850  0.00  0.00    +0.017 A 
ATOM      7  C   UNL     1       0.972   1.482  -4.043  0.00  0.00    +0.039 A 
ATOM      8  C   UNL     1      -0.166   1.457  -4.837  0.00  0.00    +0.124 A 
ATOM      9  C   UNL     1      -1.282   0.740  -4.437  0.00  0.00    +0.054 A 
ATOM     10  C   UNL     1      -1.265   0.042  -3.247  0.00  0.00    +0.033 A 
ATOM     11 BR   UNL     1      -2.786  -0.942  -2.704  0.00  0.00    -0.049 Br
ATOM     12  F   UNL     1      -0.185   2.135  -6.006  0.00  0.00    -0.205 F 
ENDBRANCH   3   5
BRANCH   2  13
ATOM     13  C   UNL     1       0.522  -0.860   1.185  0.00  0.00    +0.181 C 
BRANCH  13  14
ATOM     14  C   UNL     1      -0.747  -0.736   1.989  0.00  0.00    +0.128 A 
ATOM     15  N   UNL     1      -0.821  -1.381   3.183  0.00  0.00    -0.309 N 
ATOM     16  H   UNL     1      -0.071  -1.907   3.503  0.00  0.00    +0.170 HD
ATOM     17  C   UNL     1      -1.952  -1.283   3.922  0.00  0.00    +0.266 A 
ATOM     18  O   UNL     1      -2.050  -1.849   4.997  0.00  0.00    -0.267 OA
ATOM     19  C   UNL     1      -3.002  -0.515   3.418  0.00  0.00    +0.102 A 
ATOM     20  C   UNL     1      -2.900   0.143   2.179  0.00  0.00    +0.085 A 
ATOM     21  N   UNL     1      -1.710  -0.016   1.511  0.00  0.00    -0.232 NA
ATOM     22  C   UNL     1      -4.027   0.880   1.792  0.00  0.00    +0.036 A 
ATOM     23  C   UNL     1      -5.116   0.925   2.591  0.00  0.00    +0.048 A 
ATOM     24  S   UNL     1      -4.629  -0.087   3.978  0.00  0.00    -0.090 S 
ENDBRANCH  13  14
ENDBRANCH   2  13
TORSDOF 3
