REMARK  Name = ZINC39673078
REMARK  9 active torsions:
REMARK  status: ('A' for Active; 'I' for Inactive)
REMARK    1  A    between atoms: C_1  and  C_2
REMARK    2  A    between atoms: C_5  and  C_9
REMARK    3  A    between atoms: C_7  and  C_8
REMARK    4  A    between atoms: C_9  and  N_10
REMARK    5  A    between atoms: C_11  and  C_13
REMARK    6  A    between atoms: C_24  and  C_26
REMARK    7  A    between atoms: C_26  and  C_28
REMARK    8  A    between atoms: C_26  and  O_29
REMARK    9  A    between atoms: O_29  and  C_30
REMARK                            x       y       z     vdW  Elec       q    Type
REMARK                         _______ _______ _______ _____ _____    ______ ____
ROOT
ATOM      1  C   UNL     1       3.131  -6.514  -0.072  0.00  0.00    +0.100 C 
ATOM      2  C   UNL     1       3.825  -6.173  -1.409  0.00  0.00    +0.121 C 
ATOM      3  N   UNL     1       4.688  -7.343  -1.693  0.00  0.00    -0.297 N 
ATOM      4  C   UNL     1       3.874  -8.511  -1.278  0.00  0.00    +0.115 C 
ATOM      5  C   UNL     1       3.164  -8.049   0.010  0.00  0.00    -0.004 C 
ATOM      6  C   UNL     1       1.745  -8.607   0.059  0.00  0.00    -0.010 C 
ATOM      7  C   UNL     1       1.804 -10.130   0.199  0.00  0.00    -0.082 C 
ATOM      8  N   UNL     1       2.533 -10.483   1.424  0.00  0.00    +0.379 N 
ATOM      9  C   UNL     1       3.924 -10.024   1.329  0.00  0.00    -0.082 C 
ATOM     10  C   UNL     1       3.954  -8.496   1.237  0.00  0.00    -0.010 C 
ATOM     11  C   UNL     1       5.933  -7.346  -2.210  0.00  0.00    +0.256 C 
ATOM     12  O   UNL     1       6.508  -6.298  -2.411  0.00  0.00    -0.272 OA
ATOM     13  H   UNL     1       2.088 -10.044   2.216  0.00  0.00    -0.086 HD
ATOM     14  H   UNL     1       2.518 -11.485   1.546  0.00  0.00    -0.086 HD
ENDROOT
BRANCH   1  16
ATOM     15  N   UNL     1       1.059  -5.819   1.087  0.00  0.00    -0.311 N 
ATOM     16  C   UNL     1       1.708  -6.019  -0.078  0.00  0.00    +0.218 C 
ATOM     17  O   UNL     1       1.146  -5.802  -1.130  0.00  0.00    -0.275 OA
ATOM     18  H   UNL     1       1.509  -5.992   1.928  0.00  0.00    +0.149 HD
BRANCH  15  19
ATOM     19  C   UNL     1      -0.325  -5.338   1.081  0.00  0.00    +0.139 C 
BRANCH  19  24
ATOM     20  C   UNL     1      -2.203  -4.799   6.519  0.00  0.00    +0.044 C 
ATOM     21  C   UNL     1      -1.713  -4.939   5.101  0.00  0.00    -0.048 A 
ATOM     22  C   UNL     1      -1.095  -3.873   4.474  0.00  0.00    +0.004 A 
ATOM     23  C   UNL     1      -0.646  -4.002   3.173  0.00  0.00    +0.005 A 
ATOM     24  C   UNL     1      -0.814  -5.197   2.499  0.00  0.00    -0.030 A 
ATOM     25  C   UNL     1      -1.431  -6.264   3.126  0.00  0.00    +0.008 A 
ATOM     26  C   UNL     1      -1.877  -6.136   4.428  0.00  0.00    -0.047 A 
ATOM     27  C   UNL     1      -2.545  -7.300   5.114  0.00  0.00    +0.044 C 
ENDBRANCH  19  24
ENDBRANCH  15  19
ENDBRANCH   1  16
BRANCH  11  28
ATOM     28  C   UNL     1       6.609  -8.652  -2.538  0.00  0.00    +0.256 C 
ATOM     29  C   UNL     1       5.898  -9.312  -3.722  0.00  0.00    +0.062 C 
BRANCH  28  30
ATOM     30  O   UNL     1       7.975  -8.409  -2.880  0.00  0.00    -0.480 OA
BRANCH  30  31
ATOM     31  C   UNL     1       8.849  -9.434  -2.699  0.00  0.00    +0.122 A 
ATOM     32  C   UNL     1      10.208  -9.231  -2.891  0.00  0.00    +0.045 A 
ATOM     33  C   UNL     1      11.094 -10.274  -2.706  0.00  0.00    +0.004 A 
ATOM     34  C   UNL     1      10.627 -11.521  -2.331  0.00  0.00    +0.000 A 
ATOM     35  C   UNL     1       9.273 -11.726  -2.140  0.00  0.00    +0.004 A 
ATOM     36  C   UNL     1       8.384 -10.684  -2.317  0.00  0.00    +0.045 A 
ENDBRANCH  30  31
ENDBRANCH  28  30
ENDBRANCH  11  28
TORSDOF 6
