REMARK  Name = ZINC35037057
REMARK  14 active torsions:
REMARK  status: ('A' for Active; 'I' for Inactive)
REMARK    1  A    between atoms: C_1  and  C_2
REMARK    2  A    between atoms: C_2  and  C_3
REMARK    3  A    between atoms: C_3  and  N_4
REMARK    4  A    between atoms: C_14  and  C_15
REMARK    5  A    between atoms: C_15  and  C_17
REMARK    6  A    between atoms: C_15  and  N_19
REMARK    7  A    between atoms: C_17  and  C_18
REMARK    8  A    between atoms: N_19  and  C_20
REMARK    9  A    between atoms: C_20  and  C_21
REMARK   10  A    between atoms: C_21  and  N_22
REMARK   11  A    between atoms: N_22  and  C_23
REMARK   12  A    between atoms: N_22  and  C_24
REMARK   13  A    between atoms: N_27  and  C_28
REMARK   14  A    between atoms: C_31  and  N_34
REMARK                            x       y       z     vdW  Elec       q    Type
REMARK                         _______ _______ _______ _____ _____    ______ ____
ROOT
ATOM      1  N   UNL     1      -1.162  -3.119   3.523  0.00  0.00    -0.277 N 
ATOM      2  C   UNL     1      -2.103  -3.159   4.487  0.00  0.00    +0.307 C 
ATOM      3  O   UNL     1      -3.102  -2.473   4.391  0.00  0.00    -0.252 OA
ATOM      4  N   UNL     1      -1.936  -3.961   5.558  0.00  0.00    -0.269 N 
ATOM      5  H   UNL     1      -1.107  -4.451   5.673  0.00  0.00    +0.156 HD
ENDROOT
BRANCH   4   6
ATOM      6  C   UNL     1      -2.959  -4.085   6.505  0.00  0.00    +0.035 A 
ATOM      7  C   UNL     1      -2.648  -4.283   7.844  0.00  0.00    +0.025 A 
ATOM      8  C   UNL     1      -3.660  -4.405   8.776  0.00  0.00    +0.034 A 
ATOM      9  C   UNL     1      -4.982  -4.329   8.377  0.00  0.00    +0.126 A 
ATOM     10  C   UNL     1      -5.295  -4.133   7.045  0.00  0.00    +0.034 A 
ATOM     11  C   UNL     1      -4.287  -4.004   6.109  0.00  0.00    +0.025 A 
BRANCH   9  12
ATOM     12  N   UNL     1      -6.064  -4.460   9.379  0.00  0.00    +0.056 N 
ATOM     13  O   UNL     1      -5.791  -4.633  10.544  0.00  0.00    -0.126 OA
ATOM     14  O   UNL     1      -7.220  -4.395   9.031  0.00  0.00    -0.126 OA
ENDBRANCH   9  12
ENDBRANCH   4   6
BRANCH   1  15
ATOM     15  C   UNL     1      -1.343  -2.248   2.359  0.00  0.00    +0.143 C 
BRANCH  15  26
ATOM     16  N   UNL     1      -2.504  -3.157   0.389  0.00  0.00    -0.295 N 
ATOM     17  C   UNL     1      -2.562  -3.888  -0.749  0.00  0.00    +0.262 A 
ATOM     18  O   UNL     1      -3.587  -3.961  -1.402  0.00  0.00    -0.267 OA
ATOM     19  C   UNL     1      -1.340  -4.592  -1.165  0.00  0.00    +0.065 A 
ATOM     20  C   UNL     1      -1.294  -5.370  -2.319  0.00  0.00    +0.015 A 
ATOM     21  C   UNL     1      -0.121  -6.007  -2.662  0.00  0.00    +0.001 A 
ATOM     22  C   UNL     1       1.010  -5.879  -1.868  0.00  0.00    +0.002 A 
ATOM     23  C   UNL     1       0.986  -5.115  -0.723  0.00  0.00    +0.028 A 
ATOM     24  C   UNL     1      -0.191  -4.459  -0.354  0.00  0.00    +0.078 A 
ATOM     25  N   UNL     1      -0.259  -3.696   0.765  0.00  0.00    -0.232 NA
ATOM     26  C   UNL     1      -1.351  -3.082   1.104  0.00  0.00    +0.134 A 
BRANCH  16  27
ATOM     27  C   UNL     1      -3.693  -2.436   0.850  0.00  0.00    +0.126 C 
BRANCH  27  29
ATOM     28  C   UNL     1      -4.930  -0.268   0.737  0.00  0.00    +0.005 C 
ATOM     29  C   UNL     1      -3.633  -0.988   0.359  0.00  0.00    +0.018 C 
ENDBRANCH  27  29
ENDBRANCH  16  27
ENDBRANCH  15  26
BRANCH  15  30
ATOM     30  C   UNL     1      -0.194  -1.239   2.293  0.00  0.00    +0.027 C 
ATOM     31  C   UNL     1      -0.252  -0.320   3.515  0.00  0.00    +0.006 C 
ENDBRANCH  15  30
ENDBRANCH   1  15
BRANCH   1  32
ATOM     32  C   UNL     1       0.042  -3.946   3.639  0.00  0.00    +0.091 C 
BRANCH  32  33
ATOM     33  C   UNL     1       1.130  -3.162   4.377  0.00  0.00    -0.060 C 
BRANCH  33  34
ATOM     34  N   UNL     1       2.337  -3.992   4.494  0.00  0.00    +0.377 N 
ATOM     35  C   UNL     1       2.884  -4.250   3.155  0.00  0.00    -0.097 C 
ATOM     36  C   UNL     1       3.338  -3.287   5.305  0.00  0.00    -0.097 C 
ATOM     37  H   UNL     1       2.102  -4.868   4.936  0.00  0.00    -0.083 HD
ENDBRANCH  33  34
ENDBRANCH  32  33
ENDBRANCH   1  32
TORSDOF 10
