REMARK  Name = ZINC63830716
REMARK  10 active torsions:
REMARK  status: ('A' for Active; 'I' for Inactive)
REMARK    1  A    between atoms: C_1  and  C_2
REMARK    2  A    between atoms: C_13  and  C_15
REMARK    3  A    between atoms: C_15  and  C_16
REMARK    4  A    between atoms: N_18  and  C_19
REMARK    5  A    between atoms: C_19  and  C_20
REMARK    6  A    between atoms: C_20  and  C_22
REMARK    7  A    between atoms: C_20  and  C_31
REMARK    8  A    between atoms: C_25  and  N_28
REMARK    9  A    between atoms: N_28  and  C_29
REMARK   10  A    between atoms: N_28  and  C_30
REMARK                            x       y       z     vdW  Elec       q    Type
REMARK                         _______ _______ _______ _____ _____    ______ ____
ROOT
ATOM      1  C   UNL     1       0.202  -2.697  -6.010  0.00  0.00    +0.064 C 
ENDROOT
BRANCH   1   2
ATOM      2  C   UNL     1      -1.047  -2.003  -6.488  0.00  0.00    -0.033 C 
ATOM      3  C   UNL     1      -2.218  -2.584  -6.836  0.00  0.00    -0.000 A 
ATOM      4  C   UNL     1      -2.661  -3.982  -6.874  0.00  0.00    +0.010 A 
ATOM      5  C   UNL     1      -3.922  -4.260  -7.277  0.00  0.00    +0.001 A 
ATOM      6  C   UNL     1      -4.813  -3.248  -7.660  0.00  0.00    +0.002 A 
ATOM      7  C   UNL     1      -4.479  -1.940  -7.652  0.00  0.00    +0.026 A 
ATOM      8  C   UNL     1      -3.178  -1.534  -7.244  0.00  0.00    +0.043 A 
ATOM      9  N   UNL     1      -2.623  -0.350  -7.152  0.00  0.00    -0.380 N 
ATOM     10  C   UNL     1      -1.247  -0.515  -6.669  0.00  0.00    +0.145 C 
ATOM     11  H   UNL     1      -3.051   0.494  -7.365  0.00  0.00    +0.160 HD
ENDBRANCH   1   2
BRANCH   1  12
ATOM     12  C   UNL     1       1.339  -2.389  -6.950  0.00  0.00    -0.039 A 
ATOM     13  C   UNL     1       1.741  -1.079  -7.141  0.00  0.00    +0.006 A 
ATOM     14  C   UNL     1       2.783  -0.793  -8.001  0.00  0.00    +0.023 A 
ATOM     15  C   UNL     1       3.426  -1.823  -8.677  0.00  0.00    +0.029 A 
ATOM     16  C   UNL     1       3.020  -3.137  -8.483  0.00  0.00    +0.023 A 
ATOM     17  C   UNL     1       1.982  -3.416  -7.617  0.00  0.00    +0.006 A 
BRANCH  15  18
ATOM     18  N   UNL     1       4.480  -1.537  -9.548  0.00  0.00    -0.336 N 
ATOM     19  C   UNL     1       4.825  -0.145  -9.848  0.00  0.00    +0.129 C 
ATOM     20  C   UNL     1       5.239  -2.629 -10.162  0.00  0.00    +0.129 C 
ENDBRANCH  15  18
ENDBRANCH   1  12
BRANCH   1  21
ATOM     21  C   UNL     1       0.554  -2.204  -4.605  0.00  0.00    +0.116 C 
BRANCH  21  24
ATOM     22  C   UNL     1      -0.399  -2.283  -2.364  0.00  0.00    +0.215 C 
ATOM     23  O   UNL     1       0.559  -1.653  -1.967  0.00  0.00    -0.276 OA
ATOM     24  N   UNL     1      -0.496  -2.609  -3.668  0.00  0.00    -0.314 N 
ATOM     25  H   UNL     1      -1.262  -3.112  -3.986  0.00  0.00    +0.149 HD
BRANCH  22  26
ATOM     26  C   UNL     1      -1.480  -2.699  -1.401  0.00  0.00    +0.123 C 
BRANCH  26  39
ATOM     27  C   UNL     1       0.020   1.449   0.045  0.00  0.00    +0.109 C 
ATOM     28  C   UNL     1       0.029  -0.058   0.023  0.00  0.00    +0.217 C 
ATOM     29  O   UNL     1       1.083  -0.658   0.003  0.00  0.00    -0.276 OA
ATOM     30  N   UNL     1      -1.134  -0.739   0.026  0.00  0.00    -0.270 N 
ATOM     31  C   UNL     1      -2.343  -0.054   0.044  0.00  0.00    +0.079 C 
ATOM     32  C   UNL     1      -3.401  -0.594   0.659  0.00  0.00    +0.023 C 
ATOM     33  C   UNL     1      -3.271  -1.925   1.283  0.00  0.00    -0.019 A 
ATOM     34  C   UNL     1      -4.247  -2.401   2.157  0.00  0.00    +0.008 A 
ATOM     35  C   UNL     1      -4.094  -3.643   2.740  0.00  0.00    +0.001 A 
ATOM     36  C   UNL     1      -2.977  -4.411   2.462  0.00  0.00    +0.000 A 
ATOM     37  C   UNL     1      -2.007  -3.945   1.591  0.00  0.00    +0.006 A 
ATOM     38  C   UNL     1      -2.153  -2.712   0.995  0.00  0.00    -0.019 A 
ATOM     39  C   UNL     1      -1.128  -2.206   0.004  0.00  0.00    +0.120 C 
ENDBRANCH  26  39
ENDBRANCH  22  26
ENDBRANCH  21  24
ENDBRANCH   1  21
TORSDOF 7
