REMARK  Name = ZINC05928133
REMARK  8 active torsions:
REMARK  status: ('A' for Active; 'I' for Inactive)
REMARK    1  A    between atoms: C_1  and  C_2
REMARK    2  A    between atoms: C_5  and  C_8
REMARK    3  A    between atoms: C_9  and  C_10
REMARK    4  A    between atoms: N_12  and  C_13
REMARK    5  A    between atoms: C_13  and  N_15
REMARK    6  A    between atoms: N_15  and  N_16
REMARK    7  A    between atoms: C_17  and  C_19
REMARK    8  A    between atoms: C_24  and  O_25
REMARK                            x       y       z     vdW  Elec       q    Type
REMARK                         _______ _______ _______ _____ _____    ______ ____
ROOT
ATOM      1  C   UNL     1       2.320   1.244  -0.013  0.00  0.00    +0.153 C 
ATOM      2  S   UNL     1       2.343  -0.468  -0.023  0.00  0.00    -0.017 S 
ENDROOT
BRANCH   1   5
ATOM      3  C   UNL     1      -0.014   1.212   0.009  0.00  0.00    +0.242 C 
ATOM      4  O   UNL     1       0.002  -0.004   0.002  0.00  0.00    -0.270 OA
ATOM      5  N   UNL     1       1.143   1.902   0.001  0.00  0.00    -0.263 N 
ATOM      6  H   UNL     1       1.130   2.872   0.007  0.00  0.00    +0.157 HD
BRANCH   3   8
ATOM      7  C   UNL     1      -2.450   1.236   0.020  0.00  0.00    +0.013 C 
ATOM      8  C   UNL     1      -1.291   1.927   0.019  0.00  0.00    +0.068 C 
BRANCH   7  13
ATOM      9  C   UNL     1      -7.467   4.043   0.060  0.00  0.00    +0.044 C 
ATOM     10  C   UNL     1      -6.152   3.307   0.049  0.00  0.00    -0.050 A 
ATOM     11  C   UNL     1      -6.138   1.923   0.042  0.00  0.00    +0.004 A 
ATOM     12  C   UNL     1      -4.938   1.243   0.032  0.00  0.00    +0.008 A 
ATOM     13  C   UNL     1      -3.735   1.955   0.030  0.00  0.00    -0.025 A 
ATOM     14  C   UNL     1      -3.758   3.353   0.044  0.00  0.00    +0.008 A 
ATOM     15  C   UNL     1      -4.965   4.019   0.047  0.00  0.00    +0.004 A 
ENDBRANCH   7  13
ENDBRANCH   3   8
ENDBRANCH   1   5
BRANCH   1  16
ATOM     16  N   UNL     1       3.478   1.934  -0.021  0.00  0.00    -0.245 N 
ATOM     17  H   UNL     1       4.324   1.460  -0.031  0.00  0.00    +0.172 HD
BRANCH  16  18
ATOM     18  N   UNL     1       3.458   3.335  -0.013  0.00  0.00    -0.231 N 
ATOM     19  C   UNL     1       4.616   4.025  -0.020  0.00  0.00    +0.264 C 
ATOM     20  O   UNL     1       5.678   3.431  -0.034  0.00  0.00    -0.269 OA
ATOM     21  H   UNL     1       2.612   3.808  -0.002  0.00  0.00    +0.173 HD
BRANCH  19  22
ATOM     22  C   UNL     1       4.596   5.500  -0.012  0.00  0.00    +0.079 A 
ATOM     23  C   UNL     1       3.380   6.186  -0.003  0.00  0.00    +0.017 A 
ATOM     24  C   UNL     1       3.368   7.564   0.009  0.00  0.00    +0.001 A 
ATOM     25  C   UNL     1       4.558   8.273   0.002  0.00  0.00    +0.004 A 
ATOM     26  C   UNL     1       5.767   7.608  -0.013  0.00  0.00    +0.046 A 
ATOM     27  C   UNL     1       5.798   6.221  -0.020  0.00  0.00    +0.129 A 
BRANCH  27  28
ATOM     28  O   UNL     1       6.986   5.566  -0.035  0.00  0.00    -0.506 OA
ATOM     29  H   UNL     1       7.322   5.381  -0.922  0.00  0.00    +0.292 HD
ENDBRANCH  27  28
ENDBRANCH  19  22
ENDBRANCH  16  18
ENDBRANCH   1  16
TORSDOF 7
