REMARK  Name = ZINC13070150
REMARK  10 active torsions:
REMARK  status: ('A' for Active; 'I' for Inactive)
REMARK    1  A    between atoms: C_1  and  C_2
REMARK    2  A    between atoms: C_5  and  C_8
REMARK    3  A    between atoms: C_8  and  N_62
REMARK    4  A    between atoms: C_9  and  N_62
REMARK    5  A    between atoms: C_10  and  N_11
REMARK    6  A    between atoms: C_10  and  N_62
REMARK    7  A    between atoms: N_23  and  C_26
REMARK    8  A    between atoms: C_26  and  C_27
REMARK    9  A    between atoms: C_32  and  O_33
REMARK   10  A    between atoms: O_33  and  C_34
REMARK                            x       y       z     vdW  Elec       q    Type
REMARK                         _______ _______ _______ _____ _____    ______ ____
ROOT
ATOM      1  N   UNL     1       3.642  -2.261   0.048  0.00  0.00    -0.255 N 
ATOM      2  C   UNL     1       4.173  -1.035  -0.131  0.00  0.00    +0.182 A 
ATOM      3  S   UNL     1       5.832  -0.673  -0.350  0.00  0.00    -0.011 S 
ATOM      4  N   UNL     1       3.159  -0.143  -0.105  0.00  0.00    -0.257 N 
ATOM      5  C   UNL     1       3.155   1.244  -0.240  0.00  0.00    +0.064 A 
ATOM      6  C   UNL     1       4.336   1.943  -0.440  0.00  0.00    +0.027 A 
ATOM      7  C   UNL     1       4.306   3.317  -0.573  0.00  0.00    +0.002 A 
ATOM      8  C   UNL     1       3.104   4.005  -0.508  0.00  0.00    +0.001 A 
ATOM      9  C   UNL     1       1.921   3.325  -0.310  0.00  0.00    +0.015 A 
ATOM     10  C   UNL     1       1.938   1.938  -0.174  0.00  0.00    +0.064 A 
ATOM     11  C   UNL     1       0.695   1.175   0.038  0.00  0.00    +0.263 A 
ATOM     12  O   UNL     1      -0.378   1.746   0.096  0.00  0.00    -0.267 OA
ATOM     13  N   UNL     1       0.764  -0.165   0.162  0.00  0.00    -0.272 N 
ATOM     14  C   UNL     1       1.982  -0.829   0.092  0.00  0.00    +0.238 A 
ATOM     15  N   UNL     1       2.257  -2.102   0.186  0.00  0.00    -0.133 NA
ENDROOT
BRANCH   1  16
ATOM     16  C   UNL     1       4.378  -3.527   0.091  0.00  0.00    +0.072 C 
BRANCH  16  18
ATOM     17  C   UNL     1       3.296  -4.288  -1.937  0.00  0.00    -0.093 C 
ATOM     18  N   UNL     1       4.595  -4.000  -1.293  0.00  0.00    +0.394 N 
ATOM     19  H   UNL     1       5.076  -3.266  -1.825  0.00  0.00    -0.079 HD
BRANCH  18  20
ATOM     20  C   UNL     1       5.435  -5.216  -1.284  0.00  0.00    -0.041 C 
BRANCH  20  25
ATOM     21  C   UNL     1       6.920  -6.493  -6.721  0.00  0.00    +0.044 C 
ATOM     22  C   UNL     1       6.533  -6.160  -5.303  0.00  0.00    -0.050 A 
ATOM     23  C   UNL     1       7.326  -5.314  -4.551  0.00  0.00    +0.003 A 
ATOM     24  C   UNL     1       6.971  -5.009  -3.250  0.00  0.00    +0.002 A 
ATOM     25  C   UNL     1       5.822  -5.549  -2.702  0.00  0.00    -0.064 A 
ATOM     26  C   UNL     1       5.032  -6.399  -3.453  0.00  0.00    +0.002 A 
ATOM     27  C   UNL     1       5.385  -6.701  -4.755  0.00  0.00    +0.003 A 
ENDBRANCH  20  25
ENDBRANCH  18  20
ENDBRANCH  16  18
ENDBRANCH   1  16
BRANCH  13  28
ATOM     28  C   UNL     1      -0.465  -0.934   0.374  0.00  0.00    +0.167 C 
BRANCH  28  29
ATOM     29  C   UNL     1      -0.649  -1.190   1.848  0.00  0.00    +0.014 A 
ATOM     30  C   UNL     1      -0.269  -2.401   2.392  0.00  0.00    +0.009 A 
ATOM     31  C   UNL     1      -0.438  -2.637   3.744  0.00  0.00    +0.001 A 
ATOM     32  C   UNL     1      -0.987  -1.660   4.555  0.00  0.00    +0.004 A 
ATOM     33  C   UNL     1      -1.368  -0.447   4.016  0.00  0.00    +0.046 A 
ATOM     34  C   UNL     1      -1.195  -0.207   2.660  0.00  0.00    +0.125 A 
BRANCH  34  35
ATOM     35  O   UNL     1      -1.565   0.988   2.128  0.00  0.00    -0.495 OA
ATOM     36  C   UNL     1      -2.020   1.991   3.038  0.00  0.00    +0.277 C 
ENDBRANCH  34  35
ENDBRANCH  28  29
ENDBRANCH  13  28
TORSDOF 7
