REMARK  Name = ZINC38557262
REMARK  10 active torsions:
REMARK  status: ('A' for Active; 'I' for Inactive)
REMARK    1  A    between atoms: C_1  and  C_2
REMARK    2  A    between atoms: C_5  and  N_9
REMARK    3  A    between atoms: C_6  and  C_8
REMARK    4  A    between atoms: C_13  and  C_14
REMARK    5  A    between atoms: C_16  and  C_24
REMARK    6  A    between atoms: C_24  and  C_25
REMARK    7  A    between atoms: C_25  and  N_26
REMARK    8  A    between atoms: C_27  and  C_29
REMARK    9  A    between atoms: C_29  and  C_30
REMARK   10  A    between atoms: C_30  and  C_31
REMARK                            x       y       z     vdW  Elec       q    Type
REMARK                         _______ _______ _______ _____ _____    ______ ____
ROOT
ATOM      1  C   UNL     1      -3.518  -6.436   0.081  0.00  0.00    +0.130 C 
ATOM      2  C   UNL     1      -4.445  -6.966  -0.990  0.00  0.00    -0.033 C 
ATOM      3  C   UNL     1      -5.475  -7.553  -0.338  0.00  0.00    -0.000 A 
ATOM      4  C   UNL     1      -6.683  -8.242  -0.805  0.00  0.00    +0.010 A 
ATOM      5  C   UNL     1      -7.551  -8.736   0.108  0.00  0.00    +0.001 A 
ATOM      6  C   UNL     1      -7.324  -8.607   1.485  0.00  0.00    +0.002 A 
ATOM      7  C   UNL     1      -6.237  -7.987   1.990  0.00  0.00    +0.026 A 
ATOM      8  C   UNL     1      -5.259  -7.429   1.121  0.00  0.00    +0.043 A 
ATOM      9  N   UNL     1      -4.139  -6.789   1.363  0.00  0.00    -0.374 N 
ATOM     10  H   UNL     1      -3.781  -6.583   2.241  0.00  0.00    +0.161 HD
ENDROOT
BRANCH   1  15
ATOM     11  N   UNL     1       0.072  -4.200   0.289  0.00  0.00    -0.188 N 
ATOM     12  C   UNL     1      -1.092  -4.885   0.308  0.00  0.00    +0.263 C 
ATOM     13  O   UNL     1      -2.139  -4.337   0.593  0.00  0.00    -0.269 OA
ATOM     14  C   UNL     1      -1.048  -6.327  -0.030  0.00  0.00    +0.100 C 
ATOM     15  C   UNL     1      -2.164  -7.086  -0.036  0.00  0.00    +0.020 C 
ATOM     16  C   UNL     1       0.283  -6.897  -0.364  0.00  0.00    +0.276 C 
ATOM     17  N   UNL     1       1.347  -6.081  -0.338  0.00  0.00    -0.123 NA
ATOM     18  C   UNL     1       1.244  -4.811  -0.036  0.00  0.00    +0.340 C 
ATOM     19  O   UNL     1       2.366  -4.065  -0.040  0.00  0.00    -0.250 OA
ATOM     20  O   UNL     1       0.404  -8.074  -0.653  0.00  0.00    -0.268 OA
BRANCH  11  25
ATOM     21  C   UNL     1       0.069   1.330   1.562  0.00  0.00    +0.044 C 
ATOM     22  C   UNL     1       0.070  -0.139   1.224  0.00  0.00    -0.050 A 
ATOM     23  C   UNL     1      -0.110  -0.545  -0.085  0.00  0.00    +0.005 A 
ATOM     24  C   UNL     1      -0.110  -1.890  -0.398  0.00  0.00    +0.024 A 
ATOM     25  C   UNL     1       0.072  -2.835   0.603  0.00  0.00    +0.049 A 
ATOM     26  C   UNL     1       0.253  -2.423   1.917  0.00  0.00    -0.028 A 
ATOM     27  C   UNL     1       0.257  -1.076   2.223  0.00  0.00    +0.008 A 
ATOM     28  C   UNL     1       0.451  -3.445   3.007  0.00  0.00    +0.046 C 
ENDBRANCH  11  25
ENDBRANCH   1  15
BRANCH   2  29
ATOM     29  C   UNL     1      -4.260  -6.860  -2.482  0.00  0.00    +0.052 C 
BRANCH  29  30
ATOM     30  C   UNL     1      -5.437  -7.532  -3.191  0.00  0.00    +0.108 C 
BRANCH  30  31
ATOM     31  N   UNL     1      -5.256  -7.430  -4.641  0.00  0.00    -0.315 N 
ATOM     32  C   UNL     1      -6.177  -7.956  -5.473  0.00  0.00    +0.214 C 
ATOM     33  O   UNL     1      -7.155  -8.513  -5.022  0.00  0.00    -0.276 OA
ATOM     34  H   UNL     1      -4.474  -6.984  -5.002  0.00  0.00    +0.149 HD
BRANCH  32  35
ATOM     35  C   UNL     1      -5.991  -7.850  -6.965  0.00  0.00    +0.107 C 
BRANCH  35  36
ATOM     36  C   UNL     1      -7.169  -8.523  -7.675  0.00  0.00    +0.134 C 
BRANCH  36  37
ATOM     37  C   UNL     1      -6.983  -8.417  -9.166  0.00  0.00    +0.356 C 
ATOM     38  O   UNL     1      -6.000  -7.856  -9.620  0.00  0.00    -0.246 OA
ATOM     39  O   UNL     1      -7.816  -8.893  -9.919  0.00  0.00    -0.246 OA
ENDBRANCH  36  37
ENDBRANCH  35  36
ENDBRANCH  32  35
ENDBRANCH  30  31
ENDBRANCH  29  30
ENDBRANCH   2  29
TORSDOF 8
