REMARK  Name = ZINC39689461
REMARK  6 active torsions:
REMARK  status: ('A' for Active; 'I' for Inactive)
REMARK    1  A    between atoms: C_1  and  C_2
REMARK    2  A    between atoms: C_6  and  C_8
REMARK    3  A    between atoms: C_8  and  C_9
REMARK    4  A    between atoms: C_9  and  N_10
REMARK    5  A    between atoms: C_11  and  C_13
REMARK    6  A    between atoms: C_24  and  C_26
REMARK                            x       y       z     vdW  Elec       q    Type
REMARK                         _______ _______ _______ _____ _____    ______ ____
ROOT
ATOM      1  C   UNL     1       2.709  -4.908   6.063  0.00  0.00    +0.100 C 
ATOM      2  C   UNL     1       1.957  -6.249   5.911  0.00  0.00    +0.121 C 
ATOM      3  N   UNL     1       3.016  -7.240   5.607  0.00  0.00    -0.297 N 
ATOM      4  C   UNL     1       4.152  -6.843   6.473  0.00  0.00    +0.115 C 
ATOM      5  C   UNL     1       4.148  -5.302   6.434  0.00  0.00    -0.004 C 
ATOM      6  C   UNL     1       5.124  -4.799   5.375  0.00  0.00    -0.010 C 
ATOM      7  C   UNL     1       6.553  -5.153   5.795  0.00  0.00    -0.082 C 
ATOM      8  N   UNL     1       6.850  -4.537   7.094  0.00  0.00    +0.379 N 
ATOM      9  C   UNL     1       5.968  -5.095   8.126  0.00  0.00    -0.082 C 
ATOM     10  C   UNL     1       4.513  -4.739   7.804  0.00  0.00    -0.010 C 
ATOM     11  C   UNL     1       2.959  -8.270   4.739  0.00  0.00    +0.260 C 
ATOM     12  O   UNL     1       3.918  -8.999   4.600  0.00  0.00    -0.271 OA
ATOM     13  H   UNL     1       7.811  -4.721   7.340  0.00  0.00    -0.086 HD
ATOM     14  H   UNL     1       6.706  -3.541   7.033  0.00  0.00    -0.086 HD
ENDROOT
BRANCH  11  15
ATOM     15  C   UNL     1       1.705  -8.514   3.940  0.00  0.00    +0.296 C 
ATOM     16  C   UNL     1       0.560  -8.907   4.883  0.00  0.00    +0.283 C 
ATOM     17  O   UNL     1      -0.610  -9.145   4.093  0.00  0.00    -0.484 OA
ATOM     18  C   UNL     1      -0.450  -9.911   2.979  0.00  0.00    +0.162 A 
ATOM     19  C   UNL     1      -1.564 -10.478   2.378  0.00  0.00    +0.049 A 
ATOM     20  C   UNL     1      -1.418 -11.256   1.244  0.00  0.00    +0.004 A 
ATOM     21  C   UNL     1      -0.162 -11.471   0.708  0.00  0.00    +0.004 A 
ATOM     22  C   UNL     1       0.952 -10.910   1.303  0.00  0.00    +0.049 A 
ATOM     23  C   UNL     1       0.812 -10.129   2.441  0.00  0.00    +0.163 A 
ATOM     24  O   UNL     1       1.920  -9.590   3.021  0.00  0.00    -0.473 OA
ENDBRANCH  11  15
BRANCH   1  26
ATOM     25  N   UNL     1       2.753  -2.801   4.768  0.00  0.00    -0.315 N 
ATOM     26  C   UNL     1       2.692  -4.147   4.762  0.00  0.00    +0.218 C 
ATOM     27  O   UNL     1       2.624  -4.747   3.710  0.00  0.00    -0.275 OA
ATOM     28  H   UNL     1       2.808  -2.322   5.609  0.00  0.00    +0.149 HD
BRANCH  25  29
ATOM     29  C   UNL     1       2.737  -2.062   3.503  0.00  0.00    +0.109 C 
BRANCH  29  30
ATOM     30  C   UNL     1       2.816  -0.561   3.788  0.00  0.00    +0.054 C 
BRANCH  30  36
ATOM     31  C   UNL     1       5.267   1.517  -0.049  0.00  0.00    +0.044 C 
ATOM     32  C   UNL     1       3.972   1.194   0.652  0.00  0.00    -0.050 A 
ATOM     33  C   UNL     1       2.769   1.596   0.102  0.00  0.00    +0.003 A 
ATOM     34  C   UNL     1       1.582   1.300   0.744  0.00  0.00    +0.001 A 
ATOM     35  C   UNL     1       1.597   0.602   1.938  0.00  0.00    +0.004 A 
ATOM     36  C   UNL     1       2.799   0.200   2.488  0.00  0.00    -0.046 A 
ATOM     37  C   UNL     1       3.987   0.492   1.843  0.00  0.00    +0.007 A 
ENDBRANCH  30  36
ENDBRANCH  29  30
ENDBRANCH  25  29
ENDBRANCH   1  26
TORSDOF 5
