REMARK  Name = ZINC21859887
REMARK  8 active torsions:
REMARK  status: ('A' for Active; 'I' for Inactive)
REMARK    1  A    between atoms: C_1  and  C_2
REMARK    2  A    between atoms: C_2  and  C_28
REMARK    3  A    between atoms: C_7  and  O_26
REMARK    4  A    between atoms: N_15  and  C_16
REMARK    5  A    between atoms: C_16  and  C_17
REMARK    6  A    between atoms: O_26  and  C_27
REMARK    7  A    between atoms: N_30  and  C_31
REMARK    8  A    between atoms: C_31  and  C_32
REMARK                            x       y       z     vdW  Elec       q    Type
REMARK                         _______ _______ _______ _____ _____    ______ ____
ROOT
ATOM      1  C   UNL     1       2.579   2.394  -2.763  0.00  0.00    +0.043 C 
ATOM      2  C   UNL     1       3.727   1.597  -2.140  0.00  0.00    +0.129 C 
ATOM      3  C   UNL     1       4.694   1.180  -3.246  0.00  0.00    +0.157 C 
ATOM      4  N   UNL     1       4.088   0.105  -4.040  0.00  0.00    -0.334 N 
ATOM      5  C   UNL     1       4.252  -0.220  -5.345  0.00  0.00    +0.053 A 
ATOM      6  C   UNL     1       5.018   0.350  -6.361  0.00  0.00    +0.072 A 
ATOM      7  C   UNL     1       4.955  -0.250  -7.611  0.00  0.00    +0.122 A 
ATOM      8  C   UNL     1       4.168  -1.372  -7.855  0.00  0.00    +0.046 A 
ATOM      9  C   UNL     1       3.406  -1.952  -6.877  0.00  0.00    +0.013 A 
ATOM     10  C   UNL     1       3.448  -1.364  -5.603  0.00  0.00    +0.001 A 
ATOM     11  C   UNL     1       2.797  -1.696  -4.402  0.00  0.00    +0.041 A 
ATOM     12  C   UNL     1       3.185  -0.799  -3.471  0.00  0.00    +0.106 A 
ATOM     13  C   UNL     1       2.792  -0.674  -2.058  0.00  0.00    +0.264 C 
ATOM     14  O   UNL     1       2.154  -1.543  -1.493  0.00  0.00    -0.268 OA
ATOM     15  N   UNL     1       3.173   0.457  -1.420  0.00  0.00    -0.276 N 
ENDROOT
BRANCH   2  16
ATOM     16  C   UNL     1       4.459   2.481  -1.164  0.00  0.00    +0.238 C 
ATOM     17  O   UNL     1       4.265   3.679  -1.166  0.00  0.00    -0.273 OA
ATOM     18  N   UNL     1       5.329   1.942  -0.288  0.00  0.00    -0.311 N 
ATOM     19  H   UNL     1       5.444   0.849  -0.229  0.00  0.00    +0.149 HD
BRANCH  18  20
ATOM     20  C   UNL     1       6.122   2.810   0.586  0.00  0.00    +0.135 C 
BRANCH  20  21
ATOM     21  C   UNL     1       7.023   1.951   1.476  0.00  0.00    +0.135 C 
ATOM     22  C   UNL     1       7.777   2.837   2.493  0.00  0.00    +0.035 C 
ATOM     23  C   UNL     1       9.173   2.184   2.598  0.00  0.00    +0.031 C 
ATOM     24  C   UNL     1       9.097   0.980   1.633  0.00  0.00    +0.160 C 
ATOM     25  O   UNL     1       8.061   1.328   0.689  0.00  0.00    -0.375 OA
ENDBRANCH  20  21
ENDBRANCH  18  20
ENDBRANCH   2  16
BRANCH   7  26
ATOM     26  O   UNL     1       5.686   0.274  -8.629  0.00  0.00    -0.495 OA
ATOM     27  C   UNL     1       5.590  -0.376  -9.898  0.00  0.00    +0.277 C 
ENDBRANCH   7  26
BRANCH  15  28
ATOM     28  C   UNL     1       3.030   0.536   0.036  0.00  0.00    +0.144 C 
BRANCH  28  29
ATOM     29  C   UNL     1       1.665   1.076   0.378  0.00  0.00    -0.026 A 
ATOM     30  C   UNL     1       0.590   0.214   0.487  0.00  0.00    +0.009 A 
ATOM     31  C   UNL     1      -0.665   0.706   0.795  0.00  0.00    +0.050 A 
ATOM     32  C   UNL     1      -0.845   2.063   1.007  0.00  0.00    +0.166 A 
ATOM     33  C   UNL     1       0.238   2.931   0.897  0.00  0.00    +0.167 A 
ATOM     34  C   UNL     1       1.492   2.432   0.582  0.00  0.00    +0.054 A 
ATOM     35  O   UNL     1      -0.195   4.202   1.143  0.00  0.00    -0.453 OA
ATOM     36  C   UNL     1      -1.627   4.154   1.002  0.00  0.00    +0.466 C 
ATOM     37  O   UNL     1      -1.957   2.790   1.322  0.00  0.00    -0.453 OA
ENDBRANCH  28  29
ENDBRANCH  15  28
TORSDOF 6
