REMARK  Name = ZINC04718090
REMARK  6 active torsions:
REMARK  status: ('A' for Active; 'I' for Inactive)
REMARK    1  A    between atoms: C_1  and  C_2
REMARK    2  A    between atoms: C_2  and  O_3
REMARK    3  A    between atoms: O_3  and  C_4
REMARK    4  A    between atoms: C_4  and  C_6
REMARK    5  A    between atoms: C_8  and  C_28
REMARK    6  A    between atoms: C_15  and  C_21
REMARK                            x       y       z     vdW  Elec       q    Type
REMARK                         _______ _______ _______ _____ _____    ______ ____
ROOT
ATOM      1  C   UNL     1      -3.447   2.631  -3.556  0.00  0.00    +0.179 C 
ATOM      2  C   UNL     1      -4.745   3.443  -3.625  0.00  0.00    +0.082 C 
ATOM      3  C   UNL     1      -5.540   3.205  -2.339  0.00  0.00    +0.063 C 
ATOM      4  C   UNL     1      -4.705   3.605  -1.148  0.00  0.00    +0.018 C 
ATOM      5  C   UNL     1      -3.361   3.488  -1.175  0.00  0.00    +0.021 C 
ATOM      6  C   UNL     1      -2.689   3.021  -2.315  0.00  0.00    +0.176 C 
ATOM      7  O   UNL     1      -1.478   2.931  -2.301  0.00  0.00    -0.291 OA
ATOM      8  C   UNL     1      -2.554   3.868   0.046  0.00  0.00    +0.063 C 
ATOM      9  C   UNL     1      -3.342   3.481   1.301  0.00  0.00    +0.109 C 
ATOM     10  C   UNL     1      -4.746   4.020   1.178  0.00  0.00    +0.218 C 
ATOM     11  O   UNL     1      -5.343   4.389   2.167  0.00  0.00    -0.275 OA
ATOM     12  N   UNL     1      -5.334   4.091  -0.029  0.00  0.00    -0.289 N 
ATOM     13  H   UNL     1      -6.214   4.492  -0.111  0.00  0.00    +0.155 HD
ENDROOT
BRANCH   8  14
ATOM     14  C   UNL     1      -1.238   3.133   0.030  0.00  0.00    -0.038 A 
ATOM     15  C   UNL     1      -1.219   1.750   0.017  0.00  0.00    +0.004 A 
ATOM     16  C   UNL     1      -0.013   1.076   0.008  0.00  0.00    +0.002 A 
ATOM     17  C   UNL     1       1.175   1.783   0.000  0.00  0.00    +0.020 A 
ATOM     18  C   UNL     1       1.156   3.166   0.008  0.00  0.00    +0.041 A 
ATOM     19  C   UNL     1      -0.052   3.841   0.022  0.00  0.00    +0.024 A 
ATOM     20 CL   UNL     1       2.647   4.055  -0.003  0.00  0.00    -0.084 Cl
ENDBRANCH   8  14
BRANCH   2  21
ATOM     21  C   UNL     1      -5.558   2.996  -4.812  0.00  0.00    +0.109 A 
ATOM     22  C   UNL     1      -5.954   3.778  -5.833  0.00  0.00    +0.045 A 
ATOM     23  C   UNL     1      -6.686   2.954  -6.719  0.00  0.00    +0.041 A 
ATOM     24  C   UNL     1      -6.701   1.721  -6.182  0.00  0.00    +0.195 A 
ATOM     25  O   UNL     1      -6.016   1.752  -5.027  0.00  0.00    -0.467 OA
ENDBRANCH   2  21
BRANCH   1  26
ATOM     26  C   UNL     1      -2.606   2.921  -4.773  0.00  0.00    +0.318 C 
ATOM     27  O   UNL     1      -3.002   3.697  -5.610  0.00  0.00    -0.250 OA
BRANCH  26  28
ATOM     28  O   UNL     1      -1.417   2.317  -4.926  0.00  0.00    -0.464 OA
BRANCH  28  30
ATOM     29  C   UNL     1       0.655   1.865  -6.122  0.00  0.00    +0.048 C 
ATOM     30  C   UNL     1      -0.662   2.644  -6.122  0.00  0.00    +0.229 C 
ENDBRANCH  28  30
ENDBRANCH  26  28
ENDBRANCH   1  26
TORSDOF 5
