REMARK  Name = ZINC63138464
REMARK  12 active torsions:
REMARK  status: ('A' for Active; 'I' for Inactive)
REMARK    1  A    between atoms: C_1  and  C_2
REMARK    2  A    between atoms: C_2  and  C_3
REMARK    3  A    between atoms: C_3  and  C_4
REMARK    4  A    between atoms: C_4  and  C_5
REMARK    5  A    between atoms: C_5  and  N_6
REMARK    6  A    between atoms: C_26  and  C_28
REMARK    7  A    between atoms: C_30  and  O_38
REMARK    8  A    between atoms: C_31  and  O_36
REMARK    9  A    between atoms: C_32  and  O_34
REMARK   10  A    between atoms: O_34  and  C_35
REMARK   11  A    between atoms: O_36  and  C_37
REMARK   12  A    between atoms: O_38  and  C_39
REMARK                            x       y       z     vdW  Elec       q    Type
REMARK                         _______ _______ _______ _____ _____    ______ ____
ROOT
ATOM      1  N   UNL     1      -2.828  -4.058   0.007  0.00  0.00    -0.291 N 
ATOM      2  C   UNL     1      -2.823  -4.825  -1.252  0.00  0.00    +0.203 C 
ATOM      3  C   UNL     1      -1.778  -5.915  -1.147  0.00  0.00    +0.234 C 
ATOM      4  O   UNL     1      -1.017  -6.155  -2.060  0.00  0.00    -0.274 OA
ATOM      5  N   UNL     1      -1.732  -6.620   0.032  0.00  0.00    -0.279 N 
ATOM      6  C   UNL     1      -2.752  -6.279   1.000  0.00  0.00    +0.167 C 
ATOM      7  C   UNL     1      -2.807  -4.781   1.166  0.00  0.00    +0.237 C 
ATOM      8  O   UNL     1      -2.835  -4.253   2.257  0.00  0.00    -0.274 OA
ATOM      9  C   UNL     1      -2.753  -7.001   2.322  0.00  0.00    +0.065 C 
ATOM     10  C   UNL     1      -1.498  -7.819   2.459  0.00  0.00    -0.034 C 
ATOM     11  C   UNL     1      -0.684  -8.035   3.484  0.00  0.00    -0.001 A 
ATOM     12  C   UNL     1      -0.732  -7.588   4.885  0.00  0.00    +0.010 A 
ATOM     13  C   UNL     1       0.292  -7.995   5.681  0.00  0.00    +0.001 A 
ATOM     14  C   UNL     1       1.348  -8.792   5.228  0.00  0.00    +0.002 A 
ATOM     15  C   UNL     1       1.470  -9.253   3.957  0.00  0.00    +0.026 A 
ATOM     16  C   UNL     1       0.451  -8.894   3.028  0.00  0.00    +0.043 A 
ATOM     17  N   UNL     1       0.313  -9.200   1.773  0.00  0.00    -0.375 N 
ATOM     18  C   UNL     1      -0.932  -8.601   1.276  0.00  0.00    +0.131 C 
ATOM     19  C   UNL     1      -0.648  -7.579   0.186  0.00  0.00    +0.134 C 
ATOM     20  H   UNL     1       0.931  -9.734   1.250  0.00  0.00    +0.160 HD
ENDROOT
BRANCH  19  21
ATOM     21  C   UNL     1      -0.418  -8.276  -1.131  0.00  0.00    -0.018 A 
ATOM     22  C   UNL     1      -1.497  -8.639  -1.916  0.00  0.00    +0.055 A 
ATOM     23  C   UNL     1      -1.290  -9.280  -3.128  0.00  0.00    +0.165 A 
ATOM     24  C   UNL     1       0.004  -9.558  -3.553  0.00  0.00    +0.204 A 
ATOM     25  C   UNL     1       1.086  -9.191  -2.761  0.00  0.00    +0.165 A 
ATOM     26  C   UNL     1       0.870  -8.545  -1.553  0.00  0.00    +0.055 A 
BRANCH  25  27
ATOM     27  O   UNL     1       2.353  -9.460  -3.172  0.00  0.00    -0.491 OA
ATOM     28  C   UNL     1       3.416  -9.054  -2.308  0.00  0.00    +0.277 C 
ENDBRANCH  25  27
BRANCH  24  29
ATOM     29  O   UNL     1       0.211 -10.188  -4.741  0.00  0.00    -0.488 OA
ATOM     30  C   UNL     1       0.358  -9.360  -5.897  0.00  0.00    +0.277 C 
ENDBRANCH  24  29
BRANCH  23  31
ATOM     31  O   UNL     1      -2.351  -9.638  -3.899  0.00  0.00    -0.491 OA
ATOM     32  C   UNL     1      -3.652  -9.322  -3.399  0.00  0.00    +0.277 C 
ENDBRANCH  23  31
ENDBRANCH  19  21
BRANCH   1  33
ATOM     33  C   UNL     1      -2.848  -2.593   0.015  0.00  0.00    +0.108 C 
BRANCH  33  34
ATOM     34  C   UNL     1      -1.413  -2.063   0.004  0.00  0.00    +0.019 C 
BRANCH  34  35
ATOM     35  C   UNL     1      -1.433  -0.534   0.013  0.00  0.00    +0.001 C 
BRANCH  35  37
ATOM     36  C   UNL     1      -0.019   1.526   0.010  0.00  0.00    +0.004 C 
ATOM     37  C   UNL     1       0.002  -0.004   0.002  0.00  0.00    -0.003 C 
ENDBRANCH  35  37
ENDBRANCH  34  35
ENDBRANCH  33  34
ENDBRANCH   1  33
TORSDOF 8
