REMARK  Name = ZINC33250904
REMARK  11 active torsions:
REMARK  status: ('A' for Active; 'I' for Inactive)
REMARK    1  A    between atoms: C_1  and  C_2
REMARK    2  A    between atoms: C_6  and  N_8
REMARK    3  A    between atoms: C_9  and  C_11
REMARK    4  A    between atoms: N_16  and  S_18
REMARK    5  A    between atoms: S_18  and  C_21
REMARK    6  A    between atoms: C_22  and  C_37
REMARK    7  A    between atoms: C_25  and  C_26
REMARK    8  A    between atoms: C_27  and  C_28
REMARK    9  A    between atoms: C_29  and  C_36
REMARK   10  A    between atoms: C_31  and  C_35
REMARK   11  A    between atoms: C_33  and  C_34
REMARK                            x       y       z     vdW  Elec       q    Type
REMARK                         _______ _______ _______ _____ _____    ______ ____
ROOT
ATOM      1  S   UNL     1      -4.286   2.173   0.061  0.00  0.00    +0.066 S 
ATOM      2  O   UNL     1      -4.369   2.844   1.311  0.00  0.00    -0.153 OA
ATOM      3  O   UNL     1      -4.396   2.858  -1.179  0.00  0.00    -0.153 OA
ENDROOT
BRANCH   1   8
ATOM      4  C   UNL     1      -0.730   1.583   1.270  0.00  0.00    +0.091 C 
ATOM      5  C   UNL     1      -0.016   1.089   0.009  0.00  0.00    +0.015 C 
ATOM      6  C   UNL     1      -0.756   1.598  -1.230  0.00  0.00    +0.018 C 
ATOM      7  C   UNL     1      -2.183   1.040  -1.232  0.00  0.00    +0.109 C 
ATOM      8  N   UNL     1      -2.828   1.388   0.041  0.00  0.00    -0.176 NA
ATOM      9  C   UNL     1      -2.156   1.026   1.296  0.00  0.00    +0.122 C 
BRANCH   4  11
ATOM     10  N   UNL     1       1.301   1.475   2.678  0.00  0.00    -0.270 N 
ATOM     11  C   UNL     1       0.018   1.109   2.489  0.00  0.00    +0.223 C 
ATOM     12  O   UNL     1      -0.536   0.398   3.301  0.00  0.00    -0.275 OA
ATOM     13  H   UNL     1       1.829   2.049   1.902  0.00  0.00    +0.156 HD
BRANCH  10  19
ATOM     14  C   UNL     1       1.213  -0.902   6.835  0.00  0.00    +0.065 C 
ATOM     15  C   UNL     1       1.944  -0.010   5.864  0.00  0.00    +0.040 A 
ATOM     16  C   UNL     1       3.219   0.425   6.165  0.00  0.00    +0.023 A 
ATOM     17  C   UNL     1       3.887   1.246   5.267  0.00  0.00    +0.005 A 
ATOM     18  C   UNL     1       3.246   1.596   4.091  0.00  0.00    +0.044 A 
ATOM     19  C   UNL     1       1.960   1.125   3.856  0.00  0.00    +0.125 A 
ATOM     20  N   UNL     1       1.356   0.344   4.738  0.00  0.00    -0.237 NA
ENDBRANCH  10  19
ENDBRANCH   4  11
ENDBRANCH   1   8
BRANCH   1  21
ATOM     21  C   UNL     1      -5.543   0.938   0.067  0.00  0.00    +0.174 A 
ATOM     22  C   UNL     1      -6.179   0.340  -1.038  0.00  0.00    +0.107 A 
ATOM     23  N   UNL     1      -7.035  -0.517  -0.558  0.00  0.00    -0.081 NA
ATOM     24  O   UNL     1      -7.032  -0.534   0.651  0.00  0.00    -0.353 OA
ATOM     25  C   UNL     1      -6.136   0.338   1.152  0.00  0.00    +0.187 A 
ATOM     26  C   UNL     1      -5.917   0.632  -2.493  0.00  0.00    +0.071 C 
BRANCH  25  27
ATOM     27  C   UNL     1      -5.850   0.594   2.567  0.00  0.00    +0.051 C 
ATOM     28  C   UNL     1      -6.520  -0.080   3.521  0.00  0.00    +0.012 C 
BRANCH  28  29
ATOM     29  C   UNL     1      -6.233   0.177   4.943  0.00  0.00    -0.019 A 
ATOM     30  C   UNL     1      -4.915   0.161   5.407  0.00  0.00    -0.043 A 
ATOM     31  C   UNL     1      -4.654   0.408   6.739  0.00  0.00    +0.007 A 
ATOM     32  C   UNL     1      -5.694   0.661   7.616  0.00  0.00    -0.050 A 
ATOM     33  C   UNL     1      -7.002   0.674   7.165  0.00  0.00    +0.007 A 
ATOM     34  C   UNL     1      -7.278   0.434   5.835  0.00  0.00    -0.043 A 
ATOM     35  C   UNL     1      -8.704   0.448   5.345  0.00  0.00    +0.044 C 
ATOM     36  C   UNL     1      -5.400   0.924   9.071  0.00  0.00    +0.044 C 
ATOM     37  C   UNL     1      -3.781  -0.121   4.455  0.00  0.00    +0.044 C 
ENDBRANCH  28  29
ENDBRANCH  25  27
ENDBRANCH   1  21
TORSDOF 6
