REMARK  Name = ZINC39533632
REMARK  7 active torsions:
REMARK  status: ('A' for Active; 'I' for Inactive)
REMARK    1  A    between atoms: C_4  and  C_7
REMARK    2  A    between atoms: C_7  and  C_8
REMARK    3  A    between atoms: N_11  and  C_15
REMARK    4  A    between atoms: C_15  and  C_17
REMARK    5  A    between atoms: C_15  and  C_20
REMARK    6  A    between atoms: C_17  and  N_18
REMARK    7  A    between atoms: C_23  and  C_26
REMARK                            x       y       z     vdW  Elec       q    Type
REMARK                         _______ _______ _______ _____ _____    ______ ____
ROOT
ATOM      1  C   UNL     1       7.356  -2.416   2.800  0.00  0.00    +0.101 C 
ENDROOT
BRANCH   1   4
ATOM      2  C   UNL     1       4.157  -0.722   1.757  0.00  0.00    -0.053 C 
ATOM      3  C   UNL     1       5.503  -1.432   1.591  0.00  0.00    +0.069 C 
ATOM      4  N   UNL     1       6.036  -1.782   2.915  0.00  0.00    -0.297 NA
ATOM      5  C   UNL     1       5.098  -2.647   3.644  0.00  0.00    +0.066 C 
ATOM      6  C   UNL     1       3.756  -1.926   3.793  0.00  0.00    -0.067 C 
ATOM      7  N   UNL     1       3.221  -1.606   2.463  0.00  0.00    +0.383 N 
ATOM      8  H   UNL     1       2.330  -1.142   2.562  0.00  0.00    -0.085 HD
ATOM      9  H   UNL     1       3.100  -2.458   1.936  0.00  0.00    -0.085 HD
BRANCH   2  10
ATOM     10  C   UNL     1       3.590  -0.374   0.379  0.00  0.00    +0.020 C 
BRANCH  10  14
ATOM     11  C   UNL     1       0.012   1.912   0.845  0.00  0.00    +0.000 A 
ATOM     12  C   UNL     1       1.234   2.551   0.760  0.00  0.00    +0.000 A 
ATOM     13  C   UNL     1       2.393   1.811   0.610  0.00  0.00    +0.003 A 
ATOM     14  C   UNL     1       2.328   0.432   0.544  0.00  0.00    -0.049 A 
ATOM     15  C   UNL     1       1.105  -0.207   0.630  0.00  0.00    +0.003 A 
ATOM     16  C   UNL     1      -0.053   0.532   0.779  0.00  0.00    +0.000 A 
ENDBRANCH  10  14
ENDBRANCH   2  10
ENDBRANCH   1   4
BRANCH   1  17
ATOM     17  C   UNL     1       7.905  -2.685   4.177  0.00  0.00    -0.029 A 
ATOM     18  C   UNL     1       7.729  -1.753   5.184  0.00  0.00    +0.006 A 
ATOM     19  C   UNL     1       8.230  -1.995   6.447  0.00  0.00    +0.009 A 
ATOM     20  C   UNL     1       8.915  -3.180   6.707  0.00  0.00    -0.018 A 
ATOM     21  C   UNL     1       9.090  -4.115   5.689  0.00  0.00    +0.009 A 
ATOM     22  C   UNL     1       8.580  -3.866   4.431  0.00  0.00    +0.006 A 
BRANCH  20  23
ATOM     23  C   UNL     1       9.456  -3.445   8.063  0.00  0.00    -0.018 A 
ATOM     24  C   UNL     1       9.276  -2.512   9.082  0.00  0.00    +0.008 A 
ATOM     25  C   UNL     1       9.782  -2.764  10.342  0.00  0.00    +0.001 A 
ATOM     26  C   UNL     1      10.466  -3.940  10.593  0.00  0.00    +0.000 A 
ATOM     27  C   UNL     1      10.648  -4.869   9.585  0.00  0.00    +0.001 A 
ATOM     28  C   UNL     1      10.141  -4.630   8.323  0.00  0.00    +0.008 A 
ENDBRANCH  20  23
ENDBRANCH   1  17
BRANCH   1  29
ATOM     29  C   UNL     1       8.306  -1.484   2.045  0.00  0.00    +0.115 C 
BRANCH  29  30
ATOM     30  N   UNL     1       9.604  -2.147   1.866  0.00  0.00    -0.259 NA
ATOM     31  I   UNL     1      10.969  -0.876   1.016  0.00  0.00    +0.018 I 
ATOM     32  H   UNL     1       9.507  -2.991   1.321  0.00  0.00    +0.134 HD
ENDBRANCH  29  30
ENDBRANCH   1  29
TORSDOF 7
