REMARK  Name = ZINC09130181
REMARK  7 active torsions:
REMARK  status: ('A' for Active; 'I' for Inactive)
REMARK    1  A    between atoms: C_1  and  C_2
REMARK    2  A    between atoms: C_7  and  N_8
REMARK    3  A    between atoms: N_12  and  C_26
REMARK    4  A    between atoms: C_13  and  C_17
REMARK    5  A    between atoms: C_20  and  C_23
REMARK    6  A    between atoms: C_23  and  C_24
REMARK    7  A    between atoms: C_23  and  C_25
REMARK                            x       y       z     vdW  Elec       q    Type
REMARK                         _______ _______ _______ _____ _____    ______ ____
ROOT
ATOM      1  N   UNL     1      -6.998  -0.202   0.281  0.00  0.00    -0.261 N 
ATOM      2  C   UNL     1      -7.356  -0.553   1.649  0.00  0.00    +0.210 C 
ATOM      3  C   UNL     1      -6.782  -1.881   2.038  0.00  0.00    +0.239 C 
ATOM      4  O   UNL     1      -7.270  -2.472   2.979  0.00  0.00    -0.273 OA
ATOM      5  N   UNL     1      -5.755  -2.442   1.392  0.00  0.00    -0.254 N 
ATOM      6  C   UNL     1      -5.100  -1.813   0.253  0.00  0.00    +0.198 C 
ATOM      7  C   UNL     1      -5.975  -0.766  -0.368  0.00  0.00    +0.246 C 
ATOM      8  O   UNL     1      -5.743  -0.415  -1.506  0.00  0.00    -0.273 OA
ENDROOT
BRANCH   1  15
ATOM      9  C   UNL     1      -6.199   2.519   0.504  0.00  0.00    +0.045 C 
ATOM     10  C   UNL     1      -7.404   2.106  -0.301  0.00  0.00    -0.029 A 
ATOM     11  C   UNL     1      -8.157   3.060  -0.957  0.00  0.00    +0.005 A 
ATOM     12  C   UNL     1      -9.264   2.682  -1.695  0.00  0.00    +0.000 A 
ATOM     13  C   UNL     1      -9.620   1.349  -1.779  0.00  0.00    +0.002 A 
ATOM     14  C   UNL     1      -8.868   0.389  -1.130  0.00  0.00    +0.024 A 
ATOM     15  C   UNL     1      -7.759   0.766  -0.383  0.00  0.00    +0.040 A 
ENDBRANCH   1  15
BRANCH   5  16
ATOM     16  C   UNL     1      -5.289  -3.688   1.829  0.00  0.00    +0.038 A 
ATOM     17  C   UNL     1      -5.742  -4.851   1.222  0.00  0.00    +0.025 A 
ATOM     18  C   UNL     1      -5.278  -6.079   1.651  0.00  0.00    +0.022 A 
ATOM     19  C   UNL     1      -4.369  -6.151   2.692  0.00  0.00    +0.041 A 
ATOM     20  C   UNL     1      -3.920  -4.992   3.303  0.00  0.00    +0.022 A 
ATOM     21  C   UNL     1      -4.378  -3.762   2.873  0.00  0.00    +0.025 A 
ATOM     22 CL   UNL     1      -3.791  -7.695   3.234  0.00  0.00    -0.084 Cl
ENDBRANCH   5  16
BRANCH   6  23
ATOM     23  C   UNL     1      -3.816  -1.174   0.714  0.00  0.00    -0.018 A 
ATOM     24  C   UNL     1      -2.674  -1.283  -0.057  0.00  0.00    +0.006 A 
ATOM     25  C   UNL     1      -1.496  -0.697   0.366  0.00  0.00    +0.004 A 
ATOM     26  C   UNL     1      -1.459  -0.001   1.560  0.00  0.00    -0.045 A 
ATOM     27  C   UNL     1      -2.600   0.103   2.334  0.00  0.00    +0.004 A 
ATOM     28  C   UNL     1      -3.780  -0.478   1.909  0.00  0.00    +0.006 A 
BRANCH  26  29
ATOM     29  C   UNL     1      -0.175   0.637   2.022  0.00  0.00    +0.013 C 
ATOM     30  C   UNL     1      -0.379   2.147   2.167  0.00  0.00    +0.012 C 
ATOM     31  C   UNL     1       0.233   0.045   3.372  0.00  0.00    +0.012 C 
ENDBRANCH  26  29
ENDBRANCH   6  23
TORSDOF 4
