REMARK  Name = ZINC14475828
REMARK  5 active torsions:
REMARK  status: ('A' for Active; 'I' for Inactive)
REMARK    1  A    between atoms: C_3  and  O_35
REMARK    2  A    between atoms: C_4  and  C_10
REMARK    3  A    between atoms: C_6  and  N_7
REMARK    4  A    between atoms: C_21  and  S_26
REMARK    5  A    between atoms: S_26  and  N_29
REMARK                            x       y       z     vdW  Elec       q    Type
REMARK                         _______ _______ _______ _____ _____    ______ ____
ROOT
ATOM      1  C   UNL     1      -7.829   0.716  -1.182  0.00  0.00    +0.108 C 
ATOM      2  C   UNL     1      -7.993   1.628  -2.401  0.00  0.00    +0.029 C 
ATOM      3  C   UNL     1      -8.209   0.711  -3.641  0.00  0.00    +0.033 C 
ATOM      4  C   UNL     1      -6.800   0.304  -4.027  0.00  0.00    -0.030 C 
ATOM      5  C   UNL     1      -5.929   1.159  -3.551  0.00  0.00    -0.023 C 
ATOM      6  C   UNL     1      -6.634   2.249  -2.780  0.00  0.00    +0.049 C 
ATOM      7  C   UNL     1      -5.837   2.679  -1.589  0.00  0.00    -0.018 A 
ATOM      8  C   UNL     1      -4.721   3.480  -1.788  0.00  0.00    +0.034 A 
ATOM      9  C   UNL     1      -3.956   3.896  -0.718  0.00  0.00    +0.106 A 
ATOM     10  C   UNL     1      -4.300   3.528   0.571  0.00  0.00    +0.030 A 
ATOM     11  C   UNL     1      -5.411   2.735   0.782  0.00  0.00    +0.025 A 
ATOM     12  C   UNL     1      -6.178   2.311  -0.296  0.00  0.00    +0.031 A 
ATOM     13  N   UNL     1      -7.298   1.506  -0.066  0.00  0.00    -0.336 N 
ATOM     14  H   UNL     1      -7.780   1.456   0.921  0.00  0.00    +0.147 HD
ENDROOT
BRANCH   1  18
ATOM     15  C   UNL     1      -5.109  -2.447  -2.117  0.00  0.00    +0.036 A 
ATOM     16  C   UNL     1      -6.471  -2.663  -2.207  0.00  0.00    +0.048 A 
ATOM     17  C   UNL     1      -7.355  -1.639  -1.905  0.00  0.00    +0.122 A 
ATOM     18  C   UNL     1      -6.870  -0.399  -1.512  0.00  0.00    +0.017 A 
ATOM     19  C   UNL     1      -5.508  -0.187  -1.429  0.00  0.00    +0.041 A 
ATOM     20  C   UNL     1      -4.628  -1.212  -1.725  0.00  0.00    +0.127 A 
BRANCH  20  21
ATOM     21  N   UNL     1      -3.169  -0.984  -1.629  0.00  0.00    +0.056 N 
ATOM     22  O   UNL     1      -2.392  -1.846  -1.998  0.00  0.00    -0.126 OA
ATOM     23  O   UNL     1      -2.745   0.067  -1.182  0.00  0.00    -0.126 OA
ENDBRANCH  20  21
BRANCH  17  24
ATOM     24  O   UNL     1      -8.695  -1.848  -1.993  0.00  0.00    -0.506 OA
ATOM     25  H   UNL     1      -9.396  -1.035  -1.753  0.00  0.00    +0.292 HD
ENDBRANCH  17  24
ENDBRANCH   1  18
BRANCH   9  26
ATOM     26  S   UNL     1      -2.539   4.907  -0.992  0.00  0.00    +0.061 S 
ATOM     27  O   UNL     1      -2.367   5.691   0.180  0.00  0.00    -0.153 OA
ATOM     28  O   UNL     1      -2.697   5.487  -2.280  0.00  0.00    -0.153 OA
BRANCH  26  29
ATOM     29  N   UNL     1      -1.229   3.899  -1.085  0.00  0.00    -0.177 NA
ATOM     30  C   UNL     1      -0.695   3.483  -2.389  0.00  0.00    +0.109 C 
ATOM     31  C   UNL     1      -0.622   1.954  -2.427  0.00  0.00    +0.017 C 
ATOM     32  C   UNL     1       0.189   1.456  -1.228  0.00  0.00    +0.003 C 
ATOM     33  C   UNL     1      -0.507   1.874   0.069  0.00  0.00    +0.017 C 
ATOM     34  C   UNL     1      -0.579   3.403   0.136  0.00  0.00    +0.109 C 
ENDBRANCH  26  29
ENDBRANCH   9  26
TORSDOF 5
