REMARK  Name = ZINC03007136
REMARK  12 active torsions:
REMARK  status: ('A' for Active; 'I' for Inactive)
REMARK    1  A    between atoms: C_1  and  C_2
REMARK    2  A    between atoms: C_5  and  C_37
REMARK    3  A    between atoms: N_8  and  S_10
REMARK    4  A    between atoms: S_10  and  C_13
REMARK    5  A    between atoms: C_16  and  C_19
REMARK    6  A    between atoms: N_21  and  C_22
REMARK    7  A    between atoms: C_23  and  C_33
REMARK    8  A    between atoms: C_30  and  C_31
REMARK    9  A    between atoms: C_30  and  C_32
REMARK   10  A    between atoms: C_30  and  N_71
REMARK   11  A    between atoms: C_33  and  O_35
REMARK   12  A    between atoms: O_35  and  C_36
REMARK                            x       y       z     vdW  Elec       q    Type
REMARK                         _______ _______ _______ _____ _____    ______ ____
ROOT
ATOM      1  C   UNL     1       0.060  -4.251  -0.023  0.00  0.00    +0.249 C 
ATOM      2  O   UNL     1      -0.898  -4.869  -0.444  0.00  0.00    -0.270 OA
ATOM      3  N   UNL     1       1.141  -4.913   0.435  0.00  0.00    -0.275 N 
ATOM      4  H   UNL     1       1.906  -4.419   0.770  0.00  0.00    +0.156 HD
ENDROOT
BRANCH   3   5
ATOM      5  C   UNL     1       1.161  -6.297   0.426  0.00  0.00    +0.086 A 
ATOM      6  C   UNL     1       2.175  -7.149   0.847  0.00  0.00    +0.091 A 
ATOM      7  C   UNL     1       1.938  -8.577   0.735  0.00  0.00    -0.025 A 
ATOM      8  C   UNL     1       0.740  -8.924   0.213  0.00  0.00    -0.021 A 
ATOM      9  S   UNL     1      -0.071  -7.388  -0.118  0.00  0.00    -0.079 S 
ATOM     10  C   UNL     1       0.243 -10.316  -0.021  0.00  0.00    -0.035 C 
ATOM     11  C   UNL     1       2.172 -10.977   1.287  0.00  0.00    -0.073 C 
ATOM     12  C   UNL     1       2.932  -9.654   1.152  0.00  0.00    +0.018 C 
ATOM     13  N   UNL     1       1.408 -11.232   0.049  0.00  0.00    +0.384 N 
ATOM     14  H   UNL     1       2.016 -11.061  -0.761  0.00  0.00    -0.081 HD
BRANCH  13  15
ATOM     15  C   UNL     1       0.949 -12.637   0.017  0.00  0.00    -0.074 C 
ATOM     16  C   UNL     1       0.023 -12.925   1.201  0.00  0.00    -0.014 C 
ATOM     17  C   UNL     1       0.196 -12.885  -1.292  0.00  0.00    -0.014 C 
ENDBRANCH  13  15
BRANCH   6  18
ATOM     18  C   UNL     1       3.432  -6.628   1.386  0.00  0.00    +0.342 C 
ATOM     19  O   UNL     1       3.543  -6.422   2.580  0.00  0.00    -0.245 OA
BRANCH  18  20
ATOM     20  O   UNL     1       4.467  -6.374   0.559  0.00  0.00    -0.464 OA
ATOM     21  C   UNL     1       5.683  -5.858   1.163  0.00  0.00    +0.280 C 
ENDBRANCH  18  20
ENDBRANCH   6  18
ENDBRANCH   3   5
BRANCH   1  25
ATOM     22  C   UNL     1       0.002  -0.004   0.002  0.00  0.00    +0.106 A 
ATOM     23  C   UNL     1       1.116  -0.680   0.468  0.00  0.00    +0.029 A 
ATOM     24  C   UNL     1       1.139  -2.060   0.468  0.00  0.00    +0.015 A 
ATOM     25  C   UNL     1       0.040  -2.773  -0.014  0.00  0.00    +0.037 A 
ATOM     26  C   UNL     1      -1.078  -2.084  -0.488  0.00  0.00    +0.015 A 
ATOM     27  C   UNL     1      -1.091  -0.705  -0.477  0.00  0.00    +0.029 A 
BRANCH  22  28
ATOM     28  S   UNL     1      -0.022   1.758   0.012  0.00  0.00    +0.061 S 
ATOM     29  O   UNL     1       1.334   2.182   0.001  0.00  0.00    -0.153 OA
ATOM     30  O   UNL     1      -0.953   2.157  -0.985  0.00  0.00    -0.153 OA
BRANCH  28  36
ATOM     31  C   UNL     1      -2.418   0.110   2.496  0.00  0.00    +0.009 C 
ATOM     32  C   UNL     1      -2.589   1.597   2.813  0.00  0.00    +0.002 C 
ATOM     33  C   UNL     1      -1.766   1.953   4.053  0.00  0.00    +0.009 C 
ATOM     34  C   UNL     1      -0.293   1.623   3.803  0.00  0.00    +0.002 C 
ATOM     35  C   UNL     1       0.221   2.458   2.626  0.00  0.00    +0.112 C 
ATOM     36  N   UNL     1      -0.654   2.231   1.467  0.00  0.00    -0.176 NA
ATOM     37  C   UNL     1      -2.101   2.438   1.623  0.00  0.00    +0.112 C 
ATOM     38  C   UNL     1       0.523   1.948   5.055  0.00  0.00    +0.009 C 
ENDBRANCH  28  36
ENDBRANCH  22  28
ENDBRANCH   1  25
TORSDOF 7
