REMARK  Name = ZINC35326311
REMARK  13 active torsions:
REMARK  status: ('A' for Active; 'I' for Inactive)
REMARK    1  A    between atoms: C_1  and  C_2
REMARK    2  A    between atoms: C_2  and  O_3
REMARK    3  A    between atoms: O_3  and  C_4
REMARK    4  A    between atoms: C_4  and  C_6
REMARK    5  A    between atoms: C_7  and  C_38
REMARK    6  A    between atoms: C_11  and  N_24
REMARK    7  A    between atoms: C_12  and  C_14
REMARK    8  A    between atoms: C_14  and  C_16
REMARK    9  A    between atoms: C_19  and  O_22
REMARK   10  A    between atoms: O_22  and  C_23
REMARK   11  A    between atoms: C_25  and  C_27
REMARK   12  A    between atoms: C_31  and  O_33
REMARK   13  A    between atoms: O_33  and  C_34
REMARK                            x       y       z     vdW  Elec       q    Type
REMARK                         _______ _______ _______ _____ _____    ______ ____
ROOT
ATOM      1  C   UNL     1       2.273  -2.119  -2.286  0.00  0.00    +0.065 C 
ATOM      2  C   UNL     1       2.520  -3.436  -2.278  0.00  0.00    +0.016 C 
ATOM      3  N   UNL     1       3.085  -4.075  -3.356  0.00  0.00    -0.312 N 
ATOM      4  C   UNL     1       3.146  -3.378  -4.536  0.00  0.00    +0.076 A 
ATOM      5  C   UNL     1       2.919  -2.013  -4.669  0.00  0.00    +0.014 A 
ATOM      6  C   UNL     1       3.019  -1.492  -5.945  0.00  0.00    +0.049 A 
ATOM      7  C   UNL     1       3.340  -2.345  -7.005  0.00  0.00    +0.082 A 
ATOM      8  S   UNL     1       3.505  -3.921  -6.179  0.00  0.00    -0.068 S 
ATOM      9  C   UNL     1       2.582  -1.197  -3.428  0.00  0.00    +0.092 C 
ATOM     10  C   UNL     1       2.170  -4.239  -1.052  0.00  0.00    +0.061 C 
ATOM     11  H   UNL     1       3.426  -4.981  -3.286  0.00  0.00    +0.152 HD
ENDROOT
BRANCH   9  12
ATOM     12  C   UNL     1       3.760  -0.329  -3.068  0.00  0.00    -0.028 A 
ATOM     13  C   UNL     1       3.618   1.046  -3.033  0.00  0.00    +0.054 A 
ATOM     14  C   UNL     1       4.699   1.849  -2.703  0.00  0.00    +0.170 A 
ATOM     15  C   UNL     1       5.928   1.268  -2.405  0.00  0.00    +0.208 A 
ATOM     16  C   UNL     1       6.065  -0.114  -2.441  0.00  0.00    +0.166 A 
ATOM     17  C   UNL     1       4.977  -0.910  -2.768  0.00  0.00    +0.054 A 
ATOM     18  O   UNL     1       6.821   2.260  -2.115  0.00  0.00    -0.449 OA
ATOM     19  C   UNL     1       6.235   3.468  -2.635  0.00  0.00    +0.467 C 
ATOM     20  O   UNL     1       4.820   3.204  -2.599  0.00  0.00    -0.452 OA
BRANCH  16  21
ATOM     21  O   UNL     1       7.264  -0.687  -2.150  0.00  0.00    -0.491 OA
ATOM     22  C   UNL     1       7.333  -2.113  -2.207  0.00  0.00    +0.277 C 
ENDBRANCH  16  21
ENDBRANCH   9  12
BRANCH   6  23
ATOM     23  N   UNL     1       2.803  -0.137  -6.172  0.00  0.00    -0.357 N 
ATOM     24  H   UNL     1       2.580   0.449  -5.432  0.00  0.00    +0.142 HD
ATOM     25  H   UNL     1       2.875   0.222  -7.070  0.00  0.00    +0.142 HD
ENDBRANCH   6  23
BRANCH   1  26
ATOM     26  C   UNL     1       1.672  -1.560  -1.136  0.00  0.00    +0.338 C 
ATOM     27  O   UNL     1       0.475  -1.341  -1.121  0.00  0.00    -0.245 OA
BRANCH  26  28
ATOM     28  O   UNL     1       2.426  -1.268  -0.055  0.00  0.00    -0.462 OA
BRANCH  28  30
ATOM     29  C   UNL     1       2.762  -0.443   2.191  0.00  0.00    +0.048 C 
ATOM     30  C   UNL     1       1.752  -0.704   1.072  0.00  0.00    +0.229 C 
ENDBRANCH  28  30
ENDBRANCH  26  28
ENDBRANCH   1  26
BRANCH   7  31
ATOM     31  C   UNL     1       3.494  -2.041  -8.371  0.00  0.00    +0.202 C 
ATOM     32  O   UNL     1       3.225  -0.924  -8.781  0.00  0.00    -0.286 OA
BRANCH  31  33
ATOM     33  C   UNL     1       3.980  -3.075  -9.309  0.00  0.00    +0.023 A 
ATOM     34  C   UNL     1       3.671  -2.989 -10.668  0.00  0.00    +0.015 A 
ATOM     35  C   UNL     1       4.126  -3.955 -11.538  0.00  0.00    +0.046 A 
ATOM     36  C   UNL     1       4.891  -5.014 -11.066  0.00  0.00    +0.120 A 
ATOM     37  C   UNL     1       5.202  -5.102  -9.714  0.00  0.00    +0.046 A 
ATOM     38  C   UNL     1       4.755  -4.137  -8.838  0.00  0.00    +0.015 A 
BRANCH  36  39
ATOM     39  O   UNL     1       5.338  -5.964 -11.926  0.00  0.00    -0.495 OA
ATOM     40  C   UNL     1       6.120  -7.024 -11.374  0.00  0.00    +0.277 C 
ENDBRANCH  36  39
ENDBRANCH  31  33
ENDBRANCH   7  31
TORSDOF 9
