REMARK  Name = ZINC49929735
REMARK  8 active torsions:
REMARK  status: ('A' for Active; 'I' for Inactive)
REMARK    1  A    between atoms: C_1  and  C_2
REMARK    2  A    between atoms: N_11  and  C_15
REMARK    3  A    between atoms: C_15  and  C_16
REMARK    4  A    between atoms: N_18  and  C_19
REMARK    5  A    between atoms: C_19  and  C_20
REMARK    6  A    between atoms: C_20  and  N_26
REMARK    7  A    between atoms: N_26  and  C_27
REMARK    8  A    between atoms: N_26  and  C_28
REMARK                            x       y       z     vdW  Elec       q    Type
REMARK                         _______ _______ _______ _____ _____    ______ ____
ROOT
ATOM      1  C   UNL     1       3.657   1.343   2.935  0.00  0.00    +0.213 C 
ENDROOT
BRANCH   1  11
ATOM      2  C   UNL     1       0.334   1.124   0.008  0.00  0.00    +0.010 C 
ATOM      3  C   UNL     1       0.430  -0.403   0.018  0.00  0.00    +0.018 C 
ATOM      4  C   UNL     1       1.178  -0.875  -1.231  0.00  0.00    +0.006 C 
ATOM      5  C   UNL     1       1.292  -2.401  -1.209  0.00  0.00    +0.000 C 
ATOM      6  C   UNL     1       2.068  -2.838   0.035  0.00  0.00    +0.003 C 
ATOM      7  C   UNL     1       1.323  -2.373   1.289  0.00  0.00    +0.035 C 
ATOM      8  C   UNL     1       1.181  -0.856   1.266  0.00  0.00    +0.115 C 
ATOM      9  C   UNL     1       2.539  -0.196   1.333  0.00  0.00    +0.247 C 
ATOM     10  O   UNL     1       3.445  -0.300   0.534  0.00  0.00    -0.273 OA
ATOM     11  N   UNL     1       2.530   0.532   2.469  0.00  0.00    -0.215 N 
ATOM     12  C   UNL     1       1.364   0.420   3.117  0.00  0.00    +0.310 C 
ATOM     13  O   UNL     1       1.117   0.984   4.165  0.00  0.00    -0.252 OA
ATOM     14  N   UNL     1       0.496  -0.386   2.477  0.00  0.00    -0.285 N 
ATOM     15  H   UNL     1      -0.404  -0.611   2.760  0.00  0.00    +0.151 HD
ENDBRANCH   1  11
BRANCH   1  16
ATOM     16  C   UNL     1       3.538   2.737   2.376  0.00  0.00    +0.231 C 
ATOM     17  O   UNL     1       2.603   3.025   1.659  0.00  0.00    -0.274 OA
ATOM     18  N   UNL     1       4.470   3.665   2.673  0.00  0.00    -0.315 N 
ATOM     19  H   UNL     1       5.217   3.435   3.247  0.00  0.00    +0.149 HD
BRANCH  18  20
ATOM     20  C   UNL     1       4.354   5.020   2.130  0.00  0.00    +0.092 C 
BRANCH  20  21
ATOM     21  C   UNL     1       5.448   5.905   2.729  0.00  0.00    -0.050 C 
ATOM     22  C   UNL     1       5.249   7.349   2.262  0.00  0.00    -0.010 C 
ATOM     23  C   UNL     1       5.326   7.406   0.735  0.00  0.00    -0.001 C 
ATOM     24  C   UNL     1       6.696   6.906   0.274  0.00  0.00    -0.000 C 
ATOM     25  C   UNL     1       6.895   5.462   0.741  0.00  0.00    -0.001 C 
ATOM     26  C   UNL     1       6.819   5.405   2.268  0.00  0.00    -0.010 C 
BRANCH  21  27
ATOM     27  N   UNL     1       5.375   5.850   4.195  0.00  0.00    +0.381 N 
ATOM     28  C   UNL     1       6.403   6.728   4.770  0.00  0.00    -0.096 C 
ATOM     29  C   UNL     1       4.047   6.298   4.636  0.00  0.00    -0.096 C 
ATOM     30  H   UNL     1       5.530   4.902   4.504  0.00  0.00    -0.082 HD
ENDBRANCH  21  27
ENDBRANCH  20  21
ENDBRANCH  18  20
ENDBRANCH   1  16
TORSDOF 5
