REMARK  Name = ZINC22852243
REMARK  6 active torsions:
REMARK  status: ('A' for Active; 'I' for Inactive)
REMARK    1  A    between atoms: C_4  and  N_7
REMARK    2  A    between atoms: N_10  and  C_13
REMARK    3  A    between atoms: C_13  and  C_15
REMARK    4  A    between atoms: C_13  and  C_22
REMARK    5  A    between atoms: C_23  and  O_35
REMARK    6  A    between atoms: C_28  and  C_30
REMARK                            x       y       z     vdW  Elec       q    Type
REMARK                         _______ _______ _______ _____ _____    ______ ____
ROOT
ATOM      1  C   UNL     1       2.490   1.046  -0.016  0.00  0.00    +0.129 C 
ENDROOT
BRANCH   1   2
ATOM      2  C   UNL     1       2.797   0.985  -1.490  0.00  0.00    +0.076 A 
ATOM      3  C   UNL     1       2.658  -0.040  -2.339  0.00  0.00    +0.228 A 
ATOM      4  N   UNL     1       2.995   0.096  -3.664  0.00  0.00    -0.173 N 
ATOM      5  C   UNL     1       3.471   1.314  -4.064  0.00  0.00    +0.200 A 
ATOM      6  S   UNL     1       3.434   2.264  -2.563  0.00  0.00    -0.047 S 
ATOM      7  N   UNL     1       3.743   1.283  -5.338  0.00  0.00    -0.197 NA
ATOM      8  C   UNL     1       3.462   0.065  -5.822  0.00  0.00    +0.218 A 
ATOM      9  N   UNL     1       3.006  -0.690  -4.846  0.00  0.00    -0.138 NA
BRANCH   8  10
ATOM     10  C   UNL     1       3.637  -0.362  -7.226  0.00  0.00    +0.173 A 
ATOM     11  C   UNL     1       4.107   0.410  -8.242  0.00  0.00    +0.053 A 
ATOM     12  C   UNL     1       4.108  -0.396  -9.397  0.00  0.00    +0.042 A 
ATOM     13  C   UNL     1       3.643  -1.607  -9.034  0.00  0.00    +0.196 A 
ATOM     14  O   UNL     1       3.364  -1.584  -7.720  0.00  0.00    -0.460 OA
ENDBRANCH   8  10
BRANCH   3  15
ATOM     15  O   UNL     1       2.179  -1.230  -1.885  0.00  0.00    -0.492 OA
ATOM     16  H   UNL     1       2.062  -2.076  -2.578  0.00  0.00    +0.294 HD
ENDBRANCH   3  15
ENDBRANCH   1   2
BRANCH   1  17
ATOM     17  C   UNL     1       1.240   1.860   0.203  0.00  0.00    -0.025 A 
ATOM     18  C   UNL     1       0.056   1.230   0.536  0.00  0.00    +0.008 A 
ATOM     19  C   UNL     1      -1.092   1.974   0.732  0.00  0.00    +0.038 A 
ATOM     20  C   UNL     1      -1.053   3.352   0.604  0.00  0.00    +0.123 A 
ATOM     21  C   UNL     1       0.134   3.982   0.270  0.00  0.00    +0.038 A 
ATOM     22  C   UNL     1       1.279   3.235   0.070  0.00  0.00    +0.008 A 
ATOM     23  F   UNL     1      -2.174   4.081   0.799  0.00  0.00    -0.205 F 
ENDBRANCH   1  17
BRANCH   1  27
ATOM     24  N   UNL     1       5.753   1.769   2.568  0.00  0.00    -0.327 N 
ATOM     25  C   UNL     1       4.499   2.493   2.823  0.00  0.00    +0.120 C 
ATOM     26  C   UNL     1       3.343   1.763   2.134  0.00  0.00    +0.104 C 
ATOM     27  N   UNL     1       3.613   1.674   0.692  0.00  0.00    -0.288 NA
ATOM     28  C   UNL     1       4.867   0.951   0.438  0.00  0.00    +0.104 C 
ATOM     29  C   UNL     1       6.023   1.680   1.127  0.00  0.00    +0.120 C 
BRANCH  24  33
ATOM     30  C   UNL     1       8.937   3.549   4.575  0.00  0.00    +0.000 A 
ATOM     31  C   UNL     1       9.152   2.426   3.799  0.00  0.00    +0.002 A 
ATOM     32  C   UNL     1       8.098   1.833   3.132  0.00  0.00    +0.023 A 
ATOM     33  C   UNL     1       6.821   2.366   3.242  0.00  0.00    +0.030 A 
ATOM     34  C   UNL     1       6.609   3.498   4.019  0.00  0.00    +0.023 A 
ATOM     35  C   UNL     1       7.666   4.083   4.687  0.00  0.00    +0.002 A 
ENDBRANCH  24  33
ENDBRANCH   1  27
TORSDOF 6
