REMARK  Name = ZINC33059076
REMARK  10 active torsions:
REMARK  status: ('A' for Active; 'I' for Inactive)
REMARK    1  A    between atoms: C_1  and  C_2
REMARK    2  A    between atoms: C_3  and  S_17
REMARK    3  A    between atoms: C_4  and  C_7
REMARK    4  A    between atoms: C_8  and  C_9
REMARK    5  A    between atoms: S_17  and  N_20
REMARK    6  A    between atoms: C_23  and  C_26
REMARK    7  A    between atoms: N_28  and  C_29
REMARK    8  A    between atoms: C_29  and  C_31
REMARK    9  A    between atoms: C_29  and  C_32
REMARK   10  A    between atoms: C_32  and  C_33
REMARK                            x       y       z     vdW  Elec       q    Type
REMARK                         _______ _______ _______ _____ _____    ______ ____
ROOT
ATOM      1  S   UNL     1       1.154   5.168  -2.137  0.00  0.00    +0.066 S 
ATOM      2  O   UNL     1       0.030   5.837  -2.691  0.00  0.00    -0.153 OA
ATOM      3  O   UNL     1       2.199   5.860  -1.467  0.00  0.00    -0.153 OA
ENDROOT
BRANCH   1   6
ATOM      4  C   UNL     1       4.344   4.066  -2.556  0.00  0.00    +0.071 C 
ATOM      5  C   UNL     1       3.244   3.844  -3.562  0.00  0.00    +0.107 A 
ATOM      6  C   UNL     1       1.907   4.271  -3.454  0.00  0.00    +0.174 A 
ATOM      7  C   UNL     1       1.324   3.826  -4.628  0.00  0.00    +0.187 A 
ATOM      8  O   UNL     1       2.302   3.197  -5.308  0.00  0.00    -0.353 OA
ATOM      9  N   UNL     1       3.346   3.218  -4.701  0.00  0.00    -0.081 NA
BRANCH   7  10
ATOM     10  C   UNL     1      -0.070   4.003  -5.044  0.00  0.00    +0.052 C 
ATOM     11  C   UNL     1      -0.487   3.507  -6.226  0.00  0.00    +0.014 C 
BRANCH  11  12
ATOM     12  C   UNL     1      -1.887   3.685  -6.644  0.00  0.00    +0.010 A 
ATOM     13  C   UNL     1      -2.788   4.362  -5.816  0.00  0.00    +0.013 A 
ATOM     14  C   UNL     1      -4.096   4.529  -6.215  0.00  0.00    +0.039 A 
ATOM     15  C   UNL     1      -4.524   4.019  -7.432  0.00  0.00    +0.126 A 
ATOM     16  C   UNL     1      -3.640   3.342  -8.257  0.00  0.00    +0.077 A 
ATOM     17  C   UNL     1      -2.325   3.171  -7.871  0.00  0.00    +0.133 A 
ATOM     18  F   UNL     1      -1.463   2.511  -8.676  0.00  0.00    -0.205 F 
ATOM     19  F   UNL     1      -5.809   4.183  -7.814  0.00  0.00    -0.205 F 
ENDBRANCH  11  12
ENDBRANCH   7  10
ENDBRANCH   1   6
BRANCH   1  20
ATOM     20  N   UNL     1       0.561   4.055  -1.063  0.00  0.00    -0.176 NA
ATOM     21  C   UNL     1       1.393   3.563   0.043  0.00  0.00    +0.110 C 
ATOM     22  C   UNL     1       1.417   2.032  -0.001  0.00  0.00    +0.030 C 
ATOM     23  C   UNL     1      -0.018   1.503   0.010  0.00  0.00    +0.077 C 
ATOM     24  C   UNL     1      -0.760   2.009  -1.229  0.00  0.00    +0.030 C 
ATOM     25  C   UNL     1      -0.809   3.540  -1.199  0.00  0.00    +0.110 C 
BRANCH  23  26
ATOM     26  C   UNL     1       0.002  -0.004   0.002  0.00  0.00    +0.216 C 
ATOM     27  O   UNL     1       1.060  -0.596  -0.011  0.00  0.00    -0.276 OA
ATOM     28  N   UNL     1      -1.156  -0.694   0.009  0.00  0.00    -0.312 N 
ATOM     29  H   UNL     1      -2.116  -0.157   0.021  0.00  0.00    +0.149 HD
BRANCH  28  30
ATOM     30  C   UNL     1      -1.136  -2.159   0.001  0.00  0.00    +0.077 C 
ATOM     31  C   UNL     1      -0.990  -2.675   1.434  0.00  0.00    +0.028 C 
BRANCH  30  32
ATOM     32  C   UNL     1      -2.442  -2.683  -0.599  0.00  0.00    +0.096 C 
BRANCH  32  33
ATOM     33  C   UNL     1      -2.528  -2.278  -2.048  0.00  0.00    +0.107 A 
ATOM     34  C   UNL     1      -2.064  -2.987  -3.092  0.00  0.00    +0.045 A 
ATOM     35  C   UNL     1      -2.356  -2.241  -4.256  0.00  0.00    +0.041 A 
ATOM     36  C   UNL     1      -2.974  -1.116  -3.854  0.00  0.00    +0.195 A 
ATOM     37  O   UNL     1      -3.075  -1.143  -2.515  0.00  0.00    -0.468 OA
ENDBRANCH  32  33
ENDBRANCH  30  32
ENDBRANCH  28  30
ENDBRANCH  23  26
ENDBRANCH   1  20
TORSDOF 8
