REMARK  Name = ZINC09610127
REMARK  3 active torsions:
REMARK  status: ('A' for Active; 'I' for Inactive)
REMARK    1  A    between atoms: C_7  and  N_12
REMARK    2  A    between atoms: N_12  and  S_13
REMARK    3  A    between atoms: S_13  and  C_16
REMARK                            x       y       z     vdW  Elec       q    Type
REMARK                         _______ _______ _______ _____ _____    ______ ____
ROOT
ATOM      1  S   UNL     1       3.137   5.155   3.715  0.00  0.00    +0.059 S 
ATOM      2  O   UNL     1       2.377   6.242   3.207  0.00  0.00    -0.153 OA
ATOM      3  O   UNL     1       3.144   4.807   5.093  0.00  0.00    -0.153 OA
ENDROOT
BRANCH   1   4
ATOM      4  C   UNL     1       2.613   3.720   2.836  0.00  0.00    +0.109 A 
ATOM      5  C   UNL     1       2.877   2.463   3.348  0.00  0.00    +0.032 A 
ATOM      6  C   UNL     1       2.468   1.333   2.664  0.00  0.00    +0.051 A 
ATOM      7  C   UNL     1       1.793   1.464   1.462  0.00  0.00    +0.162 A 
ATOM      8  C   UNL     1       1.529   2.725   0.948  0.00  0.00    +0.164 A 
ATOM      9  C   UNL     1       1.939   3.855   1.635  0.00  0.00    +0.078 A 
ATOM     10  O   UNL     1       0.865   2.845  -0.238  0.00  0.00    -0.488 OA
ATOM     11  C   UNL     1      -0.508   2.448  -0.228  0.00  0.00    +0.232 C 
ATOM     12  C   UNL     1      -0.637   0.947  -0.433  0.00  0.00    +0.082 C 
ATOM     13  C   UNL     1      -0.029   0.151   0.711  0.00  0.00    +0.232 C 
ATOM     14  O   UNL     1       1.383   0.357   0.777  0.00  0.00    -0.488 OA
ENDBRANCH   1   4
BRANCH   1  15
ATOM     15  N   UNL     1       4.712   5.440   3.291  0.00  0.00    -0.182 NA
ATOM     16  H   UNL     1       5.411   5.395   3.962  0.00  0.00    +0.149 HD
BRANCH  15  23
ATOM     17  C   UNL     1       7.860   3.258   1.683  0.00  0.00    +0.001 A 
ATOM     18  C   UNL     1       8.806   3.947   0.947  0.00  0.00    +0.004 A 
ATOM     19  C   UNL     1       8.543   5.231   0.516  0.00  0.00    +0.046 A 
ATOM     20  C   UNL     1       7.328   5.836   0.821  0.00  0.00    +0.125 A 
ATOM     21  C   UNL     1       6.382   5.143   1.555  0.00  0.00    +0.013 A 
ATOM     22  C   UNL     1       6.652   3.855   1.985  0.00  0.00    +0.009 A 
ATOM     23  C   UNL     1       5.051   5.760   1.902  0.00  0.00    +0.113 C 
ATOM     24  C   UNL     1       5.127   7.280   1.734  0.00  0.00    +0.066 C 
ATOM     25  C   UNL     1       5.763   7.582   0.371  0.00  0.00    +0.231 C 
ATOM     26  O   UNL     1       7.110   7.105   0.387  0.00  0.00    -0.492 OA
ENDBRANCH  15  23
ENDBRANCH   1  15
TORSDOF 3
