REMARK  Name = ZINC38728441
REMARK  14 active torsions:
REMARK  status: ('A' for Active; 'I' for Inactive)
REMARK    1  A    between atoms: C_1  and  C_2
REMARK    2  A    between atoms: C_2  and  C_3
REMARK    3  A    between atoms: N_16  and  C_29
REMARK    4  A    between atoms: C_17  and  C_19
REMARK    5  A    between atoms: C_22  and  C_25
REMARK    6  A    between atoms: C_25  and  C_26
REMARK    7  A    between atoms: C_25  and  C_27
REMARK    8  A    between atoms: C_25  and  C_28
REMARK    9  A    between atoms: C_29  and  C_30
REMARK   10  A    between atoms: C_30  and  N_31
REMARK   11  A    between atoms: N_31  and  C_32
REMARK   12  A    between atoms: N_31  and  C_34
REMARK   13  A    between atoms: C_32  and  C_33
REMARK   14  A    between atoms: C_34  and  C_35
REMARK                            x       y       z     vdW  Elec       q    Type
REMARK                         _______ _______ _______ _____ _____    ______ ____
ROOT
ATOM      1  C   UNL     1      -1.703  -0.996   0.697  0.00  0.00    -0.047 A 
ATOM      2  C   UNL     1      -2.469  -1.200   1.837  0.00  0.00    +0.007 A 
ATOM      3  C   UNL     1      -3.778  -1.613   1.742  0.00  0.00    +0.047 A 
ATOM      4  C   UNL     1      -4.354  -1.831   0.490  0.00  0.00    +0.139 A 
ATOM      5  C   UNL     1      -3.572  -1.615  -0.656  0.00  0.00    +0.065 A 
ATOM      6  C   UNL     1      -2.246  -1.195  -0.542  0.00  0.00    +0.019 A 
ATOM      7  C   UNL     1      -4.180  -1.828  -1.994  0.00  0.00    +0.199 A 
ATOM      8  O   UNL     1      -3.535  -1.829  -3.028  0.00  0.00    -0.287 OA
ATOM      9  C   UNL     1      -5.631  -2.039  -1.952  0.00  0.00    +0.072 A 
ATOM     10  C   UNL     1      -6.281  -2.229  -0.765  0.00  0.00    +0.199 A 
ATOM     11  O   UNL     1      -5.640  -2.243   0.420  0.00  0.00    -0.450 OA
ATOM     12  C   UNL     1      -7.716  -2.403  -1.047  0.00  0.00    +0.283 C 
ATOM     13  O   UNL     1      -8.573  -2.588  -0.206  0.00  0.00    -0.267 OA
ATOM     14  N   UNL     1      -7.941  -2.326  -2.375  0.00  0.00    -0.285 N 
ATOM     15  C   UNL     1      -6.649  -2.094  -3.042  0.00  0.00    +0.144 C 
ENDROOT
BRANCH  15  16
ATOM     16  C   UNL     1      -6.679  -0.787  -3.792  0.00  0.00    -0.022 A 
ATOM     17  C   UNL     1      -7.331   0.305  -3.251  0.00  0.00    +0.006 A 
ATOM     18  C   UNL     1      -7.358   1.504  -3.939  0.00  0.00    +0.004 A 
ATOM     19  C   UNL     1      -6.732   1.611  -5.167  0.00  0.00    -0.042 A 
ATOM     20  C   UNL     1      -6.079   0.519  -5.707  0.00  0.00    +0.004 A 
ATOM     21  C   UNL     1      -6.049  -0.679  -5.018  0.00  0.00    +0.006 A 
BRANCH  19  22
ATOM     22  C   UNL     1      -6.762   2.918  -5.917  0.00  0.00    -0.013 C 
ATOM     23  C   UNL     1      -6.102   4.007  -5.070  0.00  0.00    +0.015 C 
ATOM     24  C   UNL     1      -6.002   2.767  -7.236  0.00  0.00    +0.015 C 
ATOM     25  C   UNL     1      -8.214   3.306  -6.207  0.00  0.00    +0.015 C 
ENDBRANCH  19  22
ENDBRANCH  15  16
BRANCH   1  27
ATOM     26  C   UNL     1      -0.214   0.982   0.835  0.00  0.00    +0.009 C 
ATOM     27  C   UNL     1      -0.270  -0.547   0.825  0.00  0.00    +0.032 C 
ENDBRANCH   1  27
BRANCH  14  28
ATOM     28  C   UNL     1      -9.242  -2.451  -3.037  0.00  0.00    +0.090 C 
BRANCH  28  29
ATOM     29  C   UNL     1      -9.890  -1.070  -3.152  0.00  0.00    -0.060 C 
BRANCH  29  30
ATOM     30  N   UNL     1     -11.251  -1.211  -3.688  0.00  0.00    +0.380 N 
ATOM     31  H   UNL     1     -11.219  -1.724  -4.556  0.00  0.00    -0.082 HD
BRANCH  30  32
ATOM     32  C   UNL     1     -12.085  -1.937  -2.721  0.00  0.00    -0.082 C 
ATOM     33  C   UNL     1     -13.465  -2.194  -3.329  0.00  0.00    -0.017 C 
ENDBRANCH  30  32
BRANCH  30  34
ATOM     34  C   UNL     1     -11.824   0.120  -3.926  0.00  0.00    -0.082 C 
ATOM     35  C   UNL     1     -11.039   0.822  -5.037  0.00  0.00    -0.017 C 
ENDBRANCH  30  34
ENDBRANCH  29  30
ENDBRANCH  28  29
ENDBRANCH  14  28
TORSDOF 8
