REMARK  Name = ZINC38935999
REMARK  13 active torsions:
REMARK  status: ('A' for Active; 'I' for Inactive)
REMARK    1  A    between atoms: C_1  and  C_2
REMARK    2  A    between atoms: C_9  and  C_14
REMARK    3  A    between atoms: C_14  and  N_15
REMARK    4  A    between atoms: N_15  and  C_16
REMARK    5  A    between atoms: C_19  and  O_22
REMARK    6  A    between atoms: O_22  and  C_23
REMARK    7  A    between atoms: C_24  and  C_26
REMARK    8  A    between atoms: C_28  and  O_36
REMARK    9  A    between atoms: C_29  and  O_34
REMARK   10  A    between atoms: C_30  and  O_32
REMARK   11  A    between atoms: O_32  and  C_33
REMARK   12  A    between atoms: O_34  and  C_35
REMARK   13  A    between atoms: O_36  and  C_37
REMARK                            x       y       z     vdW  Elec       q    Type
REMARK                         _______ _______ _______ _____ _____    ______ ____
ROOT
ATOM      1  N   UNL     1       3.137  -6.180   4.803  0.00  0.00    -0.266 N 
ATOM      2  C   UNL     1       1.919  -6.645   5.147  0.00  0.00    +0.251 C 
ATOM      3  O   UNL     1       1.608  -7.790   4.880  0.00  0.00    -0.270 OA
ENDROOT
BRANCH   1   4
ATOM      4  C   UNL     1       4.110  -7.060   4.314  0.00  0.00    +0.037 A 
ATOM      5  C   UNL     1       5.412  -6.618   4.121  0.00  0.00    +0.027 A 
ATOM      6  C   UNL     1       6.371  -7.487   3.639  0.00  0.00    +0.047 A 
ATOM      7  C   UNL     1       6.034  -8.800   3.347  0.00  0.00    +0.120 A 
ATOM      8  C   UNL     1       4.733  -9.242   3.539  0.00  0.00    +0.047 A 
ATOM      9  C   UNL     1       3.774  -8.377   4.027  0.00  0.00    +0.027 A 
BRANCH   7  10
ATOM     10  O   UNL     1       6.979  -9.655   2.871  0.00  0.00    -0.495 OA
ATOM     11  C   UNL     1       6.540 -10.960   2.488  0.00  0.00    +0.277 C 
ENDBRANCH   7  10
ENDBRANCH   1   4
BRANCH   2  12
ATOM     12  C   UNL     1       0.964  -5.765   5.847  0.00  0.00    +0.044 A 
ATOM     13  C   UNL     1       0.818  -4.434   5.450  0.00  0.00    +0.062 A 
ATOM     14  C   UNL     1      -0.077  -3.611   6.107  0.00  0.00    +0.166 A 
ATOM     15  C   UNL     1      -0.834  -4.109   7.165  0.00  0.00    +0.204 A 
ATOM     16  C   UNL     1      -0.691  -5.435   7.563  0.00  0.00    +0.166 A 
ATOM     17  C   UNL     1       0.199  -6.263   6.905  0.00  0.00    +0.062 A 
BRANCH  16  18
ATOM     18  O   UNL     1      -1.431  -5.918   8.597  0.00  0.00    -0.491 OA
ATOM     19  C   UNL     1      -1.233  -7.288   8.952  0.00  0.00    +0.277 C 
ENDBRANCH  16  18
BRANCH  15  20
ATOM     20  O   UNL     1      -1.713  -3.298   7.810  0.00  0.00    -0.488 OA
ATOM     21  C   UNL     1      -3.048  -3.254   7.302  0.00  0.00    +0.277 C 
ENDBRANCH  15  20
BRANCH  14  22
ATOM     22  O   UNL     1      -0.219  -2.315   5.721  0.00  0.00    -0.491 OA
ATOM     23  C   UNL     1       0.273  -1.966   4.426  0.00  0.00    +0.277 C 
ENDBRANCH  14  22
ENDBRANCH   2  12
BRANCH   1  24
ATOM     24  C   UNL     1       3.442  -4.754   4.942  0.00  0.00    +0.131 C 
BRANCH  24  33
ATOM     25  C   UNL     1       6.137   1.411   2.549  0.00  0.00    +0.044 C 
ATOM     26  C   UNL     1       5.811  -0.054   2.421  0.00  0.00    -0.050 A 
ATOM     27  C   UNL     1       6.537  -0.841   1.526  0.00  0.00    +0.005 A 
ATOM     28  C   UNL     1       6.300  -2.168   1.358  0.00  0.00    +0.024 A 
ATOM     29  C   UNL     1       5.291  -2.813   2.096  0.00  0.00    +0.040 A 
ATOM     30  N   UNL     1       5.068  -4.115   1.923  0.00  0.00    -0.284 N 
ATOM     31  C   UNL     1       4.136  -4.782   2.583  0.00  0.00    +0.226 C 
ATOM     32  O   UNL     1       3.979  -5.972   2.382  0.00  0.00    -0.275 OA
ATOM     33  C   UNL     1       3.268  -4.061   3.589  0.00  0.00    +0.116 C 
ATOM     34  C   UNL     1       3.518  -2.579   3.791  0.00  0.00    -0.003 C 
ATOM     35  C   UNL     1       4.508  -2.006   3.049  0.00  0.00    -0.007 A 
ATOM     36  C   UNL     1       4.819  -0.583   3.184  0.00  0.00    +0.012 A 
ATOM     37  H   UNL     1       5.614  -4.596   1.282  0.00  0.00    +0.155 HD
ENDBRANCH  24  33
ENDBRANCH   1  24
TORSDOF 8
