REMARK  Name = ZINC01984270
REMARK  8 active torsions:
REMARK  status: ('A' for Active; 'I' for Inactive)
REMARK    1  A    between atoms: C_1  and  C_2
REMARK    2  A    between atoms: C_2  and  C_3
REMARK    3  A    between atoms: C_6  and  O_10
REMARK    4  A    between atoms: O_10  and  C_11
REMARK    5  A    between atoms: C_11  and  C_12
REMARK    6  A    between atoms: N_14  and  C_15
REMARK    7  A    between atoms: C_16  and  C_26
REMARK    8  A    between atoms: C_21  and  C_25
REMARK                            x       y       z     vdW  Elec       q    Type
REMARK                         _______ _______ _______ _____ _____    ______ ____
ROOT
ATOM      1  C   UNL     1      -3.042   4.483   6.404  0.00  0.00    +0.255 C 
ATOM      2  O   UNL     1      -3.894   3.709   6.786  0.00  0.00    -0.272 OA
ATOM      3  N   UNL     1      -2.821   5.629   7.078  0.00  0.00    -0.277 N 
ATOM      4  H   UNL     1      -2.048   6.331   6.731  0.00  0.00    +0.155 HD
ENDROOT
BRANCH   3   5
ATOM      5  C   UNL     1      -3.567   5.923   8.209  0.00  0.00    +0.084 A 
ATOM      6  C   UNL     1      -3.487   7.040   9.028  0.00  0.00    +0.068 A 
ATOM      7  C   UNL     1      -4.393   7.107  10.162  0.00  0.00    -0.023 A 
ATOM      8  C   UNL     1      -5.227   6.054  10.295  0.00  0.00    -0.004 A 
ATOM      9  S   UNL     1      -4.831   4.989   8.938  0.00  0.00    -0.077 S 
ATOM     10  C   UNL     1      -6.261   5.849  11.359  0.00  0.00    +0.046 C 
ATOM     11  C   UNL     1      -6.496   7.190  12.070  0.00  0.00    -0.009 C 
ATOM     12  C   UNL     1      -5.138   7.804  12.425  0.00  0.00    +0.008 C 
ATOM     13  C   UNL     1      -4.426   8.265  11.152  0.00  0.00    +0.037 C 
ATOM     14  C   UNL     1      -7.307   6.959  13.346  0.00  0.00    +0.008 C 
BRANCH   6  15
ATOM     15  C   UNL     1      -2.525   8.114   8.758  0.00  0.00    +0.244 C 
ATOM     16  O   UNL     1      -2.841   9.049   8.046  0.00  0.00    -0.270 OA
ATOM     17  N   UNL     1      -1.291   8.064   9.298  0.00  0.00    -0.325 N 
ATOM     18  H   UNL     1      -0.570   8.869   9.096  0.00  0.00    +0.145 HD
ATOM     19  H   UNL     1      -1.006   7.218   9.941  0.00  0.00    +0.145 HD
ENDBRANCH   6  15
ENDBRANCH   3   5
BRANCH   1  20
ATOM     20  C   UNL     1      -2.231   4.163   5.175  0.00  0.00    +0.325 C 
BRANCH  20  21
ATOM     21  O   UNL     1      -2.649   2.904   4.642  0.00  0.00    -0.482 OA
BRANCH  21  25
ATOM     22  C   UNL     1      -0.718   1.572   1.248  0.00  0.00    -0.046 A 
ATOM     23  C   UNL     1      -0.359   2.779   1.818  0.00  0.00    +0.007 A 
ATOM     24  C   UNL     1      -1.008   3.230   2.951  0.00  0.00    +0.047 A 
ATOM     25  C   UNL     1      -2.013   2.465   3.524  0.00  0.00    +0.135 A 
ATOM     26  C   UNL     1      -2.368   1.251   2.954  0.00  0.00    +0.060 A 
ATOM     27  C   UNL     1      -1.719   0.807   1.817  0.00  0.00    +0.022 A 
ATOM     28 BR   UNL     1      -3.737   0.204   3.732  0.00  0.00    -0.047 Br
BRANCH  22  30
ATOM     29  C   UNL     1      -0.753   1.593  -1.232  0.00  0.00    +0.009 C 
ATOM     30  C   UNL     1      -0.013   1.086   0.008  0.00  0.00    +0.032 C 
ENDBRANCH  22  30
ENDBRANCH  21  25
ENDBRANCH  20  21
ENDBRANCH   1  20
TORSDOF 6
