REMARK  Name = ZINC04522955
REMARK  4 active torsions:
REMARK  status: ('A' for Active; 'I' for Inactive)
REMARK    1  A    between atoms: C_1  and  C_2
REMARK    2  A    between atoms: C_9  and  N_25
REMARK    3  A    between atoms: C_10  and  O_24
REMARK    4  A    between atoms: C_21  and  O_23
REMARK                            x       y       z     vdW  Elec       q    Type
REMARK                         _______ _______ _______ _____ _____    ______ ____
ROOT
ATOM      1  C   UNL     1       8.038   1.682  -0.362  0.00  0.00    +0.014 C 
ATOM      2  C   UNL     1       7.985   3.197  -0.159  0.00  0.00    -0.003 C 
ATOM      3  C   UNL     1       7.335   3.534   1.169  0.00  0.00    +0.010 C 
ATOM      4  C   UNL     1       5.938   2.885   1.181  0.00  0.00    +0.009 C 
ATOM      5  C   UNL     1       5.097   3.349   0.001  0.00  0.00    +0.023 C 
ATOM      6  C   UNL     1       3.741   2.705  -0.033  0.00  0.00    -0.039 A 
ATOM      7  C   UNL     1       3.126   2.404   1.174  0.00  0.00    +0.030 A 
ATOM      8  C   UNL     1       1.869   1.825   1.199  0.00  0.00    +0.067 A 
ATOM      9  C   UNL     1       1.224   1.533  -0.001  0.00  0.00    +0.138 A 
ATOM     10  C   UNL     1       1.843   1.830  -1.200  0.00  0.00    +0.051 A 
ATOM     11  C   UNL     1       3.104   2.416  -1.222  0.00  0.00    -0.040 A 
ATOM     12  C   UNL     1       3.717   2.697  -2.568  0.00  0.00    +0.036 C 
ATOM     13  C   UNL     1       4.916   3.637  -2.449  0.00  0.00    +0.009 C 
ATOM     14  C   UNL     1       5.821   3.118  -1.332  0.00  0.00    +0.000 C 
ATOM     15  C   UNL     1       7.138   3.861  -1.280  0.00  0.00    +0.001 C 
ATOM     16  C   UNL     1       8.036   3.758  -2.508  0.00  0.00    +0.007 C 
ATOM     17  C   UNL     1       9.485   3.784  -1.960  0.00  0.00    +0.032 C 
ATOM     18  C   UNL     1       9.367   3.810  -0.412  0.00  0.00    +0.121 C 
ENDROOT
BRANCH   8  19
ATOM     19  N   UNL     1       1.252   1.531   2.421  0.00  0.00    -0.355 N 
ATOM     20  H   UNL     1       0.373   1.122   2.434  0.00  0.00    +0.142 HD
ATOM     21  H   UNL     1       1.704   1.736   3.254  0.00  0.00    +0.142 HD
ENDBRANCH   8  19
BRANCH  18  22
ATOM     22  O   UNL     1      10.392   3.013   0.186  0.00  0.00    -0.391 OA
ATOM     23  H   UNL     1      11.290   3.317  -0.007  0.00  0.00    +0.210 HD
ENDBRANCH  18  22
BRANCH   9  24
ATOM     24  O   UNL     1      -0.011   0.963   0.007  0.00  0.00    -0.505 OA
ATOM     25  H   UNL     1       0.002  -0.004   0.002  0.00  0.00    +0.292 HD
ENDBRANCH   9  24
TORSDOF 3
