REMARK  Name = ZINC39691981
REMARK  8 active torsions:
REMARK  status: ('A' for Active; 'I' for Inactive)
REMARK    1  A    between atoms: C_1  and  C_2
REMARK    2  A    between atoms: C_2  and  N_3
REMARK    3  A    between atoms: C_4  and  S_21
REMARK    4  A    between atoms: C_12  and  C_15
REMARK    5  A    between atoms: S_21  and  C_22
REMARK    6  A    between atoms: C_22  and  C_23
REMARK    7  A    between atoms: C_29  and  C_35
REMARK    8  A    between atoms: C_30  and  C_34
REMARK                            x       y       z     vdW  Elec       q    Type
REMARK                         _______ _______ _______ _____ _____    ______ ____
ROOT
ATOM      1  N   UNL     1       0.688  -0.476  -1.203  0.00  0.00    -0.267 N 
ATOM      2  C   UNL     1      -0.115  -0.700  -2.392  0.00  0.00    +0.255 C 
ATOM      3  N   UNL     1       0.426  -1.718  -3.298  0.00  0.00    -0.243 NA
ATOM      4  C   UNL     1       1.688  -1.964  -3.287  0.00  0.00    +0.107 C 
ATOM      5  C   UNL     1       2.640  -1.355  -2.307  0.00  0.00    +0.073 C 
ATOM      6  C   UNL     1       2.023  -0.668  -1.131  0.00  0.00    +0.252 C 
ATOM      7  O   UNL     1       2.679  -0.309  -0.172  0.00  0.00    -0.270 OA
ATOM      8  C   UNL     1       3.949  -1.476  -2.568  0.00  0.00    -0.015 C 
ATOM      9  C   UNL     1       4.338  -2.259  -3.810  0.00  0.00    +0.112 C 
ATOM     10  S   UNL     1       2.717  -2.994  -4.293  0.00  0.00    -0.101 S 
ENDROOT
BRANCH   8  11
ATOM     11  C   UNL     1       4.963  -0.876  -1.692  0.00  0.00    -0.020 A 
ATOM     12  C   UNL     1       5.043   0.515  -1.556  0.00  0.00    +0.008 A 
ATOM     13  C   UNL     1       5.997   1.070  -0.731  0.00  0.00    +0.001 A 
ATOM     14  C   UNL     1       6.876   0.256  -0.038  0.00  0.00    +0.000 A 
ATOM     15  C   UNL     1       6.805  -1.121  -0.167  0.00  0.00    +0.001 A 
ATOM     16  C   UNL     1       5.852  -1.693  -0.983  0.00  0.00    +0.008 A 
ENDBRANCH   8  11
BRANCH   1  18
ATOM     17  C   UNL     1      -0.019   1.526   0.010  0.00  0.00    +0.024 C 
ATOM     18  C   UNL     1       0.002  -0.004   0.002  0.00  0.00    +0.107 C 
ENDBRANCH   1  18
BRANCH   2  19
ATOM     19  S   UNL     1      -0.249   0.864  -3.301  0.00  0.00    -0.107 S 
BRANCH  19  20
ATOM     20  C   UNL     1       1.470   1.292  -3.694  0.00  0.00    +0.147 C 
BRANCH  20  21
ATOM     21  C   UNL     1       1.502   2.589  -4.459  0.00  0.00    +0.124 A 
ATOM     22  N   UNL     1       2.700   3.084  -4.856  0.00  0.00    -0.309 N 
ATOM     23  H   UNL     1       3.517   2.604  -4.645  0.00  0.00    +0.170 HD
ATOM     24  C   UNL     1       2.759   4.247  -5.545  0.00  0.00    +0.263 A 
ATOM     25  O   UNL     1       3.827   4.707  -5.910  0.00  0.00    -0.267 OA
ATOM     26  C   UNL     1       1.547   4.911  -5.830  0.00  0.00    +0.118 A 
ATOM     27  C   UNL     1       1.180   6.155  -6.529  0.00  0.00    +0.118 A 
ATOM     28  C   UNL     1      -0.180   6.228  -6.453  0.00  0.00    +0.119 A 
ATOM     29  O   UNL     1      -0.649   5.166  -5.787  0.00  0.00    -0.441 OA
ATOM     30  C   UNL     1       0.345   4.352  -5.395  0.00  0.00    +0.235 A 
ATOM     31  N   UNL     1       0.376   3.192  -4.721  0.00  0.00    -0.198 NA
ATOM     32  C   UNL     1      -1.025   7.335  -7.030  0.00  0.00    +0.087 C 
BRANCH  27  33
ATOM     33  C   UNL     1       2.087   7.113  -7.172  0.00  0.00    +0.391 C 
ATOM     34  O   UNL     1       3.294   6.915  -7.161  0.00  0.00    -0.240 OA
ATOM     35  O   UNL     1       1.635   8.110  -7.719  0.00  0.00    -0.240 OA
ENDBRANCH  27  33
ENDBRANCH  20  21
ENDBRANCH  19  20
ENDBRANCH   2  19
TORSDOF 6
