REMARK  Name = ZINC08847536
REMARK  8 active torsions:
REMARK  status: ('A' for Active; 'I' for Inactive)
REMARK    1  A    between atoms: C_1  and  C_2
REMARK    2  A    between atoms: C_4  and  C_35
REMARK    3  A    between atoms: C_13  and  N_17
REMARK    4  A    between atoms: C_21  and  C_25
REMARK    5  A    between atoms: C_28  and  O_33
REMARK    6  A    between atoms: C_29  and  O_31
REMARK    7  A    between atoms: O_31  and  C_32
REMARK    8  A    between atoms: O_33  and  C_34
REMARK                            x       y       z     vdW  Elec       q    Type
REMARK                         _______ _______ _______ _____ _____    ______ ____
ROOT
ATOM      1  C   UNL     1       3.742  -0.653  -0.083  0.00  0.00    +0.044 C 
ATOM      2  C   UNL     1       2.417   0.064  -0.031  0.00  0.00    -0.047 A 
ATOM      3  C   UNL     1       2.387   1.452  -0.028  0.00  0.00    +0.007 A 
ATOM      4  C   UNL     1       1.195   2.120   0.019  0.00  0.00    -0.038 A 
ATOM      5  C   UNL     1       0.000   1.400   0.063  0.00  0.00    +0.044 A 
ATOM      6  C   UNL     1      -1.302   2.088   0.119  0.00  0.00    +0.056 A 
ATOM      7  N   UNL     1      -1.382   3.430   0.124  0.00  0.00    -0.334 N 
ATOM      8  C   UNL     1      -2.554   4.022   0.282  0.00  0.00    +0.172 A 
ATOM      9  N   UNL     1      -3.475   4.314  -0.649  0.00  0.00    -0.223 NA
ATOM     10  C   UNL     1      -4.612   4.904  -0.367  0.00  0.00    +0.081 A 
ATOM     11  C   UNL     1      -5.723   5.287  -1.260  0.00  0.00    +0.031 A 
ATOM     12  C   UNL     1      -6.813   5.901  -0.745  0.00  0.00    +0.035 A 
ATOM     13  C   UNL     1      -6.938   6.193   0.615  0.00  0.00    +0.127 A 
ATOM     14  C   UNL     1      -5.938   5.864   1.509  0.00  0.00    +0.050 A 
ATOM     15  C   UNL     1      -4.802   5.240   1.064  0.00  0.00    +0.043 A 
ATOM     16  S   UNL     1      -3.298   4.637   1.788  0.00  0.00    -0.050 S 
ATOM     17  C   UNL     1      -2.455   1.291   0.156  0.00  0.00    +0.073 A 
ATOM     18  C   UNL     1      -2.323  -0.105   0.149  0.00  0.00    +0.138 A 
ATOM     19  O   UNL     1      -1.129  -0.703   0.102  0.00  0.00    -0.455 OA
ATOM     20  C   UNL     1       0.024  -0.007   0.059  0.00  0.00    +0.138 A 
ATOM     21  C   UNL     1       1.249  -0.665   0.012  0.00  0.00    +0.050 A 
ATOM     22  C   UNL     1       1.171   3.627   0.022  0.00  0.00    +0.044 C 
ATOM     23  H   UNL     1      -0.473   4.036  -0.002  0.00  0.00    +0.168 HD
ENDROOT
BRANCH  18  24
ATOM     24  C   UNL     1      -3.531  -0.933   0.194  0.00  0.00    +0.021 A 
ATOM     25  C   UNL     1      -4.799  -0.328   0.244  0.00  0.00    +0.015 A 
ATOM     26  C   UNL     1      -5.924  -1.100   0.285  0.00  0.00    +0.050 A 
ATOM     27  C   UNL     1      -5.824  -2.489   0.279  0.00  0.00    +0.162 A 
ATOM     28  C   UNL     1      -4.568  -3.104   0.229  0.00  0.00    +0.162 A 
ATOM     29  C   UNL     1      -3.426  -2.333   0.182  0.00  0.00    +0.061 A 
BRANCH  28  30
ATOM     30  O   UNL     1      -4.474  -4.460   0.223  0.00  0.00    -0.491 OA
ATOM     31  C   UNL     1      -3.160  -5.019   0.171  0.00  0.00    +0.277 C 
ENDBRANCH  28  30
BRANCH  27  32
ATOM     32  O   UNL     1      -6.947  -3.247   0.321  0.00  0.00    -0.491 OA
ATOM     33  C   UNL     1      -8.196  -2.555   0.370  0.00  0.00    +0.277 C 
ENDBRANCH  27  32
ENDBRANCH  18  24
BRANCH  13  34
ATOM     34  N   UNL     1      -8.162   6.869   1.106  0.00  0.00    +0.056 N 
ATOM     35  O   UNL     1      -8.291   7.149   2.387  0.00  0.00    -0.126 OA
ATOM     36  O   UNL     1      -9.122   7.188   0.263  0.00  0.00    -0.126 OA
ENDBRANCH  13  34
TORSDOF 4
