REMARK  Name = ZINC04973561
REMARK  5 active torsions:
REMARK  status: ('A' for Active; 'I' for Inactive)
REMARK    1  A    between atoms: C_1  and  N_2
REMARK    2  A    between atoms: N_2  and  C_3
REMARK    3  A    between atoms: N_2  and  C_4
REMARK    4  A    between atoms: C_7  and  C_10
REMARK    5  A    between atoms: C_15  and  C_25
REMARK                            x       y       z     vdW  Elec       q    Type
REMARK                         _______ _______ _______ _____ _____    ______ ____
ROOT
ATOM      1  C   UNL     1       2.337   4.752   0.108  0.00  0.00    +0.032 C 
ATOM      2  C   UNL     1       2.516   5.624  -1.133  0.00  0.00    +0.059 C 
ATOM      3  C   UNL     1       3.913   6.223  -1.149  0.00  0.00    +0.017 C 
ATOM      4  C   UNL     1       4.537   6.527   0.002  0.00  0.00    +0.036 C 
ATOM      5  C   UNL     1       5.917   7.126   0.130  0.00  0.00    +0.137 C 
ATOM      6  N   UNL     1       6.476   7.619  -1.110  0.00  0.00    -0.331 N 
ATOM      7  C   UNL     1       6.770   6.751  -2.161  0.00  0.00    +0.049 A 
ATOM      8  C   UNL     1       8.077   6.504  -2.549  0.00  0.00    +0.025 A 
ATOM      9  C   UNL     1       8.329   5.550  -3.520  0.00  0.00    +0.002 A 
ATOM     10  C   UNL     1       7.286   4.850  -4.100  0.00  0.00    +0.002 A 
ATOM     11  C   UNL     1       5.978   5.111  -3.730  0.00  0.00    +0.025 A 
ATOM     12  C   UNL     1       5.724   6.076  -2.772  0.00  0.00    +0.052 A 
ATOM     13  N   UNL     1       4.433   6.421  -2.387  0.00  0.00    -0.316 N 
ATOM     14  C   UNL     1       3.905   6.275   1.243  0.00  0.00    +0.163 C 
ATOM     15  O   UNL     1       4.481   6.583   2.267  0.00  0.00    -0.292 OA
ATOM     16  C   UNL     1       2.549   5.643   1.338  0.00  0.00    +0.088 C 
ATOM     17  H   UNL     1       6.648   8.568  -1.213  0.00  0.00    +0.147 HD
ATOM     18  H   UNL     1       3.862   6.836  -3.052  0.00  0.00    +0.152 HD
ENDROOT
BRANCH   1  22
ATOM     19  C   UNL     1      -1.609   3.112   0.163  0.00  0.00    +0.029 A 
ATOM     20  C   UNL     1      -0.506   2.269   0.142  0.00  0.00    +0.023 A 
ATOM     21  C   UNL     1       0.768   2.803   0.122  0.00  0.00    +0.006 A 
ATOM     22  C   UNL     1       0.946   4.174   0.130  0.00  0.00    -0.043 A 
ATOM     23  C   UNL     1      -0.151   5.016   0.156  0.00  0.00    +0.006 A 
ATOM     24  C   UNL     1      -1.428   4.489   0.176  0.00  0.00    +0.023 A 
BRANCH  19  26
ATOM     25  C   UNL     1      -3.090   1.130   0.309  0.00  0.00    +0.129 C 
ATOM     26  N   UNL     1      -2.899   2.576   0.177  0.00  0.00    -0.336 N 
ATOM     27  C   UNL     1      -4.061   3.461   0.059  0.00  0.00    +0.129 C 
ENDBRANCH  19  26
ENDBRANCH   1  22
BRANCH   5  28
ATOM     28  C   UNL     1       6.844   6.077   0.687  0.00  0.00    -0.005 A 
ATOM     29  C   UNL     1       7.114   4.924  -0.035  0.00  0.00    +0.009 A 
ATOM     30  C   UNL     1       7.973   3.986   0.517  0.00  0.00    +0.020 A 
ATOM     31  C   UNL     1       8.527   4.229   1.760  0.00  0.00    +0.111 A 
ATOM     32  N   UNL     1       8.248   5.337   2.418  0.00  0.00    -0.263 NA
ATOM     33  C   UNL     1       7.440   6.253   1.922  0.00  0.00    +0.116 A 
ENDBRANCH   5  28
TORSDOF 3
