REMARK  Name = ZINC59500912
REMARK  5 active torsions:
REMARK  status: ('A' for Active; 'I' for Inactive)
REMARK    1  A    between atoms: C_1  and  C_2
REMARK    2  A    between atoms: C_2  and  O_4
REMARK    3  A    between atoms: O_4  and  C_5
REMARK    4  A    between atoms: C_14  and  C_27
REMARK    5  A    between atoms: C_17  and  O_26
REMARK                            x       y       z     vdW  Elec       q    Type
REMARK                         _______ _______ _______ _____ _____    ______ ____
ROOT
ATOM      1  C   UNL     1      -1.051  -2.126  -0.025  0.00  0.00    +0.304 C 
ATOM      2  C   UNL     1      -0.432  -2.659   1.245  0.00  0.00    +0.048 A 
ATOM      3  C   UNL     1       0.856  -2.554   1.734  0.00  0.00    +0.012 A 
ATOM      4  C   UNL     1       1.202  -3.169   2.924  0.00  0.00    +0.001 A 
ATOM      5  C   UNL     1       0.261  -3.892   3.635  0.00  0.00    +0.001 A 
ATOM      6  C   UNL     1      -1.032  -3.990   3.171  0.00  0.00    +0.012 A 
ATOM      7  C   UNL     1      -1.396  -3.358   1.974  0.00  0.00    +0.029 A 
ATOM      8  C   UNL     1      -2.711  -3.240   1.315  0.00  0.00    +0.186 C 
ATOM      9  O   UNL     1      -3.794  -3.446   1.818  0.00  0.00    -0.290 OA
ATOM     10  C   UNL     1      -2.443  -2.809  -0.115  0.00  0.00    +0.168 C 
ATOM     11  C   UNL     1      -2.136  -4.035  -0.957  0.00  0.00    +0.024 A 
ATOM     12  C   UNL     1      -2.880  -5.186  -1.199  0.00  0.00    +0.054 A 
ATOM     13  C   UNL     1      -2.396  -6.183  -1.998  0.00  0.00    +0.125 A 
ATOM     14  C   UNL     1      -1.121  -6.044  -2.582  0.00  0.00    +0.027 A 
ATOM     15  C   UNL     1      -0.584  -7.050  -3.403  0.00  0.00    +0.012 A 
ATOM     16  C   UNL     1       0.652  -6.884  -3.949  0.00  0.00    +0.001 A 
ATOM     17  C   UNL     1       1.395  -5.730  -3.706  0.00  0.00    +0.001 A 
ATOM     18  C   UNL     1       0.905  -4.735  -2.916  0.00  0.00    +0.012 A 
ATOM     19  C   UNL     1      -0.367  -4.872  -2.337  0.00  0.00    +0.028 A 
ATOM     20  C   UNL     1      -0.902  -3.852  -1.514  0.00  0.00    +0.138 A 
ATOM     21  O   UNL     1      -0.369  -2.645  -1.175  0.00  0.00    -0.445 OA
ENDROOT
BRANCH  10  22
ATOM     22  C   UNL     1      -3.524  -1.923  -0.677  0.00  0.00    -0.021 A 
ATOM     23  C   UNL     1      -3.932  -0.802   0.021  0.00  0.00    +0.006 A 
ATOM     24  C   UNL     1      -4.923   0.012  -0.494  0.00  0.00    +0.015 A 
ATOM     25  C   UNL     1      -5.506  -0.296  -1.711  0.00  0.00    +0.018 A 
ATOM     26  C   UNL     1      -5.097  -1.417  -2.410  0.00  0.00    +0.015 A 
ATOM     27  C   UNL     1      -4.103  -2.227  -1.895  0.00  0.00    +0.006 A 
ATOM     28 BR   UNL     1      -6.862   0.817  -2.417  0.00  0.00    -0.050 Br
ENDBRANCH  10  22
BRANCH  13  29
ATOM     29  O   UNL     1      -3.138  -7.299  -2.226  0.00  0.00    -0.506 OA
ATOM     30  H   UNL     1      -3.718  -7.235  -2.997  0.00  0.00    +0.292 HD
ENDBRANCH  13  29
BRANCH   1  31
ATOM     31  O   UNL     1      -1.134  -0.699  -0.036  0.00  0.00    -0.416 OA
BRANCH  31  33
ATOM     32  C   UNL     1       0.014   1.486  -0.079  0.00  0.00    +0.136 C 
ATOM     33  C   UNL     1       0.024  -0.021  -0.066  0.00  0.00    +0.307 C 
ATOM     34  O   UNL     1       1.074  -0.619  -0.083  0.00  0.00    -0.251 OA
ENDBRANCH  31  33
ENDBRANCH   1  31
TORSDOF 4
