REMARK  Name = ZINC45276158
REMARK  10 active torsions:
REMARK  status: ('A' for Active; 'I' for Inactive)
REMARK    1  A    between atoms: C_1  and  C_2
REMARK    2  A    between atoms: C_5  and  N_8
REMARK    3  A    between atoms: C_9  and  C_11
REMARK    4  A    between atoms: C_11  and  C_13
REMARK    5  A    between atoms: C_11  and  O_19
REMARK    6  A    between atoms: O_19  and  C_20
REMARK    7  A    between atoms: C_20  and  C_22
REMARK    8  A    between atoms: N_31  and  C_33
REMARK    9  A    between atoms: C_33  and  C_34
REMARK   10  A    between atoms: C_33  and  C_35
REMARK                            x       y       z     vdW  Elec       q    Type
REMARK                         _______ _______ _______ _____ _____    ______ ____
ROOT
ATOM      1  C   UNL     1       0.309  -6.349   1.121  0.00  0.00    +0.292 C 
ENDROOT
BRANCH   1   2
ATOM      2  C   UNL     1       1.605  -6.731   0.454  0.00  0.00    +0.002 A 
ATOM      3  C   UNL     1       2.775  -6.773   1.189  0.00  0.00    +0.008 A 
ATOM      4  C   UNL     1       3.964  -7.124   0.577  0.00  0.00    +0.000 A 
ATOM      5  C   UNL     1       3.983  -7.433  -0.770  0.00  0.00    +0.000 A 
ATOM      6  C   UNL     1       2.813  -7.391  -1.505  0.00  0.00    +0.000 A 
ATOM      7  C   UNL     1       1.623  -7.045  -0.892  0.00  0.00    +0.008 A 
ENDBRANCH   1   2
BRANCH   1   9
ATOM      8  N   UNL     1       0.059  -4.170  -0.021  0.00  0.00    -0.282 N 
ATOM      9  C   UNL     1       0.175  -4.848   1.138  0.00  0.00    +0.263 C 
ATOM     10  O   UNL     1       0.173  -4.251   2.193  0.00  0.00    -0.271 OA
ATOM     11  H   UNL     1      -0.017  -4.651  -0.860  0.00  0.00    +0.155 HD
BRANCH   8  16
ATOM     12  C   UNL     1       0.009   1.503   0.007  0.00  0.00    +0.044 C 
ATOM     13  C   UNL     1       0.022  -0.004  -0.001  0.00  0.00    -0.050 A 
ATOM     14  C   UNL     1       0.777  -0.692   0.931  0.00  0.00    +0.005 A 
ATOM     15  C   UNL     1       0.792  -2.073   0.927  0.00  0.00    +0.023 A 
ATOM     16  C   UNL     1       0.046  -2.771  -0.014  0.00  0.00    +0.034 A 
ATOM     17  C   UNL     1      -0.712  -2.077  -0.948  0.00  0.00    +0.023 A 
ATOM     18  C   UNL     1      -0.726  -0.696  -0.936  0.00  0.00    +0.005 A 
ENDBRANCH   8  16
ENDBRANCH   1   9
BRANCH   1  19
ATOM     19  O   UNL     1       0.300  -6.843   2.462  0.00  0.00    -0.442 OA
BRANCH  19  20
ATOM     20  C   UNL     1      -0.202  -8.079   2.656  0.00  0.00    +0.361 C 
ATOM     21  O   UNL     1      -0.620  -8.720   1.712  0.00  0.00    -0.243 OA
BRANCH  20  22
ATOM     22  C   UNL     1      -0.243  -8.653   4.014  0.00  0.00    +0.176 A 
ATOM     23  C   UNL     1      -0.783 -10.005   4.235  0.00  0.00    +0.021 A 
ATOM     24  C   UNL     1      -1.274 -10.798   3.203  0.00  0.00    +0.011 A 
ATOM     25  C   UNL     1      -1.765 -12.054   3.490  0.00  0.00    +0.001 A 
ATOM     26  C   UNL     1      -1.774 -12.533   4.793  0.00  0.00    +0.001 A 
ATOM     27  C   UNL     1      -1.292 -11.764   5.830  0.00  0.00    +0.014 A 
ATOM     28  C   UNL     1      -0.792 -10.493   5.562  0.00  0.00    +0.050 A 
ATOM     29  C   UNL     1      -0.261  -9.607   6.607  0.00  0.00    +0.275 A 
ATOM     30  O   UNL     1      -0.237  -9.961   7.771  0.00  0.00    -0.266 OA
ATOM     31  N   UNL     1       0.201  -8.392   6.245  0.00  0.00    -0.226 N 
ATOM     32  N   UNL     1       0.206  -7.969   5.038  0.00  0.00    -0.161 NA
BRANCH  31  33
ATOM     33  C   UNL     1       0.729  -7.513   7.291  0.00  0.00    +0.105 C 
ATOM     34  C   UNL     1       2.193  -7.185   6.990  0.00  0.00    +0.032 C 
ATOM     35  C   UNL     1      -0.086  -6.218   7.329  0.00  0.00    +0.032 C 
ENDBRANCH  31  33
ENDBRANCH  20  22
ENDBRANCH  19  20
ENDBRANCH   1  19
TORSDOF 7
