REMARK  Name = ZINC63917284
REMARK  8 active torsions:
REMARK  status: ('A' for Active; 'I' for Inactive)
REMARK    1  A    between atoms: C_1  and  C_2
REMARK    2  A    between atoms: C_2  and  C_4
REMARK    3  A    between atoms: C_2  and  S_15
REMARK    4  A    between atoms: C_4  and  C_6
REMARK    5  A    between atoms: S_15  and  C_16
REMARK    6  A    between atoms: C_20  and  C_28
REMARK    7  A    between atoms: N_21  and  C_22
REMARK    8  A    between atoms: C_28  and  N_29
REMARK                            x       y       z     vdW  Elec       q    Type
REMARK                         _______ _______ _______ _____ _____    ______ ____
ROOT
ATOM      1  C   UNL     1      -0.227  -0.049  -2.865  0.00  0.00    +0.241 C 
ATOM      2  N   UNL     1      -0.418   1.411  -2.801  0.00  0.00    -0.237 N 
ATOM      3  N   UNL     1      -1.789   1.615  -2.604  0.00  0.00    -0.172 NA
ATOM      4  C   UNL     1      -2.428   0.505  -2.543  0.00  0.00    +0.136 C 
ATOM      5  N   UNL     1      -1.586  -0.591  -2.691  0.00  0.00    -0.257 N 
ATOM      6  H   UNL     1       0.268   2.092  -2.880  0.00  0.00    +0.171 HD
ENDROOT
BRANCH   5   7
ATOM      7  C   UNL     1      -1.952  -1.939  -2.676  0.00  0.00    +0.038 A 
ATOM      8  C   UNL     1      -3.295  -2.295  -2.629  0.00  0.00    +0.023 A 
ATOM      9  C   UNL     1      -3.654  -3.628  -2.616  0.00  0.00    +0.002 A 
ATOM     10  C   UNL     1      -2.679  -4.609  -2.650  0.00  0.00    +0.000 A 
ATOM     11  C   UNL     1      -1.342  -4.258  -2.697  0.00  0.00    +0.002 A 
ATOM     12  C   UNL     1      -0.976  -2.927  -2.716  0.00  0.00    +0.023 A 
ENDBRANCH   5   7
BRANCH   1  13
ATOM     13  S   UNL     1       0.859  -0.609  -1.525  0.00  0.00    -0.107 S 
BRANCH  13  15
ATOM     14  C   UNL     1       0.029   1.509  -0.006  0.00  0.00    +0.027 C 
ATOM     15  C   UNL     1       0.037  -0.021  -0.018  0.00  0.00    +0.117 C 
BRANCH  15  16
ATOM     16  C   UNL     1       0.780  -0.529   1.190  0.00  0.00    +0.174 C 
ATOM     17  O   UNL     1       1.958  -0.811   1.105  0.00  0.00    -0.291 OA
BRANCH  16  18
ATOM     18  C   UNL     1       0.106  -0.677   2.421  0.00  0.00    +0.024 C 
ATOM     19  C   UNL     1       0.639  -1.122   3.618  0.00  0.00    +0.006 A 
ATOM     20  C   UNL     1       1.934  -1.549   3.995  0.00  0.00    +0.010 A 
ATOM     21  C   UNL     1       2.179  -1.940   5.266  0.00  0.00    +0.001 A 
ATOM     22  C   UNL     1       1.185  -1.945   6.258  0.00  0.00    +0.002 A 
ATOM     23  C   UNL     1      -0.083  -1.557   6.002  0.00  0.00    +0.026 A 
ATOM     24  C   UNL     1      -0.434  -1.115   4.642  0.00  0.00    +0.043 A 
ATOM     25  N   UNL     1      -1.555  -0.697   4.127  0.00  0.00    -0.380 N 
ATOM     26  C   UNL     1      -1.348  -0.377   2.711  0.00  0.00    +0.152 C 
ATOM     27  H   UNL     1      -2.394  -0.608   4.605  0.00  0.00    +0.160 HD
ENDBRANCH  16  18
ENDBRANCH  15  16
ENDBRANCH  13  15
ENDBRANCH   1  13
BRANCH   4  28
ATOM     28  C   UNL     1      -3.917   0.400  -2.336  0.00  0.00    +0.158 C 
BRANCH  28  29
ATOM     29  N   UNL     1      -4.474   1.739  -2.101  0.00  0.00    -0.295 NA
ATOM     30  C   UNL     1      -4.488   2.537  -3.354  0.00  0.00    +0.085 C 
ATOM     31  C   UNL     1      -5.539   3.637  -3.062  0.00  0.00    +0.017 C 
ATOM     32  C   UNL     1      -6.612   2.882  -2.243  0.00  0.00    +0.017 C 
ATOM     33  C   UNL     1      -5.884   1.657  -1.660  0.00  0.00    +0.085 C 
ENDBRANCH  28  29
ENDBRANCH   4  28
TORSDOF 7
