REMARK  Name = ZINC13065124
REMARK  12 active torsions:
REMARK  status: ('A' for Active; 'I' for Inactive)
REMARK    1  A    between atoms: C_1  and  C_2
REMARK    2  A    between atoms: C_2  and  C_3
REMARK    3  A    between atoms: C_3  and  C_5
REMARK    4  A    between atoms: C_3  and  N_69
REMARK    5  A    between atoms: N_9  and  C_10
REMARK    6  A    between atoms: C_10  and  C_11
REMARK    7  A    between atoms: C_16  and  C_17
REMARK    8  A    between atoms: C_16  and  N_69
REMARK    9  A    between atoms: C_26  and  C_27
REMARK   10  A    between atoms: C_26  and  N_69
REMARK   11  A    between atoms: C_32  and  C_40
REMARK   12  A    between atoms: C_33  and  C_39
REMARK                            x       y       z     vdW  Elec       q    Type
REMARK                         _______ _______ _______ _____ _____    ______ ____
ROOT
ATOM      1  N   UNL     1       4.864  -1.017   4.090  0.00  0.00    +0.392 N 
ATOM      2  H   UNL     1       4.129  -1.712   4.268  0.00  0.00    -0.080 HD
ENDROOT
BRANCH   1   3
ATOM      3  C   UNL     1       5.859  -1.080   5.181  0.00  0.00    +0.003 C 
BRANCH   3   4
ATOM      4  C   UNL     1       6.769   0.120   5.136  0.00  0.00    +0.139 A 
ATOM      5  N   UNL     1       6.413   1.377   5.240  0.00  0.00    -0.115 NA
ATOM      6  N   UNL     1       7.476   2.100   5.155  0.00  0.00    -0.023 NA
ATOM      7  N   UNL     1       8.500   1.337   4.991  0.00  0.00    -0.044 NA
ATOM      8  N   UNL     1       8.105   0.109   4.974  0.00  0.00    -0.223 N 
BRANCH   8   9
ATOM      9  C   UNL     1       8.952  -1.075   4.809  0.00  0.00    +0.221 C 
BRANCH   9  10
ATOM     10  C   UNL     1       9.389  -1.184   3.371  0.00  0.00    +0.126 A 
ATOM     11  C   UNL     1      10.558  -0.748   2.868  0.00  0.00    +0.046 A 
ATOM     12  C   UNL     1      10.550  -1.054   1.488  0.00  0.00    +0.041 A 
ATOM     13  C   UNL     1       9.373  -1.651   1.228  0.00  0.00    +0.195 A 
ATOM     14  O   UNL     1       8.674  -1.727   2.372  0.00  0.00    -0.466 OA
ENDBRANCH   9  10
ENDBRANCH   8   9
ENDBRANCH   3   4
BRANCH   3  16
ATOM     15  C   UNL     1       4.251  -2.366   6.598  0.00  0.00    +0.002 C 
ATOM     16  C   UNL     1       5.118  -1.108   6.520  0.00  0.00    -0.011 C 
ENDBRANCH   3  16
ENDBRANCH   1   3
BRANCH   1  17
ATOM     17  C   UNL     1       5.513  -1.325   2.798  0.00  0.00    -0.041 C 
BRANCH  17  18
ATOM     18  C   UNL     1       5.683  -2.818   2.687  0.00  0.00    -0.060 A 
ATOM     19  C   UNL     1       6.793  -3.428   3.242  0.00  0.00    +0.005 A 
ATOM     20  C   UNL     1       6.954  -4.798   3.142  0.00  0.00    +0.050 A 
ATOM     21  C   UNL     1       6.003  -5.562   2.485  0.00  0.00    +0.166 A 
ATOM     22  C   UNL     1       4.886  -4.947   1.926  0.00  0.00    +0.166 A 
ATOM     23  C   UNL     1       4.731  -3.574   2.030  0.00  0.00    +0.051 A 
ATOM     24  O   UNL     1       4.108  -5.904   1.341  0.00  0.00    -0.453 OA
ATOM     25  C   UNL     1       4.551  -7.154   1.900  0.00  0.00    +0.466 C 
ATOM     26  O   UNL     1       5.925  -6.904   2.251  0.00  0.00    -0.453 OA
ENDBRANCH  17  18
ENDBRANCH   1  17
BRANCH   1  27
ATOM     27  C   UNL     1       4.252   0.327   4.041  0.00  0.00    -0.036 C 
BRANCH  27  28
ATOM     28  C   UNL     1       2.982   0.251   3.233  0.00  0.00    +0.001 A 
ATOM     29  C   UNL     1       1.800   0.013   3.853  0.00  0.00    +0.017 A 
ATOM     30  C   UNL     1       0.584  -0.051   3.040  0.00  0.00    -0.001 A 
ATOM     31  C   UNL     1      -0.665  -0.288   3.623  0.00  0.00    +0.010 A 
ATOM     32  C   UNL     1      -1.780  -0.347   2.836  0.00  0.00    +0.004 A 
ATOM     33  C   UNL     1      -1.685  -0.173   1.462  0.00  0.00    -0.046 A 
ATOM     34  C   UNL     1      -0.465   0.062   0.866  0.00  0.00    -0.024 A 
ATOM     35  C   UNL     1       0.685   0.126   1.647  0.00  0.00    +0.052 A 
ATOM     36  N   UNL     1       1.918   0.360   1.077  0.00  0.00    -0.322 N 
ATOM     37  H   UNL     1       1.985   0.483   0.117  0.00  0.00    +0.169 HD
ATOM     38  C   UNL     1       3.029   0.422   1.833  0.00  0.00    +0.251 A 
ATOM     39  O   UNL     1       4.102   0.631   1.295  0.00  0.00    -0.268 OA
ATOM     40  C   UNL     1      -0.376   0.251  -0.627  0.00  0.00    +0.046 C 
ATOM     41  C   UNL     1      -2.928  -0.241   0.614  0.00  0.00    +0.044 C 
ENDBRANCH  27  28
ENDBRANCH   1  27
TORSDOF 9
