REMARK  Name = ZINC05737112
REMARK  8 active torsions:
REMARK  status: ('A' for Active; 'I' for Inactive)
REMARK    1  A    between atoms: C_1  and  C_2
REMARK    2  A    between atoms: C_6  and  O_29
REMARK    3  A    between atoms: C_7  and  C_22
REMARK    4  A    between atoms: C_8  and  C_21
REMARK    5  A    between atoms: C_12  and  C_13
REMARK    6  A    between atoms: C_13  and  N_58
REMARK    7  A    between atoms: C_17  and  C_20
REMARK    8  A    between atoms: C_22  and  C_23
REMARK                            x       y       z     vdW  Elec       q    Type
REMARK                         _______ _______ _______ _____ _____    ______ ____
ROOT
ATOM      1  C   UNL     1      -0.002   5.631  -0.648  0.00  0.00    +0.044 C 
ATOM      2  C   UNL     1       0.009   4.155  -0.345  0.00  0.00    -0.042 A 
ATOM      3  C   UNL     1       1.217   3.483  -0.314  0.00  0.00    +0.050 A 
ATOM      4  C   UNL     1       1.270   2.126  -0.040  0.00  0.00    +0.143 A 
ATOM      5  O   UNL     1       2.451   1.473  -0.010  0.00  0.00    -0.425 OA
ATOM      6  C   UNL     1       2.509   0.163   0.254  0.00  0.00    +0.288 A 
ATOM      7  C   UNL     1       1.364  -0.575   0.507  0.00  0.00    +0.041 A 
ATOM      8  C   UNL     1       0.128   0.046   0.489  0.00  0.00    -0.026 A 
ATOM      9  C   UNL     1       0.074   1.421   0.211  0.00  0.00    +0.068 A 
ATOM     10  C   UNL     1      -1.198   2.141   0.182  0.00  0.00    +0.191 A 
ATOM     11  O   UNL     1      -2.253   1.557   0.402  0.00  0.00    -0.287 OA
ATOM     12  C   UNL     1      -1.185   3.510  -0.106  0.00  0.00    -0.014 A 
ATOM     13  C   UNL     1      -1.132  -0.736   0.761  0.00  0.00    +0.045 C 
ENDROOT
BRANCH   6  14
ATOM     14  O   UNL     1       3.708  -0.452   0.274  0.00  0.00    -0.480 OA
ATOM     15  H   UNL     1       4.024  -0.825  -0.560  0.00  0.00    +0.295 HD
ENDBRANCH   6  14
BRANCH  12  16
ATOM     16  C   UNL     1      -2.479   4.282  -0.150  0.00  0.00    -0.039 C 
BRANCH  16  23
ATOM     17  C   UNL     1      -2.830   3.113  -2.241  0.00  0.00    -0.078 C 
ATOM     18  C   UNL     1      -3.169   3.305  -3.721  0.00  0.00    -0.018 C 
ATOM     19  C   UNL     1      -4.589   3.865  -3.846  0.00  0.00    -0.001 C 
ATOM     20  C   UNL     1      -4.680   5.181  -3.070  0.00  0.00    -0.031 C 
ATOM     21  C   UNL     1      -4.297   4.935  -1.609  0.00  0.00    -0.075 C 
ATOM     22  C   UNL     1      -6.111   5.717  -3.139  0.00  0.00    +0.005 C 
ATOM     23  N   UNL     1      -2.912   4.420  -1.556  0.00  0.00    +0.383 N 
ATOM     24  H   UNL     1      -2.292   5.085  -2.032  0.00  0.00    -0.081 HD
ENDBRANCH  16  23
ENDBRANCH  12  16
BRANCH   7  25
ATOM     25  C   UNL     1       1.465  -2.049   0.801  0.00  0.00    +0.077 C 
BRANCH  25  26
ATOM     26  C   UNL     1       1.376  -2.825  -0.488  0.00  0.00    -0.043 A 
ATOM     27  C   UNL     1       0.146  -3.244  -0.959  0.00  0.00    +0.004 A 
ATOM     28  C   UNL     1       0.064  -3.952  -2.144  0.00  0.00    +0.000 A 
ATOM     29  C   UNL     1       1.213  -4.249  -2.852  0.00  0.00    +0.000 A 
ATOM     30  C   UNL     1       2.444  -3.835  -2.378  0.00  0.00    +0.000 A 
ATOM     31  C   UNL     1       2.525  -3.123  -1.196  0.00  0.00    +0.004 A 
ENDBRANCH  25  26
ENDBRANCH   7  25
TORSDOF 5
