REMARK  Name = ZINC18259778
REMARK  7 active torsions:
REMARK  status: ('A' for Active; 'I' for Inactive)
REMARK    1  A    between atoms: C_1  and  C_2
REMARK    2  A    between atoms: C_2  and  C_4
REMARK    3  A    between atoms: C_2  and  S_20
REMARK    4  A    between atoms: C_10  and  C_15
REMARK    5  A    between atoms: S_20  and  C_21
REMARK    6  A    between atoms: N_31  and  C_32
REMARK    7  A    between atoms: C_32  and  C_33
REMARK                            x       y       z     vdW  Elec       q    Type
REMARK                         _______ _______ _______ _____ _____    ______ ____
ROOT
ATOM      1  C   UNL     1      -0.297   4.212  -1.281  0.00  0.00    +0.027 C 
ATOM      2  C   UNL     1      -1.026   3.905   0.028  0.00  0.00    +0.117 C 
ENDROOT
BRANCH   2   3
ATOM      3  C   UNL     1      -2.221   4.813   0.162  0.00  0.00    +0.124 A 
ATOM      4  N   UNL     1      -2.107   5.966   0.871  0.00  0.00    -0.309 N 
ATOM      5  H   UNL     1      -1.257   6.190   1.280  0.00  0.00    +0.170 HD
ATOM      6  C   UNL     1      -3.150   6.804   1.014  0.00  0.00    +0.260 A 
ATOM      7  O   UNL     1      -3.031   7.836   1.653  0.00  0.00    -0.267 OA
ATOM      8  C   UNL     1      -4.401   6.466   0.406  0.00  0.00    +0.083 A 
ATOM      9  C   UNL     1      -5.661   7.201   0.417  0.00  0.00    +0.039 A 
ATOM     10  C   UNL     1      -6.727   6.677  -0.239  0.00  0.00    +0.059 A 
ATOM     11  S   UNL     1      -6.088   5.155  -0.913  0.00  0.00    -0.076 S 
ATOM     12  C   UNL     1      -4.424   5.256  -0.306  0.00  0.00    +0.116 A 
ATOM     13  N   UNL     1      -3.348   4.480  -0.409  0.00  0.00    -0.225 NA
BRANCH   9  14
ATOM     14  C   UNL     1      -5.775   8.490   1.130  0.00  0.00    +0.136 A 
ATOM     15  C   UNL     1      -6.279   9.644   0.616  0.00  0.00    +0.050 A 
ATOM     16  C   UNL     1      -6.198  10.613   1.638  0.00  0.00    +0.042 A 
ATOM     17  C   UNL     1      -5.647  10.011   2.709  0.00  0.00    +0.196 A 
ATOM     18  O   UNL     1      -5.393   8.728   2.399  0.00  0.00    -0.463 OA
ENDBRANCH   9  14
ENDBRANCH   2   3
BRANCH   2  19
ATOM     19  S   UNL     1      -1.577   2.180   0.021  0.00  0.00    -0.077 S 
BRANCH  19  20
ATOM     20  C   UNL     1      -0.016   1.361   0.009  0.00  0.00    +0.173 A 
ATOM     21  N   UNL     1       1.072   2.091   0.003  0.00  0.00    -0.223 NA
ATOM     22  C   UNL     1       2.302   1.526  -0.012  0.00  0.00    +0.080 A 
ATOM     23  C   UNL     1       3.464   2.303  -0.019  0.00  0.00    +0.048 A 
ATOM     24  C   UNL     1       4.695   1.684  -0.035  0.00  0.00    +0.043 A 
ATOM     25  C   UNL     1       4.794   0.296  -0.043  0.00  0.00    +0.021 A 
ATOM     26  C   UNL     1       3.671  -0.484  -0.037  0.00  0.00    +0.017 A 
ATOM     27  C   UNL     1       2.413   0.117  -0.021  0.00  0.00    +0.065 A 
ATOM     28  C   UNL     1       1.177  -0.676  -0.013  0.00  0.00    +0.263 A 
ATOM     29  O   UNL     1       1.207  -1.893  -0.021  0.00  0.00    -0.267 OA
ATOM     30  N   UNL     1       0.002  -0.004   0.002  0.00  0.00    -0.283 N 
ATOM     31 CL   UNL     1       6.139   2.647  -0.044  0.00  0.00    -0.083 Cl
BRANCH  30  32
ATOM     32  C   UNL     1      -1.260  -0.748   0.010  0.00  0.00    +0.154 C 
BRANCH  32  33
ATOM     33  C   UNL     1      -1.706  -0.995  -1.408  0.00  0.00    -0.013 C 
ATOM     34  C   UNL     1      -1.955  -2.216  -1.813  0.00  0.00    +0.005 C 
ENDBRANCH  32  33
ENDBRANCH  30  32
ENDBRANCH  19  20
ENDBRANCH   2  19
TORSDOF 6
