REMARK  Name = ZINC12600917
REMARK  8 active torsions:
REMARK  status: ('A' for Active; 'I' for Inactive)
REMARK    1  A    between atoms: C_4  and  S_10
REMARK    2  A    between atoms: C_6  and  N_7
REMARK    3  A    between atoms: S_10  and  N_13
REMARK    4  A    between atoms: C_16  and  C_19
REMARK    5  A    between atoms: C_19  and  O_21
REMARK    6  A    between atoms: O_21  and  C_22
REMARK    7  A    between atoms: C_22  and  C_23
REMARK    8  A    between atoms: N_25  and  C_26
REMARK                            x       y       z     vdW  Elec       q    Type
REMARK                         _______ _______ _______ _____ _____    ______ ____
ROOT
ATOM      1  N   UNL     1      -0.172   3.236   5.949  0.00  0.00    -0.176 NA
ATOM      2  C   UNL     1       0.079   1.790   6.030  0.00  0.00    +0.110 C 
ATOM      3  C   UNL     1       0.684   1.319   4.705  0.00  0.00    +0.032 C 
ATOM      4  C   UNL     1      -0.235   1.734   3.553  0.00  0.00    +0.100 C 
ATOM      5  C   UNL     1      -0.352   3.260   3.515  0.00  0.00    +0.032 C 
ATOM      6  C   UNL     1      -0.969   3.753   4.828  0.00  0.00    +0.110 C 
ENDROOT
BRANCH   1   7
ATOM      7  S   UNL     1       0.433   4.263   7.099  0.00  0.00    +0.062 S 
ATOM      8  O   UNL     1      -0.288   5.481   6.975  0.00  0.00    -0.153 OA
ATOM      9  O   UNL     1       0.483   3.528   8.314  0.00  0.00    -0.153 OA
BRANCH   7  13
ATOM     10  C   UNL     1       4.719   5.175   5.959  0.00  0.00    +0.034 A 
ATOM     11  C   UNL     1       3.682   5.632   5.168  0.00  0.00    +0.024 A 
ATOM     12  C   UNL     1       2.372   5.354   5.516  0.00  0.00    +0.067 A 
ATOM     13  C   UNL     1       2.101   4.618   6.655  0.00  0.00    +0.126 A 
ATOM     14  C   UNL     1       3.138   4.166   7.449  0.00  0.00    +0.062 A 
ATOM     15  C   UNL     1       4.447   4.439   7.098  0.00  0.00    +0.128 A 
ATOM     16 CL   UNL     1       1.069   5.928   4.522  0.00  0.00    -0.082 Cl
BRANCH  15  17
ATOM     17  N   UNL     1       5.558   3.950   7.945  0.00  0.00    +0.056 N 
ATOM     18  O   UNL     1       6.711   4.195   7.639  0.00  0.00    -0.126 OA
ATOM     19  O   UNL     1       5.319   3.301   8.948  0.00  0.00    -0.126 OA
ENDBRANCH  15  17
ENDBRANCH   7  13
ENDBRANCH   1   7
BRANCH   4  20
ATOM     20  C   UNL     1       0.340   1.242   2.250  0.00  0.00    +0.311 C 
ATOM     21  O   UNL     1       1.378   0.624   2.243  0.00  0.00    -0.251 OA
BRANCH  20  22
ATOM     22  O   UNL     1      -0.300   1.492   1.097  0.00  0.00    -0.455 OA
BRANCH  22  23
ATOM     23  C   UNL     1       0.312   0.988  -0.120  0.00  0.00    +0.328 C 
BRANCH  23  24
ATOM     24  C   UNL     1      -0.543   1.361  -1.304  0.00  0.00    +0.255 C 
ATOM     25  O   UNL     1      -1.567   1.990  -1.138  0.00  0.00    -0.272 OA
ATOM     26  N   UNL     1      -0.169   0.996  -2.546  0.00  0.00    -0.280 N 
ATOM     27  H   UNL     1       0.685   0.558  -2.687  0.00  0.00    +0.155 HD
BRANCH  26  28
ATOM     28  C   UNL     1      -1.014   1.249  -3.635  0.00  0.00    +0.069 A 
ATOM     29  C   UNL     1      -1.882   2.332  -3.604  0.00  0.00    +0.029 A 
ATOM     30  C   UNL     1      -2.714   2.581  -4.678  0.00  0.00    +0.040 A 
ATOM     31  C   UNL     1      -2.684   1.751  -5.787  0.00  0.00    +0.126 A 
ATOM     32  C   UNL     1      -1.820   0.670  -5.821  0.00  0.00    +0.078 A 
ATOM     33  C   UNL     1      -0.981   0.420  -4.750  0.00  0.00    +0.147 A 
ATOM     34  F   UNL     1      -0.134  -0.632  -4.785  0.00  0.00    -0.203 F 
ATOM     35  F   UNL     1      -3.499   1.997  -6.836  0.00  0.00    -0.205 F 
ENDBRANCH  26  28
ENDBRANCH  23  24
ENDBRANCH  22  23
ENDBRANCH  20  22
ENDBRANCH   4  20
TORSDOF 8
