REMARK  Name = ZINC39571473
REMARK  7 active torsions:
REMARK  status: ('A' for Active; 'I' for Inactive)
REMARK    1  A    between atoms: C_1  and  C_2
REMARK    2  A    between atoms: C_7  and  N_8
REMARK    3  A    between atoms: C_9  and  C_11
REMARK    4  A    between atoms: C_11  and  O_12
REMARK    5  A    between atoms: O_12  and  C_13
REMARK    6  A    between atoms: C_13  and  C_15
REMARK    7  A    between atoms: C_19  and  N_21
REMARK                            x       y       z     vdW  Elec       q    Type
REMARK                         _______ _______ _______ _____ _____    ______ ____
ROOT
ATOM      1  C   UNL     1      -0.167   0.054   4.882  0.00  0.00    +0.328 C 
ENDROOT
BRANCH   1   3
ATOM      2  N   UNL     1       0.026  -0.014   2.417  0.00  0.00    -0.282 N 
ATOM      3  C   UNL     1      -0.056  -0.694   3.578  0.00  0.00    +0.255 C 
ATOM      4  O   UNL     1      -0.040  -1.906   3.574  0.00  0.00    -0.272 OA
ATOM      5  H   UNL     1       0.079   0.955   2.425  0.00  0.00    +0.155 HD
BRANCH   2  12
ATOM      6  C   UNL     1      -1.265   1.183   0.182  0.00  0.00    +0.046 C 
ATOM      7  C   UNL     1      -0.584  -0.158   0.085  0.00  0.00    -0.028 A 
ATOM      8  C   UNL     1      -0.570  -0.840  -1.116  0.00  0.00    +0.020 A 
ATOM      9  C   UNL     1       0.055  -2.071  -1.206  0.00  0.00    +0.018 A 
ATOM     10  C   UNL     1       0.666  -2.623  -0.094  0.00  0.00    +0.017 A 
ATOM     11  C   UNL     1       0.655  -1.945   1.109  0.00  0.00    +0.024 A 
ATOM     12  C   UNL     1       0.034  -0.706   1.201  0.00  0.00    +0.036 A 
ATOM     13 BR   UNL     1       0.072  -3.002  -2.852  0.00  0.00    -0.050 Br
ENDBRANCH   2  12
ENDBRANCH   1   3
BRANCH   1  14
ATOM     14  O   UNL     1      -0.239  -0.880   5.962  0.00  0.00    -0.452 OA
BRANCH  14  15
ATOM     15  C   UNL     1      -0.342  -0.371   7.205  0.00  0.00    +0.340 C 
ATOM     16  O   UNL     1      -0.370   0.832   7.368  0.00  0.00    -0.245 OA
BRANCH  15  17
ATOM     17  C   UNL     1      -0.420  -1.276   8.369  0.00  0.00    +0.061 A 
ATOM     18  C   UNL     1      -0.383  -2.660   8.185  0.00  0.00    +0.016 A 
ATOM     19  C   UNL     1      -0.456  -3.500   9.276  0.00  0.00    +0.018 A 
ATOM     20  C   UNL     1      -0.568  -2.974  10.553  0.00  0.00    +0.048 A 
ATOM     21  C   UNL     1      -0.606  -1.603  10.742  0.00  0.00    +0.141 A 
ATOM     22  C   UNL     1      -0.527  -0.752   9.659  0.00  0.00    +0.048 A 
ATOM     23 BR   UNL     1      -0.669  -4.133  12.043  0.00  0.00    -0.048 Br
BRANCH  21  24
ATOM     24  N   UNL     1      -0.726  -1.048  12.109  0.00  0.00    +0.058 N 
ATOM     25  O   UNL     1      -0.759   0.148  12.275  0.00  0.00    -0.126 OA
ATOM     26  O   UNL     1      -0.790  -1.793  13.059  0.00  0.00    -0.126 OA
ENDBRANCH  21  24
ENDBRANCH  15  17
ENDBRANCH  14  15
ENDBRANCH   1  14
TORSDOF 6
