REMARK  Name = ZINC33301983
REMARK  6 active torsions:
REMARK  status: ('A' for Active; 'I' for Inactive)
REMARK    1  A    between atoms: C_1  and  C_2
REMARK    2  A    between atoms: C_2  and  C_3
REMARK    3  A    between atoms: C_6  and  S_9
REMARK    4  A    between atoms: S_9  and  C_12
REMARK    5  A    between atoms: C_17  and  N_18
REMARK    6  A    between atoms: C_22  and  C_25
REMARK                            x       y       z     vdW  Elec       q    Type
REMARK                         _______ _______ _______ _____ _____    ______ ____
ROOT
ATOM      1  C   UNL     1       1.003   1.565   0.224  0.00  0.00    +0.151 A 
ATOM      2  C   UNL     1      -0.026   0.652   0.344  0.00  0.00    +0.145 A 
ATOM      3  N   UNL     1      -1.273   1.090   0.442  0.00  0.00    -0.221 NA
ATOM      4  C   UNL     1      -1.542   2.388   0.436  0.00  0.00    +0.220 A 
ATOM      5  N   UNL     1      -0.584   3.295   0.322  0.00  0.00    -0.198 NA
ATOM      6  C   UNL     1       0.689   2.926   0.215  0.00  0.00    +0.147 A 
ATOM      7  N   UNL     1      -2.857   2.805   0.546  0.00  0.00    -0.300 N 
ATOM      8  C   UNL     1      -3.231   3.667  -0.582  0.00  0.00    +0.108 C 
ATOM      9  C   UNL     1      -4.638   4.226  -0.354  0.00  0.00    +0.022 C 
ATOM     10  C   UNL     1      -5.628   3.064  -0.224  0.00  0.00    -0.011 C 
ATOM     11  C   UNL     1      -5.188   2.155   0.926  0.00  0.00    +0.022 C 
ATOM     12  C   UNL     1      -3.765   1.657   0.661  0.00  0.00    +0.108 C 
ATOM     13  C   UNL     1      -7.026   3.615   0.064  0.00  0.00    +0.007 C 
ENDROOT
BRANCH   1  14
ATOM     14  S   UNL     1       2.675   1.026   0.084  0.00  0.00    +0.030 S 
ATOM     15  O   UNL     1       2.651  -0.393   0.166  0.00  0.00    -0.164 OA
ATOM     16  O   UNL     1       3.233   1.716  -1.025  0.00  0.00    -0.164 OA
BRANCH  14  20
ATOM     17  C   UNL     1       4.868   2.498   3.760  0.00  0.00    -0.048 A 
ATOM     18  C   UNL     1       4.141   1.323   3.813  0.00  0.00    +0.005 A 
ATOM     19  C   UNL     1       3.472   0.873   2.691  0.00  0.00    +0.027 A 
ATOM     20  C   UNL     1       3.528   1.599   1.515  0.00  0.00    +0.094 A 
ATOM     21  C   UNL     1       4.260   2.771   1.461  0.00  0.00    +0.027 A 
ATOM     22  C   UNL     1       4.926   3.222   2.584  0.00  0.00    +0.005 A 
BRANCH  17  24
ATOM     23  C   UNL     1       7.015   2.412   4.999  0.00  0.00    +0.009 C 
ATOM     24  C   UNL     1       5.598   2.988   4.984  0.00  0.00    +0.032 C 
ENDBRANCH  17  24
ENDBRANCH  14  20
ENDBRANCH   1  14
BRANCH   6  25
ATOM     25  N   UNL     1       1.689   3.877   0.098  0.00  0.00    -0.341 N 
ATOM     26  H   UNL     1       1.433   4.947   0.092  0.00  0.00    +0.144 HD
ATOM     27  H   UNL     1       2.740   3.563   0.010  0.00  0.00    +0.144 HD
ENDBRANCH   6  25
TORSDOF 4
