REMARK  Name = ZINC21915081
REMARK  6 active torsions:
REMARK  status: ('A' for Active; 'I' for Inactive)
REMARK    1  A    between atoms: C_1  and  C_2
REMARK    2  A    between atoms: C_2  and  N_3
REMARK    3  A    between atoms: C_7  and  C_9
REMARK    4  A    between atoms: C_9  and  N_10
REMARK    5  A    between atoms: C_11  and  C_13
REMARK    6  A    between atoms: N_24  and  C_27
REMARK                            x       y       z     vdW  Elec       q    Type
REMARK                         _______ _______ _______ _____ _____    ______ ____
ROOT
ATOM      1  C   UNL     1       0.915  -0.693   0.022  0.00  0.00    +0.053 A 
ATOM      2  C   UNL     1       2.047   0.163   0.041  0.00  0.00    +0.013 A 
ATOM      3  C   UNL     1       3.349  -0.352   0.042  0.00  0.00    +0.011 A 
ATOM      4  C   UNL     1       4.411   0.501   0.061  0.00  0.00    +0.001 A 
ATOM      5  C   UNL     1       4.219   1.882   0.080  0.00  0.00    +0.002 A 
ATOM      6  C   UNL     1       2.969   2.417   0.079  0.00  0.00    +0.028 A 
ATOM      7  C   UNL     1       1.844   1.568   0.060  0.00  0.00    +0.073 A 
ATOM      8  N   UNL     1       0.611   2.069   0.059  0.00  0.00    -0.242 NA
ATOM      9  C   UNL     1      -0.460   1.296   0.042  0.00  0.00    +0.132 A 
ATOM     10  C   UNL     1      -0.336  -0.103   0.023  0.00  0.00    +0.013 A 
ATOM     11  C   UNL     1      -1.737  -0.660   0.006  0.00  0.00    +0.146 C 
ATOM     12  N   UNL     1      -2.639   0.496   0.017  0.00  0.00    -0.289 N 
ATOM     13  C   UNL     1      -1.906   1.622   0.032  0.00  0.00    +0.266 C 
ATOM     14  O   UNL     1      -2.364   2.748   0.044  0.00  0.00    -0.268 OA
ENDROOT
BRANCH  12  15
ATOM     15  C   UNL     1      -4.103   0.434   0.007  0.00  0.00    +0.077 C 
ATOM     16  C   UNL     1      -4.635   1.151  -1.235  0.00  0.00    +0.022 C 
ATOM     17  C   UNL     1      -6.164   1.085  -1.246  0.00  0.00    +0.002 C 
ATOM     18  C   UNL     1      -6.712   1.766   0.010  0.00  0.00    +0.000 C 
ATOM     19  C   UNL     1      -6.180   1.049   1.252  0.00  0.00    +0.002 C 
ATOM     20  C   UNL     1      -4.651   1.115   1.263  0.00  0.00    +0.022 C 
ENDBRANCH  12  15
BRANCH   1  22
ATOM     21  N   UNL     1       1.130  -2.851   1.159  0.00  0.00    -0.313 N 
ATOM     22  C   UNL     1       1.067  -2.163   0.001  0.00  0.00    +0.245 C 
ATOM     23  O   UNL     1       1.137  -2.752  -1.060  0.00  0.00    -0.270 OA
ATOM     24  H   UNL     1       1.067  -2.318   2.119  0.00  0.00    +0.149 HD
BRANCH  21  25
ATOM     25  C   UNL     1       1.281  -4.308   1.139  0.00  0.00    +0.089 C 
BRANCH  25  30
ATOM     26  N   UNL     1       1.516  -6.296   2.568  0.00  0.00    +0.382 N 
ATOM     27  C   UNL     1       2.830  -6.710   3.105  0.00  0.00    -0.078 C 
ATOM     28  C   UNL     1       3.291  -5.519   3.982  0.00  0.00    -0.020 C 
ATOM     29  C   UNL     1       2.780  -4.307   3.159  0.00  0.00    -0.016 C 
ATOM     30  C   UNL     1       1.451  -4.823   2.569  0.00  0.00    -0.051 C 
ATOM     31  H   UNL     1       0.710  -6.702   3.197  0.00  0.00    -0.081 HD
BRANCH  26  33
ATOM     32  C   UNL     1       1.484  -8.350   1.235  0.00  0.00    -0.017 C 
ATOM     33  C   UNL     1       1.309  -6.830   1.215  0.00  0.00    -0.082 C 
ENDBRANCH  26  33
ENDBRANCH  25  30
ENDBRANCH  21  25
ENDBRANCH   1  22
TORSDOF 5
