REMARK  Name = ZINC57003726
REMARK  8 active torsions:
REMARK  status: ('A' for Active; 'I' for Inactive)
REMARK    1  A    between atoms: C_1  and  C_2
REMARK    2  A    between atoms: C_5  and  O_27
REMARK    3  A    between atoms: C_6  and  C_8
REMARK    4  A    between atoms: C_8  and  C_10
REMARK    5  A    between atoms: C_8  and  N_11
REMARK    6  A    between atoms: N_14  and  C_15
REMARK    7  A    between atoms: C_24  and  O_26
REMARK    8  A    between atoms: O_27  and  C_28
REMARK                            x       y       z     vdW  Elec       q    Type
REMARK                         _______ _______ _______ _____ _____    ______ ____
ROOT
ATOM      1  N   UNL     1       0.630  -1.997   3.542  0.00  0.00    -0.293 N 
ATOM      2  C   UNL     1       1.298  -2.561   4.569  0.00  0.00    +0.301 C 
ATOM      3  O   UNL     1       1.420  -3.769   4.624  0.00  0.00    -0.253 OA
ATOM      4  N   UNL     1       1.829  -1.785   5.534  0.00  0.00    -0.290 N 
ATOM      5  H   UNL     1       0.532  -1.033   3.499  0.00  0.00    +0.151 HD
ATOM      6  H   UNL     1       1.731  -0.821   5.490  0.00  0.00    +0.151 HD
ENDROOT
BRANCH   4   7
ATOM      7  C   UNL     1       2.555  -2.398   6.650  0.00  0.00    +0.134 C 
ATOM      8  C   UNL     1       1.597  -2.756   7.766  0.00  0.00    -0.021 A 
ATOM      9  C   UNL     1       0.724  -3.825   7.890  0.00  0.00    +0.006 A 
ATOM     10  C   UNL     1      -0.066  -3.948   9.016  0.00  0.00    +0.000 A 
ATOM     11  C   UNL     1       0.013  -3.003  10.022  0.00  0.00    +0.000 A 
ATOM     12  C   UNL     1       0.883  -1.938   9.900  0.00  0.00    +0.004 A 
ATOM     13  C   UNL     1       1.676  -1.812   8.771  0.00  0.00    -0.040 A 
ATOM     14  C   UNL     1       2.693  -0.754   8.400  0.00  0.00    +0.069 C 
ATOM     15  C   UNL     1       3.539  -1.383   7.270  0.00  0.00    +0.143 C 
BRANCH  15  16
ATOM     16  O   UNL     1       3.923  -0.397   6.310  0.00  0.00    -0.389 OA
ATOM     17  H   UNL     1       4.541   0.264   6.652  0.00  0.00    +0.210 HD
ENDBRANCH  15  16
ENDBRANCH   4   7
BRANCH   1  18
ATOM     18  C   UNL     1       0.052  -2.841   2.493  0.00  0.00    +0.105 C 
ATOM     19  C   UNL     1      -1.352  -3.283   2.910  0.00  0.00    +0.033 C 
BRANCH  18  25
ATOM     20  C   UNL     1      -0.349   1.536   0.102  0.00  0.00    +0.044 C 
ATOM     21  C   UNL     1      -0.220   0.035   0.062  0.00  0.00    -0.050 A 
ATOM     22  C   UNL     1      -0.175  -0.622  -1.154  0.00  0.00    +0.007 A 
ATOM     23  C   UNL     1      -0.057  -1.997  -1.193  0.00  0.00    +0.046 A 
ATOM     24  C   UNL     1       0.017  -2.720  -0.011  0.00  0.00    +0.125 A 
ATOM     25  C   UNL     1      -0.028  -2.059   1.208  0.00  0.00    +0.014 A 
ATOM     26  C   UNL     1      -0.140  -0.682   1.241  0.00  0.00    +0.012 A 
BRANCH  24  27
ATOM     27  O   UNL     1       0.132  -4.074  -0.047  0.00  0.00    -0.495 OA
ATOM     28  C   UNL     1       0.172  -4.687  -1.337  0.00  0.00    +0.277 C 
ENDBRANCH  24  27
ENDBRANCH  18  25
ENDBRANCH   1  18
TORSDOF 5
