REMARK  Name = ZINC62933830
REMARK  7 active torsions:
REMARK  status: ('A' for Active; 'I' for Inactive)
REMARK    1  A    between atoms: C_1  and  C_2
REMARK    2  A    between atoms: C_2  and  N_3
REMARK    3  A    between atoms: C_4  and  C_6
REMARK    4  A    between atoms: C_6  and  N_7
REMARK    5  A    between atoms: N_7  and  C_8
REMARK    6  A    between atoms: C_14  and  C_16
REMARK    7  A    between atoms: C_14  and  C_17
REMARK                            x       y       z     vdW  Elec       q    Type
REMARK                         _______ _______ _______ _____ _____    ______ ____
ROOT
ATOM      1  N   UNL     1       1.557  -3.792  -2.628  0.00  0.00    -0.280 N 
ATOM      2  C   UNL     1       0.520  -4.696  -3.134  0.00  0.00    +0.134 C 
ATOM      3  C   UNL     1       2.750  -4.286  -2.240  0.00  0.00    +0.305 C 
ATOM      4  O   UNL     1       3.569  -3.555  -1.717  0.00  0.00    -0.252 OA
ATOM      5  N   UNL     1       3.035  -5.589  -2.433  0.00  0.00    -0.284 N 
ATOM      6  C   UNL     1       4.230  -6.321  -1.953  0.00  0.00    +0.110 C 
ATOM      7  C   UNL     1       4.574  -7.256  -3.139  0.00  0.00    +0.038 C 
ATOM      8  C   UNL     1       3.180  -7.674  -3.663  0.00  0.00    +0.086 C 
ATOM      9  C   UNL     1       2.218  -6.579  -3.158  0.00  0.00    +0.127 C 
ATOM     10  C   UNL     1       2.781  -9.033  -3.085  0.00  0.00    +0.024 C 
ENDROOT
BRANCH   8  11
ATOM     11  C   UNL     1       3.180  -7.723  -5.169  0.00  0.00    +0.363 C 
ATOM     12  O   UNL     1       3.921  -8.495  -5.753  0.00  0.00    -0.246 OA
ATOM     13  O   UNL     1       2.439  -6.992  -5.803  0.00  0.00    -0.246 OA
ENDBRANCH   8  11
BRANCH   1  14
ATOM     14  C   UNL     1       1.297  -2.353  -2.543  0.00  0.00    +0.204 C 
BRANCH  14  16
ATOM     15  N   UNL     1       0.388  -0.755  -0.889  0.00  0.00    -0.314 N 
ATOM     16  C   UNL     1       0.709  -2.027  -1.194  0.00  0.00    +0.230 C 
ATOM     17  O   UNL     1       0.526  -2.910  -0.383  0.00  0.00    -0.274 OA
ATOM     18  H   UNL     1       0.534  -0.048  -1.537  0.00  0.00    +0.149 HD
BRANCH  15  20
ATOM     19  C   UNL     1      -0.455   1.065   0.511  0.00  0.00    +0.024 C 
ATOM     20  C   UNL     1      -0.183  -0.438   0.423  0.00  0.00    +0.101 C 
ENDBRANCH  15  20
ENDBRANCH  14  16
ENDBRANCH   1  14
TORSDOF 4
