REMARK  Name = ZINC13524092
REMARK  6 active torsions:
REMARK  status: ('A' for Active; 'I' for Inactive)
REMARK    1  A    between atoms: C_4  and  C_7
REMARK    2  A    between atoms: C_7  and  N_8
REMARK    3  A    between atoms: C_11  and  N_14
REMARK    4  A    between atoms: N_14  and  C_15
REMARK    5  A    between atoms: C_18  and  N_24
REMARK    6  A    between atoms: C_20  and  N_21
REMARK                            x       y       z     vdW  Elec       q    Type
REMARK                         _______ _______ _______ _____ _____    ______ ____
ROOT
ATOM      1  C   UNL     1       6.232  -3.909   5.356  0.00  0.00    +0.058 A 
ATOM      2  C   UNL     1       6.700  -4.810   4.408  0.00  0.00    +0.027 A 
ATOM      3  C   UNL     1       7.814  -5.579   4.678  0.00  0.00    +0.026 A 
ATOM      4  C   UNL     1       8.467  -5.452   5.896  0.00  0.00    +0.046 A 
ATOM      5  C   UNL     1       8.000  -4.551   6.844  0.00  0.00    +0.058 A 
ATOM      6  C   UNL     1       6.889  -3.778   6.572  0.00  0.00    +0.149 A 
ENDROOT
BRANCH   4   7
ATOM      7  N   UNL     1       9.600  -6.235   6.171  0.00  0.00    -0.210 N 
ATOM      8  C   UNL     1      10.287  -6.169   7.343  0.00  0.00    +0.230 C 
ATOM      9  O   UNL     1       9.931  -5.626   8.367  0.00  0.00    -0.275 OA
ATOM     10  C   UNL     1      11.569  -6.903   7.112  0.00  0.00    +0.088 C 
ATOM     11  C   UNL     1      12.202  -7.671   8.252  0.00  0.00    +0.013 C 
ATOM     12  C   UNL     1      13.468  -8.334   7.673  0.00  0.00    +0.001 C 
ATOM     13  C   UNL     1      13.145  -9.236   6.487  0.00  0.00    +0.001 C 
ATOM     14  C   UNL     1      12.329  -8.502   5.406  0.00  0.00    +0.013 C 
ATOM     15  C   UNL     1      11.093  -7.957   6.069  0.00  0.00    +0.088 C 
ATOM     16  C   UNL     1      10.114  -7.137   5.293  0.00  0.00    +0.230 C 
ATOM     17  O   UNL     1       9.838  -7.252   4.118  0.00  0.00    -0.275 OA
ENDBRANCH   4   7
BRANCH   6  18
ATOM     18  N   UNL     1       6.395  -2.813   7.580  0.00  0.00    +0.058 N 
ATOM     19  O   UNL     1       5.955  -1.743   7.228  0.00  0.00    -0.126 OA
ATOM     20  O   UNL     1       6.430  -3.095   8.755  0.00  0.00    -0.126 OA
ENDBRANCH   6  18
BRANCH   1  21
ATOM     21  N   UNL     1       5.104  -3.130   5.082  0.00  0.00    -0.339 N 
ATOM     22  H   UNL     1       4.728  -2.562   5.773  0.00  0.00    +0.146 HD
BRANCH  21  26
ATOM     23  N   UNL     1       3.104  -1.769   1.631  0.00  0.00    +0.382 N 
ATOM     24  C   UNL     1       2.395  -2.751   2.460  0.00  0.00    -0.077 C 
ATOM     25  C   UNL     1       3.011  -2.782   3.860  0.00  0.00    +0.003 C 
ATOM     26  C   UNL     1       4.488  -3.172   3.754  0.00  0.00    +0.067 C 
ATOM     27  C   UNL     1       5.202  -2.184   2.827  0.00  0.00    +0.003 C 
ATOM     28  C   UNL     1       4.504  -2.175   1.465  0.00  0.00    -0.077 C 
ATOM     29  H   UNL     1       3.068  -0.865   2.079  0.00  0.00    -0.081 HD
BRANCH  23  30
ATOM     30  C   UNL     1       2.460  -1.687   0.314  0.00  0.00    -0.043 C 
BRANCH  30  34
ATOM     31  C   UNL     1      -1.510  -0.172   0.758  0.00  0.00    +0.000 A 
ATOM     32  C   UNL     1      -0.456   0.700   0.556  0.00  0.00    +0.000 A 
ATOM     33  C   UNL     1       0.829   0.210   0.412  0.00  0.00    +0.002 A 
ATOM     34  C   UNL     1       1.060  -1.152   0.471  0.00  0.00    -0.064 A 
ATOM     35  C   UNL     1       0.006  -2.023   0.675  0.00  0.00    +0.002 A 
ATOM     36  C   UNL     1      -1.279  -1.533   0.817  0.00  0.00    +0.000 A 
ENDBRANCH  30  34
ENDBRANCH  23  30
ENDBRANCH  21  26
ENDBRANCH   1  21
TORSDOF 6
