REMARK  Name = ZINC17297544
REMARK  9 active torsions:
REMARK  status: ('A' for Active; 'I' for Inactive)
REMARK    1  A    between atoms: C_1  and  C_2
REMARK    2  A    between atoms: C_2  and  O_3
REMARK    3  A    between atoms: O_3  and  C_4
REMARK    4  A    between atoms: C_4  and  C_6
REMARK    5  A    between atoms: C_10  and  N_11
REMARK    6  A    between atoms: C_12  and  C_14
REMARK    7  A    between atoms: C_17  and  S_20
REMARK    8  A    between atoms: S_20  and  N_23
REMARK    9  A    between atoms: C_33  and  C_37
REMARK                            x       y       z     vdW  Elec       q    Type
REMARK                         _______ _______ _______ _____ _____    ______ ____
ROOT
ATOM      1  N   UNL     1      -1.071  -0.879   0.007  0.00  0.00    -0.275 N 
ATOM      2  C   UNL     1      -2.331  -0.401   0.021  0.00  0.00    +0.249 C 
ATOM      3  O   UNL     1      -2.525   0.799   0.029  0.00  0.00    -0.270 OA
ATOM      4  H   UNL     1      -0.916  -1.837  -0.000  0.00  0.00    +0.156 HD
ENDROOT
BRANCH   1   9
ATOM      5  C   UNL     1       1.359  -0.302  -0.012  0.00  0.00    +0.091 A 
ATOM      6  C   UNL     1       2.290   0.814  -0.015  0.00  0.00    -0.021 A 
ATOM      7  C   UNL     1       1.722   2.038  -0.003  0.00  0.00    -0.004 A 
ATOM      8  S   UNL     1      -0.021   1.728   0.011  0.00  0.00    -0.077 S 
ATOM      9  C   UNL     1       0.002  -0.004   0.002  0.00  0.00    +0.087 A 
ATOM     10  C   UNL     1       2.425   3.361  -0.004  0.00  0.00    +0.046 C 
ATOM     11  C   UNL     1       3.891   3.129  -0.398  0.00  0.00    -0.009 C 
ATOM     12  C   UNL     1       4.445   1.964   0.428  0.00  0.00    +0.008 C 
ATOM     13  C   UNL     1       3.806   0.652  -0.029  0.00  0.00    +0.037 C 
ATOM     14  C   UNL     1       4.704   4.394  -0.116  0.00  0.00    +0.008 C 
BRANCH   5  15
ATOM     15  C   UNL     1       1.832  -1.687  -0.025  0.00  0.00    +0.342 C 
ATOM     16  O   UNL     1       2.019  -2.257  -1.083  0.00  0.00    -0.245 OA
BRANCH  15  17
ATOM     17  O   UNL     1       2.062  -2.332   1.138  0.00  0.00    -0.461 OA
BRANCH  17  19
ATOM     18  C   UNL     1       2.733  -4.265   2.458  0.00  0.00    +0.048 C 
ATOM     19  C   UNL     1       2.530  -3.704   1.049  0.00  0.00    +0.229 C 
ENDBRANCH  17  19
ENDBRANCH  15  17
ENDBRANCH   5  15
ENDBRANCH   1   9
BRANCH   2  20
ATOM     20  C   UNL     1      -3.476  -1.335   0.026  0.00  0.00    +0.037 A 
ATOM     21  C   UNL     1      -3.257  -2.713   0.010  0.00  0.00    +0.015 A 
ATOM     22  C   UNL     1      -4.330  -3.580   0.021  0.00  0.00    +0.029 A 
ATOM     23  C   UNL     1      -5.622  -3.085   0.035  0.00  0.00    +0.109 A 
ATOM     24  C   UNL     1      -5.847  -1.720   0.045  0.00  0.00    +0.029 A 
ATOM     25  C   UNL     1      -4.782  -0.842   0.041  0.00  0.00    +0.015 A 
BRANCH  23  26
ATOM     26  S   UNL     1      -6.988  -4.199   0.042  0.00  0.00    +0.075 S 
ATOM     27  O   UNL     1      -6.510  -5.423   0.582  0.00  0.00    -0.150 OA
ATOM     28  O   UNL     1      -8.084  -3.493   0.607  0.00  0.00    -0.150 OA
BRANCH  26  29
ATOM     29  N   UNL     1      -7.382  -4.499  -1.538  0.00  0.00    -0.202 N 
ATOM     30  C   UNL     1      -6.823  -5.582  -2.351  0.00  0.00    +0.136 C 
ATOM     31  C   UNL     1      -7.496  -5.442  -3.727  0.00  0.00    +0.058 C 
ATOM     32  C   UNL     1      -8.415  -4.250  -3.580  0.00  0.00    -0.023 A 
ATOM     33  C   UNL     1      -8.300  -3.761  -2.287  0.00  0.00    +0.054 A 
ATOM     34  C   UNL     1      -9.055  -2.648  -1.914  0.00  0.00    +0.025 A 
ATOM     35  C   UNL     1      -9.910  -2.053  -2.818  0.00  0.00    +0.002 A 
ATOM     36  C   UNL     1     -10.022  -2.552  -4.103  0.00  0.00    +0.000 A 
ATOM     37  C   UNL     1      -9.273  -3.651  -4.481  0.00  0.00    +0.005 A 
ENDBRANCH  26  29
ENDBRANCH  23  26
ENDBRANCH   2  20
TORSDOF 7
