REMARK  Name = ZINC20558701
REMARK  6 active torsions:
REMARK  status: ('A' for Active; 'I' for Inactive)
REMARK    1  A    between atoms: C_1  and  C_2
REMARK    2  A    between atoms: C_7  and  C_8
REMARK    3  A    between atoms: C_8  and  N_9
REMARK    4  A    between atoms: C_21  and  C_29
REMARK    5  A    between atoms: C_23  and  C_27
REMARK    6  A    between atoms: C_24  and  N_26
REMARK                            x       y       z     vdW  Elec       q    Type
REMARK                         _______ _______ _______ _____ _____    ______ ____
ROOT
ATOM      1  N   UNL     1      -1.745  -0.895  -1.373  0.00  0.00    -0.198 N 
ATOM      2  C   UNL     1      -2.427   0.146  -2.013  0.00  0.00    +0.062 A 
ATOM      3  C   UNL     1      -3.194   1.013  -1.249  0.00  0.00    +0.025 A 
ATOM      4  C   UNL     1      -3.882   2.047  -1.852  0.00  0.00    +0.002 A 
ATOM      5  C   UNL     1      -3.804   2.225  -3.223  0.00  0.00    +0.001 A 
ATOM      6  C   UNL     1      -3.039   1.377  -3.993  0.00  0.00    +0.013 A 
ATOM      7  C   UNL     1      -2.333   0.325  -3.396  0.00  0.00    +0.042 A 
ATOM      8  C   UNL     1      -1.520  -0.549  -4.275  0.00  0.00    +0.162 C 
ATOM      9  C   UNL     1      -1.096  -1.744  -3.873  0.00  0.00    +0.141 C 
ATOM     10  S   UNL     1      -1.514  -2.295  -2.245  0.00  0.00    +0.076 S 
ATOM     11  O   UNL     1      -0.360  -2.931  -1.713  0.00  0.00    -0.150 OA
ATOM     12  O   UNL     1      -2.776  -2.941  -2.335  0.00  0.00    -0.150 OA
ATOM     13  C   UNL     1      -0.272  -2.632  -4.764  0.00  0.00    +0.118 C 
ATOM     14  C   UNL     1       0.322  -1.831  -5.890  0.00  0.00    +0.099 C 
ATOM     15  C   UNL     1      -0.183  -0.610  -6.200  0.00  0.00    +0.199 C 
ATOM     16  O   UNL     1      -1.218  -0.092  -5.520  0.00  0.00    -0.439 OA
ENDROOT
BRANCH  13  17
ATOM     17  C   UNL     1      -1.148  -3.719  -5.333  0.00  0.00    -0.032 A 
ATOM     18  C   UNL     1      -0.855  -5.046  -5.078  0.00  0.00    +0.005 A 
ATOM     19  C   UNL     1      -1.658  -6.043  -5.599  0.00  0.00    +0.002 A 
ATOM     20  C   UNL     1      -2.754  -5.714  -6.375  0.00  0.00    +0.020 A 
ATOM     21  C   UNL     1      -3.047  -4.387  -6.629  0.00  0.00    +0.041 A 
ATOM     22  C   UNL     1      -2.246  -3.389  -6.103  0.00  0.00    +0.024 A 
ATOM     23 CL   UNL     1      -4.424  -3.973  -7.603  0.00  0.00    -0.084 Cl
ENDBRANCH  13  17
BRANCH  15  24
ATOM     24  N   UNL     1       0.374   0.108  -7.228  0.00  0.00    -0.328 N 
ATOM     25  H   UNL     1      -0.027   1.098  -7.488  0.00  0.00    +0.145 HD
ATOM     26  H   UNL     1       1.223  -0.307  -7.792  0.00  0.00    +0.145 HD
ENDBRANCH  15  24
BRANCH  14  27
ATOM     27  C   UNL     1       1.425  -2.358  -6.636  0.00  0.00    +0.101 C 
ATOM     28  N   UNL     1       2.299  -2.776  -7.229  0.00  0.00    -0.191 NA
ENDBRANCH  14  27
BRANCH   1  29
ATOM     29  C   UNL     1      -1.261  -0.762   0.004  0.00  0.00    +0.167 C 
BRANCH  29  36
ATOM     30  C   UNL     1       0.184  -0.411   2.481  0.00  0.00    +0.044 C 
ATOM     31  C   UNL     1       0.788   0.059   1.183  0.00  0.00    -0.046 A 
ATOM     32  C   UNL     1       2.033   0.661   1.177  0.00  0.00    +0.003 A 
ATOM     33  C   UNL     1       2.584   1.098  -0.012  0.00  0.00    +0.000 A 
ATOM     34  C   UNL     1       1.892   0.932  -1.197  0.00  0.00    +0.000 A 
ATOM     35  C   UNL     1       0.648   0.330  -1.192  0.00  0.00    +0.005 A 
ATOM     36  C   UNL     1       0.096  -0.106  -0.002  0.00  0.00    -0.025 A 
ENDBRANCH  29  36
ENDBRANCH   1  29
TORSDOF 5
