REMARK  Name = ZINC02110483
REMARK  10 active torsions:
REMARK  status: ('A' for Active; 'I' for Inactive)
REMARK    1  A    between atoms: C_1  and  C_2
REMARK    2  A    between atoms: C_4  and  O_11
REMARK    3  A    between atoms: C_7  and  N_8
REMARK    4  A    between atoms: O_11  and  C_12
REMARK    5  A    between atoms: C_12  and  C_13
REMARK    6  A    between atoms: C_15  and  C_21
REMARK    7  A    between atoms: C_18  and  O_19
REMARK    8  A    between atoms: O_19  and  C_20
REMARK    9  A    between atoms: C_27  and  O_33
REMARK   10  A    between atoms: O_33  and  C_34
REMARK                            x       y       z     vdW  Elec       q    Type
REMARK                         _______ _______ _______ _____ _____    ______ ____
ROOT
ATOM      1  C   UNL     1      -1.062   1.067   3.818  0.00  0.00    +0.031 A 
ATOM      2  C   UNL     1      -0.739   0.545   5.056  0.00  0.00    +0.013 A 
ATOM      3  C   UNL     1       0.247  -0.418   5.164  0.00  0.00    -0.055 A 
ATOM      4  C   UNL     1       0.912  -0.860   4.036  0.00  0.00    +0.006 A 
ATOM      5  C   UNL     1       0.588  -0.345   2.796  0.00  0.00    +0.046 A 
ATOM      6  C   UNL     1      -0.397   0.625   2.684  0.00  0.00    +0.126 A 
ENDROOT
BRANCH   3   7
ATOM      7  C   UNL     1       0.598  -0.987   6.515  0.00  0.00    +0.007 C 
ATOM      8  C   UNL     1       1.853  -0.326   7.034  0.00  0.00    +0.010 A 
ATOM      9  C   UNL     1       2.859  -1.013   7.621  0.00  0.00    -0.022 A 
ATOM     10  C   UNL     1       3.879  -0.054   7.981  0.00  0.00    +0.006 A 
ATOM     11  C   UNL     1       5.125  -0.182   8.604  0.00  0.00    +0.056 A 
ATOM     12  C   UNL     1       5.852   0.984   8.794  0.00  0.00    +0.121 A 
ATOM     13  C   UNL     1       5.370   2.222   8.385  0.00  0.00    +0.047 A 
ATOM     14  C   UNL     1       4.141   2.367   7.767  0.00  0.00    +0.030 A 
ATOM     15  C   UNL     1       3.390   1.211   7.565  0.00  0.00    +0.047 A 
ATOM     16  N   UNL     1       2.163   1.006   6.996  0.00  0.00    -0.359 N 
ATOM     17  H   UNL     1       1.598   1.700   6.623  0.00  0.00    +0.166 HD
ATOM     18  C   UNL     1       2.836  -2.507   7.827  0.00  0.00    +0.018 C 
ATOM     19  C   UNL     1       1.391  -2.990   7.640  0.00  0.00    -0.076 C 
ATOM     20  N   UNL     1       0.840  -2.440   6.384  0.00  0.00    +0.387 N 
ATOM     21  H   UNL     1       1.508  -2.604   5.621  0.00  0.00    -0.084 HD
ATOM     22  H   UNL     1      -0.046  -2.912   6.169  0.00  0.00    -0.084 HD
BRANCH  12  23
ATOM     23  O   UNL     1       7.069   0.914   9.396  0.00  0.00    -0.495 OA
ATOM     24  C   UNL     1       7.779   2.143   9.568  0.00  0.00    +0.277 C 
ENDBRANCH  12  23
ENDBRANCH   3   7
BRANCH   6  25
ATOM     25  O   UNL     1      -0.713   1.138   1.466  0.00  0.00    -0.495 OA
ATOM     26  C   UNL     1       0.013   0.636   0.343  0.00  0.00    +0.277 C 
ENDBRANCH   6  25
BRANCH   1  27
ATOM     27  C   UNL     1      -2.137   2.117   3.701  0.00  0.00    +0.268 C 
BRANCH  27  28
ATOM     28  O   UNL     1      -2.668   2.402   4.996  0.00  0.00    -0.487 OA
BRANCH  28  32
ATOM     29  C   UNL     1      -5.827   4.965   7.694  0.00  0.00    +0.046 C 
ATOM     30  C   UNL     1      -5.217   4.610   6.363  0.00  0.00    -0.017 A 
ATOM     31  C   UNL     1      -4.215   3.661   6.293  0.00  0.00    +0.051 A 
ATOM     32  C   UNL     1      -3.654   3.335   5.067  0.00  0.00    +0.121 A 
ATOM     33  C   UNL     1      -4.098   3.967   3.914  0.00  0.00    +0.048 A 
ATOM     34  C   UNL     1      -5.104   4.910   3.988  0.00  0.00    +0.036 A 
ATOM     35  C   UNL     1      -5.661   5.234   5.212  0.00  0.00    +0.129 A 
BRANCH  35  36
ATOM     36  N   UNL     1      -6.735   6.250   5.289  0.00  0.00    +0.057 N 
ATOM     37  O   UNL     1      -7.571   6.321   4.406  0.00  0.00    -0.126 OA
ATOM     38  O   UNL     1      -6.782   7.015   6.236  0.00  0.00    -0.126 OA
ENDBRANCH  35  36
ENDBRANCH  28  32
ENDBRANCH  27  28
ENDBRANCH   1  27
TORSDOF 7
