REMARK  Name = ZINC12592393
REMARK  8 active torsions:
REMARK  status: ('A' for Active; 'I' for Inactive)
REMARK    1  A    between atoms: C_1  and  C_2
REMARK    2  A    between atoms: C_5  and  N_9
REMARK    3  A    between atoms: C_7  and  C_8
REMARK    4  A    between atoms: C_14  and  N_58
REMARK    5  A    between atoms: C_19  and  C_20
REMARK    6  A    between atoms: C_19  and  N_58
REMARK    7  A    between atoms: C_23  and  O_26
REMARK    8  A    between atoms: O_26  and  C_27
REMARK                            x       y       z     vdW  Elec       q    Type
REMARK                         _______ _______ _______ _____ _____    ______ ____
ROOT
ATOM      1  N   UNL     1      -0.072   5.692  -0.048  0.00  0.00    -0.237 N 
ATOM      2  C   UNL     1       0.741   6.475   0.685  0.00  0.00    +0.047 A 
ATOM      3  C   UNL     1       0.409   7.767   0.436  0.00  0.00    -0.020 A 
ATOM      4  C   UNL     1      -0.647   7.773  -0.473  0.00  0.00    +0.137 A 
ATOM      5  N   UNL     1      -0.939   6.529  -0.767  0.00  0.00    -0.174 NA
ATOM      6  C   UNL     1       1.094   8.953   1.069  0.00  0.00    -0.037 C 
ATOM      7  C   UNL     1       1.877   8.461   2.295  0.00  0.00    -0.011 C 
ATOM      8  C   UNL     1       2.741   7.262   1.895  0.00  0.00    +0.005 C 
ATOM      9  C   UNL     1       1.842   6.050   1.624  0.00  0.00    +0.056 C 
ENDROOT
BRANCH   1  14
ATOM     10  C   UNL     1      -0.024   0.018  -0.185  0.00  0.00    +0.044 C 
ATOM     11  C   UNL     1      -0.037   1.525  -0.149  0.00  0.00    -0.047 A 
ATOM     12  C   UNL     1       0.099   2.187   1.058  0.00  0.00    +0.006 A 
ATOM     13  C   UNL     1       0.088   3.567   1.094  0.00  0.00    +0.028 A 
ATOM     14  C   UNL     1      -0.060   4.290  -0.082  0.00  0.00    +0.066 A 
ATOM     15  C   UNL     1      -0.196   3.623  -1.291  0.00  0.00    +0.031 A 
ATOM     16  C   UNL     1      -0.179   2.242  -1.322  0.00  0.00    -0.046 A 
ATOM     17  C   UNL     1      -0.320   1.517  -2.635  0.00  0.00    +0.044 C 
ENDBRANCH   1  14
BRANCH   6  18
ATOM     18  N   UNL     1       0.084   9.934   1.509  0.00  0.00    +0.386 N 
ATOM     19  H   UNL     1       0.470  10.497   2.276  0.00  0.00    -0.085 HD
ATOM     20  H   UNL     1      -0.752   9.435   1.837  0.00  0.00    -0.085 HD
BRANCH  18  21
ATOM     21  C   UNL     1      -0.288  10.823   0.392  0.00  0.00    -0.046 C 
BRANCH  21  22
ATOM     22  C   UNL     1      -1.319  11.812   0.871  0.00  0.00    -0.064 A 
ATOM     23  C   UNL     1      -2.664  11.509   0.771  0.00  0.00    +0.005 A 
ATOM     24  C   UNL     1      -3.611  12.412   1.214  0.00  0.00    +0.046 A 
ATOM     25  C   UNL     1      -3.212  13.629   1.749  0.00  0.00    +0.132 A 
ATOM     26  C   UNL     1      -1.861  13.932   1.842  0.00  0.00    +0.046 A 
ATOM     27  C   UNL     1      -0.918  13.024   1.403  0.00  0.00    +0.005 A 
BRANCH  25  28
ATOM     28  O   UNL     1      -4.142  14.521   2.181  0.00  0.00    -0.424 OA
BRANCH  28  29
ATOM     29  C   UNL     1      -4.408  15.592   1.396  0.00  0.00    +0.323 A 
ATOM     30  N   UNL     1      -3.836  15.678   0.206  0.00  0.00    -0.203 NA
ATOM     31  C   UNL     1      -4.077  16.709  -0.588  0.00  0.00    +0.118 A 
ATOM     32  C   UNL     1      -4.933  17.710  -0.154  0.00  0.00    +0.040 A 
ATOM     33  C   UNL     1      -5.510  17.590   1.100  0.00  0.00    +0.118 A 
ATOM     34  N   UNL     1      -5.229  16.530   1.840  0.00  0.00    -0.203 NA
ENDBRANCH  28  29
ENDBRANCH  25  28
ENDBRANCH  21  22
ENDBRANCH  18  21
ENDBRANCH   6  18
TORSDOF 6
