REMARK  Name = ZINC65074645
REMARK  3 active torsions:
REMARK  status: ('A' for Active; 'I' for Inactive)
REMARK    1  A    between atoms: C_3  and  S_8
REMARK    2  A    between atoms: S_8  and  N_11
REMARK    3  A    between atoms: N_22  and  C_23
REMARK                            x       y       z     vdW  Elec       q    Type
REMARK                         _______ _______ _______ _____ _____    ______ ____
ROOT
ATOM      1  N   UNL     1       4.326   2.557   1.556  0.00  0.00    -0.176 NA
ATOM      2  C   UNL     1       3.871   3.749   2.285  0.00  0.00    +0.111 C 
ATOM      3  C   UNL     1       5.091   4.459   2.880  0.00  0.00    +0.047 C 
ATOM      4  C   UNL     1       5.886   3.469   3.735  0.00  0.00    +0.075 C 
ATOM      5  C   UNL     1       6.380   2.318   2.853  0.00  0.00    +0.047 C 
ATOM      6  C   UNL     1       5.171   1.581   2.259  0.00  0.00    +0.111 C 
ATOM      7  C   UNL     1       7.063   4.170   4.352  0.00  0.00    +0.089 C 
ATOM      8  N   UNL     1       7.107   4.534   5.577  0.00  0.00    -0.374 N 
ATOM      9  C   UNL     1       6.026   4.304   6.530  0.00  0.00    +0.129 C 
ATOM     10  C   UNL     1       4.729   3.977   5.786  0.00  0.00    +0.102 C 
ATOM     11  N   UNL     1       5.015   2.931   4.790  0.00  0.00    -0.303 NA
ATOM     12  N   UNL     1       8.148   4.434   3.558  0.00  0.00    -0.330 N 
ATOM     13  H   UNL     1       4.161   2.561   4.400  0.00  0.00    +0.123 HD
ATOM     14  H   UNL     1       8.143   4.169   2.625  0.00  0.00    +0.147 HD
ATOM     15  H   UNL     1       7.904   4.988   5.891  0.00  0.00    +0.161 HD
ENDROOT
BRANCH  12  16
ATOM     16  C   UNL     1       9.317   5.116   4.120  0.00  0.00    +0.071 C 
ATOM     17  C   UNL     1       9.051   6.636   4.130  0.00  0.00    +0.022 C 
ATOM     18  C   UNL     1       9.973   7.275   5.134  0.00  0.00    +0.002 C 
ATOM     19  C   UNL     1      11.273   7.796   4.492  0.00  0.00    +0.000 C 
ATOM     20  C   UNL     1      11.856   6.823   3.450  0.00  0.00    +0.000 C 
ATOM     21  C   UNL     1      11.784   5.388   3.898  0.00  0.00    +0.002 C 
ATOM     22  C   UNL     1      10.491   4.764   3.335  0.00  0.00    +0.022 C 
ENDBRANCH  12  16
BRANCH   1  23
ATOM     23  S   UNL     1       3.891   2.315  -0.023  0.00  0.00    +0.061 S 
ATOM     24  O   UNL     1       4.872   1.456  -0.588  0.00  0.00    -0.153 OA
ATOM     25  O   UNL     1       3.597   3.595  -0.564  0.00  0.00    -0.153 OA
BRANCH  23  28
ATOM     26  C   UNL     1      -0.017   1.380   0.010  0.00  0.00    +0.040 A 
ATOM     27  C   UNL     1       1.171   2.087   0.002  0.00  0.00    +0.031 A 
ATOM     28  C   UNL     1       2.377   1.412  -0.013  0.00  0.00    +0.106 A 
ATOM     29  C   UNL     1       2.397   0.030  -0.021  0.00  0.00    +0.031 A 
ATOM     30  C   UNL     1       1.211  -0.679  -0.014  0.00  0.00    +0.040 A 
ATOM     31  C   UNL     1       0.002  -0.004   0.002  0.00  0.00    +0.124 A 
ATOM     32  F   UNL     1      -1.158  -0.696   0.009  0.00  0.00    -0.205 F 
ENDBRANCH  23  28
ENDBRANCH   1  23
TORSDOF 3
