REMARK  Name = ZINC39702270
REMARK  13 active torsions:
REMARK  status: ('A' for Active; 'I' for Inactive)
REMARK    1  A    between atoms: C_1  and  C_2
REMARK    2  A    between atoms: C_2  and  C_3
REMARK    3  A    between atoms: C_4  and  C_37
REMARK    4  A    between atoms: N_7  and  C_10
REMARK    5  A    between atoms: C_10  and  C_12
REMARK    6  A    between atoms: C_10  and  C_13
REMARK    7  A    between atoms: N_15  and  C_16
REMARK    8  A    between atoms: C_17  and  C_25
REMARK    9  A    between atoms: C_25  and  O_27
REMARK   10  A    between atoms: O_27  and  C_28
REMARK   11  A    between atoms: C_28  and  C_29
REMARK   12  A    between atoms: C_31  and  C_36
REMARK   13  A    between atoms: C_33  and  C_35
REMARK                            x       y       z     vdW  Elec       q    Type
REMARK                         _______ _______ _______ _____ _____    ______ ____
ROOT
ATOM      1  C   UNL     1       0.581  -0.307  -5.007  0.00  0.00    +0.176 C 
ATOM      2  C   UNL     1      -0.852  -0.783  -5.256  0.00  0.00    +0.041 C 
ENDROOT
BRANCH   1   7
ATOM      3  C   UNL     1       0.771  -0.318  -1.286  0.00  0.00    +0.038 A 
ATOM      4  C   UNL     1       1.738  -1.263  -1.108  0.00  0.00    +0.050 A 
ATOM      5  N   UNL     1       2.291  -1.859  -2.163  0.00  0.00    -0.217 NA
ATOM      6  C   UNL     1       1.926  -1.558  -3.390  0.00  0.00    +0.236 A 
ATOM      7  N   UNL     1       0.968  -0.625  -3.630  0.00  0.00    -0.265 N 
ATOM      8  C   UNL     1       0.371   0.006  -2.596  0.00  0.00    +0.259 A 
ATOM      9  O   UNL     1      -0.494   0.843  -2.794  0.00  0.00    -0.267 OA
ATOM     10  N   UNL     1       2.529  -2.202  -4.456  0.00  0.00    -0.204 N 
ATOM     11  C   UNL     1       3.797  -2.697  -4.481  0.00  0.00    +0.045 A 
ATOM     12  C   UNL     1       3.996  -3.247  -5.699  0.00  0.00    +0.048 A 
ATOM     13  C   UNL     1       2.820  -3.087  -6.444  0.00  0.00    +0.061 A 
ATOM     14  N   UNL     1       1.942  -2.468  -5.700  0.00  0.00    -0.169 NA
ATOM     15  C   UNL     1       2.603  -3.555  -7.860  0.00  0.00    +0.067 C 
ATOM     16  C   UNL     1       4.797  -2.641  -3.355  0.00  0.00    +0.066 C 
ATOM     17  C   UNL     1       2.181  -1.634   0.284  0.00  0.00    +0.066 C 
BRANCH   3  19
ATOM     18  C   UNL     1       0.854   1.687   0.171  0.00  0.00    +0.009 C 
ATOM     19  C   UNL     1       0.137   0.362  -0.100  0.00  0.00    +0.039 C 
ENDBRANCH   3  19
ENDBRANCH   1   7
BRANCH   1  20
ATOM     20  C   UNL     1       0.660   1.183  -5.221  0.00  0.00    +0.240 C 
ATOM     21  O   UNL     1       1.006   1.908  -4.312  0.00  0.00    -0.273 OA
ATOM     22  N   UNL     1       0.346   1.709  -6.421  0.00  0.00    -0.278 N 
ATOM     23  H   UNL     1       0.069   1.129  -7.147  0.00  0.00    +0.155 HD
BRANCH  22  24
ATOM     24  C   UNL     1       0.418   3.079  -6.617  0.00  0.00    +0.086 A 
ATOM     25  C   UNL     1       0.131   3.792  -7.772  0.00  0.00    +0.091 A 
ATOM     26  C   UNL     1       0.288   5.235  -7.717  0.00  0.00    -0.021 A 
ATOM     27  C   UNL     1       0.704   5.701  -6.520  0.00  0.00    -0.004 A 
ATOM     28  S   UNL     1       0.868   4.258  -5.510  0.00  0.00    -0.077 S 
ATOM     29  C   UNL     1       0.959   7.129  -6.150  0.00  0.00    +0.043 C 
ATOM     30  C   UNL     1       1.041   7.955  -7.442  0.00  0.00    +0.005 C 
ATOM     31  C   UNL     1      -0.150   7.596  -8.336  0.00  0.00    +0.005 C 
ATOM     32  C   UNL     1       0.018   6.176  -8.882  0.00  0.00    +0.037 C 
BRANCH  25  33
ATOM     33  C   UNL     1      -0.312   3.118  -8.994  0.00  0.00    +0.342 C 
ATOM     34  O   UNL     1      -1.498   2.935  -9.192  0.00  0.00    -0.245 OA
BRANCH  33  35
ATOM     35  O   UNL     1       0.595   2.699  -9.900  0.00  0.00    -0.461 OA
BRANCH  35  36
ATOM     36  C   UNL     1       0.092   2.049 -11.069  0.00  0.00    +0.229 C 
ATOM     37  C   UNL     1       1.260   1.649 -11.973  0.00  0.00    +0.048 C 
ENDBRANCH  35  36
ENDBRANCH  33  35
ENDBRANCH  25  33
ENDBRANCH  22  24
ENDBRANCH   1  20
TORSDOF 7
