REMARK  Name = ZINC03286109
REMARK  7 active torsions:
REMARK  status: ('A' for Active; 'I' for Inactive)
REMARK    1  A    between atoms: C_4  and  C_7
REMARK    2  A    between atoms: C_7  and  N_59
REMARK    3  A    between atoms: C_12  and  C_20
REMARK    4  A    between atoms: C_20  and  O_22
REMARK    5  A    between atoms: O_22  and  C_23
REMARK    6  A    between atoms: C_23  and  C_24
REMARK    7  A    between atoms: N_26  and  C_27
REMARK                            x       y       z     vdW  Elec       q    Type
REMARK                         _______ _______ _______ _____ _____    ______ ____
ROOT
ATOM      1  C   UNL     1       3.716   1.848  -8.764  0.00  0.00    -0.072 C 
ATOM      2  C   UNL     1       4.021   0.679  -9.699  0.00  0.00    +0.037 C 
ATOM      3  C   UNL     1       4.012  -0.617  -8.925  0.00  0.00    +0.042 A 
ATOM      4  C   UNL     1       4.107  -0.626  -7.538  0.00  0.00    -0.028 A 
ATOM      5  C   UNL     1       4.102  -1.839  -6.854  0.00  0.00    +0.071 A 
ATOM      6  C   UNL     1       3.997  -3.032  -7.612  0.00  0.00    +0.015 A 
ATOM      7  C   UNL     1       3.986  -4.291  -6.998  0.00  0.00    +0.011 A 
ATOM      8  C   UNL     1       3.884  -5.413  -7.765  0.00  0.00    +0.001 A 
ATOM      9  C   UNL     1       3.789  -5.323  -9.152  0.00  0.00    +0.002 A 
ATOM     10  C   UNL     1       3.796  -4.116  -9.780  0.00  0.00    +0.028 A 
ATOM     11  C   UNL     1       3.901  -2.935  -9.022  0.00  0.00    +0.072 A 
ATOM     12  N   UNL     1       3.913  -1.739  -9.608  0.00  0.00    -0.251 NA
ATOM     13  C   UNL     1       4.211   0.644  -6.736  0.00  0.00    -0.040 C 
ATOM     14  N   UNL     1       4.630   1.755  -7.608  0.00  0.00    +0.385 N 
ATOM     15  H   UNL     1       5.582   1.576  -7.947  0.00  0.00    -0.081 HD
ENDROOT
BRANCH   5  16
ATOM     16  C   UNL     1       4.203  -1.881  -5.381  0.00  0.00    +0.341 C 
ATOM     17  O   UNL     1       3.196  -1.852  -4.702  0.00  0.00    -0.245 OA
BRANCH  16  18
ATOM     18  O   UNL     1       5.412  -1.952  -4.790  0.00  0.00    -0.452 OA
BRANCH  18  19
ATOM     19  C   UNL     1       5.436  -1.990  -3.339  0.00  0.00    +0.328 C 
BRANCH  19  20
ATOM     20  C   UNL     1       6.863  -2.067  -2.862  0.00  0.00    +0.255 C 
ATOM     21  O   UNL     1       7.771  -2.088  -3.666  0.00  0.00    -0.272 OA
ATOM     22  N   UNL     1       7.130  -2.113  -1.542  0.00  0.00    -0.278 N 
ATOM     23  H   UNL     1       6.411  -2.022  -0.898  0.00  0.00    +0.155 HD
BRANCH  22  24
ATOM     24  C   UNL     1       8.449  -2.292  -1.100  0.00  0.00    +0.105 A 
ATOM     25  C   UNL     1       8.950  -3.573  -0.903  0.00  0.00    +0.147 A 
ATOM     26  C   UNL     1      10.253  -3.745  -0.472  0.00  0.00    +0.040 A 
ATOM     27  C   UNL     1      11.053  -2.645  -0.226  0.00  0.00    +0.006 A 
ATOM     28  C   UNL     1      10.556  -1.369  -0.415  0.00  0.00    +0.040 A 
ATOM     29  C   UNL     1       9.256  -1.188  -0.851  0.00  0.00    +0.147 A 
ATOM     30  F   UNL     1       8.771   0.060  -1.034  0.00  0.00    -0.203 F 
ATOM     31  F   UNL     1       8.167  -4.649  -1.138  0.00  0.00    -0.203 F 
ENDBRANCH  22  24
ENDBRANCH  19  20
ENDBRANCH  18  19
ENDBRANCH  16  18
ENDBRANCH   5  16
BRANCH  14  32
ATOM     32  C   UNL     1       4.620   3.026  -6.848  0.00  0.00    -0.043 C 
BRANCH  32  36
ATOM     33  C   UNL     1       0.766   3.691  -5.130  0.00  0.00    +0.000 A 
ATOM     34  C   UNL     1       1.729   2.999  -4.420  0.00  0.00    +0.000 A 
ATOM     35  C   UNL     1       2.976   2.782  -4.977  0.00  0.00    +0.002 A 
ATOM     36  C   UNL     1       3.261   3.262  -6.242  0.00  0.00    -0.064 A 
ATOM     37  C   UNL     1       2.299   3.958  -6.950  0.00  0.00    +0.002 A 
ATOM     38  C   UNL     1       1.052   4.174  -6.394  0.00  0.00    +0.000 A 
ENDBRANCH  32  36
ENDBRANCH  14  32
TORSDOF 7
