REMARK  Name = ZINC35531817
REMARK  10 active torsions:
REMARK  status: ('A' for Active; 'I' for Inactive)
REMARK    1  A    between atoms: C_1  and  C_2
REMARK    2  A    between atoms: C_4  and  C_32
REMARK    3  A    between atoms: C_6  and  N_8
REMARK    4  A    between atoms: C_9  and  C_11
REMARK    5  A    between atoms: C_14  and  C_31
REMARK    6  A    between atoms: C_15  and  C_16
REMARK    7  A    between atoms: C_15  and  C_17
REMARK    8  A    between atoms: N_19  and  O_20
REMARK    9  A    between atoms: O_20  and  C_21
REMARK   10  A    between atoms: C_21  and  C_23
REMARK                            x       y       z     vdW  Elec       q    Type
REMARK                         _______ _______ _______ _____ _____    ______ ____
ROOT
ATOM      1  C   UNL     1       0.280  -2.900   4.854  0.00  0.00    +0.058 C 
ATOM      2  C   UNL     1       1.546  -3.800   4.993  0.00  0.00    +0.018 C 
ATOM      3  C   UNL     1       1.679  -4.048   6.513  0.00  0.00    +0.014 C 
ATOM      4  C   UNL     1       0.486  -3.267   7.144  0.00  0.00    +0.015 C 
ATOM      5  C   UNL     1       0.389  -2.044   6.165  0.00  0.00    -0.010 C 
ATOM      6  C   UNL     1      -0.861  -1.193   6.402  0.00  0.00    +0.013 C 
ATOM      7  C   UNL     1       1.665  -1.201   6.198  0.00  0.00    +0.013 C 
ATOM      8  C   UNL     1      -0.759  -4.066   6.732  0.00  0.00    +0.066 C 
ATOM      9  N   UNL     1      -1.514  -4.771   7.488  0.00  0.00    -0.083 NA
ATOM     10  C   UNL     1      -0.918  -3.826   5.226  0.00  0.00    +0.071 C 
ATOM     11  C   UNL     1       0.619  -2.932   8.631  0.00  0.00    +0.018 C 
ENDROOT
BRANCH   1  13
ATOM     12  N   UNL     1       0.052  -2.797   2.393  0.00  0.00    -0.285 N 
ATOM     13  C   UNL     1       0.150  -2.134   3.562  0.00  0.00    +0.224 C 
ATOM     14  O   UNL     1       0.134  -0.922   3.575  0.00  0.00    -0.275 OA
ATOM     15  H   UNL     1      -0.012  -3.765   2.388  0.00  0.00    +0.155 HD
BRANCH  12  21
ATOM     16  C   UNL     1      -1.512  -2.365  -2.248  0.00  0.00    +0.044 C 
ATOM     17  C   UNL     1      -0.707  -1.857  -1.080  0.00  0.00    -0.048 A 
ATOM     18  C   UNL     1       0.025  -0.690  -1.201  0.00  0.00    +0.006 A 
ATOM     19  C   UNL     1       0.765  -0.220  -0.131  0.00  0.00    -0.048 A 
ATOM     20  C   UNL     1       0.776  -0.917   1.061  0.00  0.00    +0.026 A 
ATOM     21  C   UNL     1       0.043  -2.089   1.186  0.00  0.00    +0.034 A 
ATOM     22  C   UNL     1      -0.704  -2.555   0.112  0.00  0.00    +0.026 A 
ATOM     23  C   UNL     1       1.561   1.052  -0.268  0.00  0.00    +0.044 C 
ENDBRANCH  12  21
ENDBRANCH   1  13
BRANCH   9  24
ATOM     24  O   UNL     1      -1.232  -4.874   8.871  0.00  0.00    -0.312 OA
BRANCH  24  25
ATOM     25  C   UNL     1      -2.102  -5.645   9.552  0.00  0.00    +0.366 C 
ATOM     26  O   UNL     1      -3.026  -6.177   8.969  0.00  0.00    -0.243 OA
BRANCH  25  27
ATOM     27  C   UNL     1      -1.933  -5.844  11.005  0.00  0.00    +0.061 A 
ATOM     28  C   UNL     1      -0.875  -5.229  11.678  0.00  0.00    +0.016 A 
ATOM     29  C   UNL     1      -0.723  -5.418  13.036  0.00  0.00    +0.016 A 
ATOM     30  C   UNL     1      -1.616  -6.216  13.731  0.00  0.00    +0.018 A 
ATOM     31  C   UNL     1      -2.667  -6.828  13.069  0.00  0.00    +0.016 A 
ATOM     32  C   UNL     1      -2.833  -6.643  11.713  0.00  0.00    +0.016 A 
ATOM     33 BR   UNL     1      -1.399  -6.470  15.592  0.00  0.00    -0.050 Br
ENDBRANCH  25  27
ENDBRANCH  24  25
ENDBRANCH   9  24
TORSDOF 5
