REMARK  Name = ZINC08620841
REMARK  6 active torsions:
REMARK  status: ('A' for Active; 'I' for Inactive)
REMARK    1  A    between atoms: C_7  and  C_20
REMARK    2  A    between atoms: C_12  and  C_13
REMARK    3  A    between atoms: C_20  and  O_22
REMARK    4  A    between atoms: O_22  and  C_23
REMARK    5  A    between atoms: C_23  and  C_24
REMARK    6  A    between atoms: N_26  and  C_27
REMARK                            x       y       z     vdW  Elec       q    Type
REMARK                         _______ _______ _______ _____ _____    ______ ____
ROOT
ATOM      1  C   UNL     1       7.915   3.566  -2.637  0.00  0.00    +0.001 A 
ATOM      2  C   UNL     1       8.193   2.229  -2.913  0.00  0.00    +0.002 A 
ATOM      3  C   UNL     1       7.337   1.241  -2.535  0.00  0.00    +0.028 A 
ATOM      4  C   UNL     1       6.154   1.567  -1.844  0.00  0.00    +0.072 A 
ATOM      5  C   UNL     1       5.878   2.929  -1.567  0.00  0.00    +0.015 A 
ATOM      6  C   UNL     1       6.776   3.920  -1.975  0.00  0.00    +0.011 A 
ATOM      7  C   UNL     1       4.643   3.259  -0.855  0.00  0.00    +0.073 A 
ATOM      8  C   UNL     1       3.812   2.210  -0.491  0.00  0.00    -0.007 A 
ATOM      9  C   UNL     1       4.170   0.889  -0.809  0.00  0.00    +0.072 A 
ATOM     10  N   UNL     1       5.301   0.621  -1.458  0.00  0.00    -0.247 NA
ATOM     11  C   UNL     1       3.140  -0.047  -0.326  0.00  0.00    -0.018 C 
ATOM     12  C   UNL     1       3.166  -1.390  -0.461  0.00  0.00    +0.052 C 
ATOM     13  C   UNL     1       2.052   0.751   0.348  0.00  0.00    +0.042 C 
ATOM     14  C   UNL     1       2.491   2.218   0.239  0.00  0.00    +0.043 C 
ENDROOT
BRANCH  12  15
ATOM     15  C   UNL     1       2.071  -2.200   0.071  0.00  0.00    +0.128 A 
ATOM     16  C   UNL     1       1.969  -3.561  -0.002  0.00  0.00    +0.049 A 
ATOM     17  C   UNL     1       0.767  -3.912   0.637  0.00  0.00    +0.042 A 
ATOM     18  C   UNL     1       0.192  -2.765   1.058  0.00  0.00    +0.195 A 
ATOM     19  O   UNL     1       0.981  -1.735   0.715  0.00  0.00    -0.464 OA
ENDBRANCH  12  15
BRANCH   7  20
ATOM     20  C   UNL     1       4.294   4.659  -0.535  0.00  0.00    +0.341 C 
ATOM     21  O   UNL     1       3.643   5.318  -1.321  0.00  0.00    -0.245 OA
BRANCH  20  22
ATOM     22  O   UNL     1       4.697   5.205   0.629  0.00  0.00    -0.452 OA
BRANCH  22  23
ATOM     23  C   UNL     1       4.318   6.584   0.877  0.00  0.00    +0.328 C 
BRANCH  23  24
ATOM     24  C   UNL     1       4.854   7.019   2.217  0.00  0.00    +0.255 C 
ATOM     25  O   UNL     1       5.492   6.243   2.896  0.00  0.00    -0.272 OA
ATOM     26  N   UNL     1       4.624   8.271   2.661  0.00  0.00    -0.280 N 
ATOM     27  H   UNL     1       4.177   8.914   2.088  0.00  0.00    +0.155 HD
BRANCH  26  28
ATOM     28  C   UNL     1       5.029   8.643   3.948  0.00  0.00    +0.071 A 
ATOM     29  C   UNL     1       4.174   8.461   5.028  0.00  0.00    +0.064 A 
ATOM     30  C   UNL     1       4.580   8.825   6.298  0.00  0.00    +0.022 A 
ATOM     31  C   UNL     1       5.831   9.380   6.493  0.00  0.00    +0.003 A 
ATOM     32  C   UNL     1       6.683   9.568   5.420  0.00  0.00    +0.022 A 
ATOM     33  C   UNL     1       6.286   9.201   4.148  0.00  0.00    +0.064 A 
ATOM     34 CL   UNL     1       7.356   9.438   2.802  0.00  0.00    -0.082 Cl
ATOM     35 CL   UNL     1       2.600   7.770   4.783  0.00  0.00    -0.082 Cl
ENDBRANCH  26  28
ENDBRANCH  23  24
ENDBRANCH  22  23
ENDBRANCH  20  22
ENDBRANCH   7  20
TORSDOF 6
