REMARK  Name = ZINC12504773
REMARK  3 active torsions:
REMARK  status: ('A' for Active; 'I' for Inactive)
REMARK    1  A    between atoms: C_8  and  C_25
REMARK    2  A    between atoms: C_15  and  N_17
REMARK    3  A    between atoms: C_20  and  C_23
REMARK                            x       y       z     vdW  Elec       q    Type
REMARK                         _______ _______ _______ _____ _____    ______ ____
ROOT
ATOM      1  C   UNL     1       0.662   2.335   3.047  0.00  0.00    +0.003 C 
ATOM      2  C   UNL     1       1.661   1.689   4.011  0.00  0.00    +0.019 C 
ATOM      3  C   UNL     1       1.779   0.196   3.692  0.00  0.00    +0.106 C 
ATOM      4  N   UNL     1       2.123   0.041   2.272  0.00  0.00    -0.314 N 
ATOM      5  C   UNL     1       1.279   0.698   1.265  0.00  0.00    +0.106 C 
ATOM      6  C   UNL     1       1.167   2.186   1.611  0.00  0.00    +0.019 C 
ATOM      7  C   UNL     1       3.220  -0.709   1.891  0.00  0.00    +0.142 A 
ATOM      8  C   UNL     1       3.054  -2.069   1.588  0.00  0.00    +0.100 A 
ATOM      9  C   UNL     1       4.240  -2.825   1.189  0.00  0.00    +0.018 A 
ATOM     10  C   UNL     1       4.213  -4.177   0.865  0.00  0.00    +0.027 A 
ATOM     11  C   UNL     1       5.382  -4.817   0.490  0.00  0.00    +0.221 A 
ATOM     12  N   UNL     1       6.534  -4.139   0.455  0.00  0.00    -0.197 NA
ATOM     13  C   UNL     1       6.627  -2.857   0.756  0.00  0.00    +0.131 A 
ATOM     14  C   UNL     1       5.481  -2.136   1.136  0.00  0.00    +0.063 A 
ATOM     15  C   UNL     1       5.513  -0.768   1.465  0.00  0.00    +0.129 A 
ATOM     16  N   UNL     1       4.410  -0.128   1.814  0.00  0.00    -0.216 NA
ATOM     17  N   UNL     1       7.853  -2.222   0.698  0.00  0.00    -0.342 N 
ATOM     18  O   UNL     1       5.148  -6.123   0.186  0.00  0.00    -0.471 OA
ATOM     19  C   UNL     1       3.901  -6.532   0.771  0.00  0.00    +0.194 C 
ATOM     20  C   UNL     1       3.103  -5.208   0.827  0.00  0.00    +0.087 C 
ATOM     21  H   UNL     1       8.486  -2.453   0.001  0.00  0.00    +0.144 HD
ATOM     22  H   UNL     1       8.081  -1.546   1.355  0.00  0.00    +0.144 HD
ENDROOT
BRANCH  15  23
ATOM     23  N   UNL     1       6.709  -0.085   1.418  0.00  0.00    -0.343 N 
ATOM     24  H   UNL     1       7.344  -0.267   0.707  0.00  0.00    +0.144 HD
ATOM     25  H   UNL     1       6.917   0.578   2.095  0.00  0.00    +0.144 HD
ENDBRANCH  15  23
BRANCH  19  26
ATOM     26  C   UNL     1       3.195  -7.559  -0.117  0.00  0.00    +0.153 C 
ATOM     27 CL   UNL     1       4.160  -9.081  -0.159  0.00  0.00    -0.122 Cl
ENDBRANCH  19  26
BRANCH   8  28
ATOM     28  C   UNL     1       1.768  -2.695   1.666  0.00  0.00    +0.103 C 
ATOM     29  N   UNL     1       0.748  -3.192   1.728  0.00  0.00    -0.191 NA
ENDBRANCH   8  28
TORSDOF 3
