REMARK  Name = ZINC20883215
REMARK  11 active torsions:
REMARK  status: ('A' for Active; 'I' for Inactive)
REMARK    1  A    between atoms: C_1  and  C_2
REMARK    2  A    between atoms: C_2  and  O_3
REMARK    3  A    between atoms: O_3  and  C_4
REMARK    4  A    between atoms: C_7  and  C_10
REMARK    5  A    between atoms: C_15  and  C_25
REMARK    6  A    between atoms: C_28  and  O_34
REMARK    7  A    between atoms: C_29  and  O_31
REMARK    8  A    between atoms: O_31  and  C_32
REMARK    9  A    between atoms: C_32  and  C_33
REMARK   10  A    between atoms: O_34  and  C_35
REMARK   11  A    between atoms: C_35  and  C_37
REMARK                            x       y       z     vdW  Elec       q    Type
REMARK                         _______ _______ _______ _____ _____    ______ ____
ROOT
ATOM      1  C   UNL     1      -2.692  -0.001  -4.066  0.00  0.00    +0.032 C 
ATOM      2  C   UNL     1      -3.092  -1.142  -3.132  0.00  0.00    +0.059 C 
ATOM      3  C   UNL     1      -2.761  -0.778  -1.695  0.00  0.00    +0.017 C 
ATOM      4  C   UNL     1      -2.815   0.501  -1.284  0.00  0.00    +0.036 C 
ATOM      5  C   UNL     1      -2.525   0.997   0.112  0.00  0.00    +0.136 C 
ATOM      6  N   UNL     1      -2.419  -0.045   1.111  0.00  0.00    -0.331 N 
ATOM      7  C   UNL     1      -1.396  -0.990   1.056  0.00  0.00    +0.049 A 
ATOM      8  C   UNL     1      -0.424  -1.063   2.040  0.00  0.00    +0.025 A 
ATOM      9  C   UNL     1       0.599  -1.988   1.918  0.00  0.00    +0.002 A 
ATOM     10  C   UNL     1       0.655  -2.830   0.822  0.00  0.00    +0.002 A 
ATOM     11  C   UNL     1      -0.326  -2.771  -0.154  0.00  0.00    +0.025 A 
ATOM     12  C   UNL     1      -1.362  -1.863  -0.021  0.00  0.00    +0.052 A 
ATOM     13  N   UNL     1      -2.438  -1.829  -0.900  0.00  0.00    -0.316 N 
ATOM     14  C   UNL     1      -3.167   1.526  -2.195  0.00  0.00    +0.163 C 
ATOM     15  O   UNL     1      -3.226   2.672  -1.793  0.00  0.00    -0.292 OA
ATOM     16  C   UNL     1      -3.470   1.248  -3.636  0.00  0.00    +0.088 C 
ATOM     17  H   UNL     1      -3.153  -0.099   1.929  0.00  0.00    +0.147 HD
ATOM     18  H   UNL     1      -3.048  -2.744  -0.923  0.00  0.00    +0.152 HD
ENDROOT
BRANCH   1  22
ATOM     19  C   UNL     1      -3.686  -1.012  -8.097  0.00  0.00    +0.121 A 
ATOM     20  C   UNL     1      -2.368  -0.750  -7.751  0.00  0.00    +0.046 A 
ATOM     21  C   UNL     1      -2.050  -0.424  -6.447  0.00  0.00    +0.007 A 
ATOM     22  C   UNL     1      -3.042  -0.358  -5.487  0.00  0.00    -0.043 A 
ATOM     23  C   UNL     1      -4.356  -0.624  -5.828  0.00  0.00    +0.007 A 
ATOM     24  C   UNL     1      -4.681  -0.946  -7.132  0.00  0.00    +0.046 A 
BRANCH  19  25
ATOM     25  O   UNL     1      -4.002  -1.334  -9.379  0.00  0.00    -0.492 OA
BRANCH  25  27
ATOM     26  C   UNL     1      -5.539  -1.933 -11.145  0.00  0.00    +0.048 C 
ATOM     27  C   UNL     1      -5.379  -1.591  -9.663  0.00  0.00    +0.225 C 
ENDBRANCH  25  27
ENDBRANCH  19  25
ENDBRANCH   1  22
BRANCH   5  28
ATOM     28  C   UNL     1      -1.229   1.766   0.085  0.00  0.00    -0.019 A 
ATOM     29  C   UNL     1      -0.046   1.113  -0.207  0.00  0.00    +0.009 A 
ATOM     30  C   UNL     1       1.145   1.815  -0.239  0.00  0.00    +0.050 A 
ATOM     31  C   UNL     1       1.155   3.174   0.029  0.00  0.00    +0.173 A 
ATOM     32  C   UNL     1      -0.035   3.830   0.330  0.00  0.00    +0.163 A 
ATOM     33  C   UNL     1      -1.225   3.120   0.359  0.00  0.00    +0.055 A 
BRANCH  32  34
ATOM     34  O   UNL     1      -0.031   5.164   0.593  0.00  0.00    -0.489 OA
BRANCH  34  35
ATOM     35  C   UNL     1      -1.289   5.770   0.893  0.00  0.00    +0.226 C 
ATOM     36  C   UNL     1      -1.086   7.263   1.160  0.00  0.00    +0.048 C 
ENDBRANCH  34  35
ENDBRANCH  32  34
BRANCH  31  37
ATOM     37  O   UNL     1       2.325   3.866  -0.001  0.00  0.00    -0.422 OA
BRANCH  37  38
ATOM     38  C   UNL     1       2.927   4.099   1.176  0.00  0.00    +0.309 C 
ATOM     39  O   UNL     1       2.480   3.614   2.189  0.00  0.00    -0.251 OA
ATOM     40  C   UNL     1       4.159   4.964   1.235  0.00  0.00    +0.136 C 
ENDBRANCH  37  38
ENDBRANCH  31  37
ENDBRANCH   5  28
TORSDOF 8
