REMARK  Name = ZINC39224336
REMARK  8 active torsions:
REMARK  status: ('A' for Active; 'I' for Inactive)
REMARK    1  A    between atoms: C_1  and  C_2
REMARK    2  A    between atoms: C_5  and  C_8
REMARK    3  A    between atoms: C_12  and  S_16
REMARK    4  A    between atoms: S_16  and  C_17
REMARK    5  A    between atoms: C_17  and  C_18
REMARK    6  A    between atoms: N_20  and  C_21
REMARK    7  A    between atoms: C_23  and  N_28
REMARK    8  A    between atoms: C_26  and  C_27
REMARK                            x       y       z     vdW  Elec       q    Type
REMARK                         _______ _______ _______ _____ _____    ______ ____
ROOT
ATOM      1  C   UNL     1       0.034  -4.239   0.037  0.00  0.00    -0.015 C 
ATOM      2  C   UNL     1       1.108  -4.941   0.517  0.00  0.00    +0.075 C 
ATOM      3  C   UNL     1       1.037  -6.410   0.458  0.00  0.00    +0.112 C 
ATOM      4  N   UNL     1       2.029  -7.145   0.899  0.00  0.00    -0.217 NA
ATOM      5  C   UNL     1       3.127  -6.591   1.411  0.00  0.00    +0.182 C 
ATOM      6  N   UNL     1       3.294  -5.284   1.511  0.00  0.00    -0.151 NA
ATOM      7  C   UNL     1       2.374  -4.409   1.105  0.00  0.00    +0.272 C 
ATOM      8  O   UNL     1       2.560  -3.207   1.212  0.00  0.00    -0.268 OA
ATOM      9  S   UNL     1      -0.542  -6.764  -0.271  0.00  0.00    -0.100 S 
ATOM     10  C   UNL     1      -1.129  -5.038  -0.504  0.00  0.00    +0.112 C 
ENDROOT
BRANCH   1  15
ATOM     11  C   UNL     1      -0.057   1.503   0.099  0.00  0.00    +0.044 C 
ATOM     12  C   UNL     1      -0.033  -0.003   0.082  0.00  0.00    -0.050 A 
ATOM     13  C   UNL     1      -0.035  -0.678  -1.127  0.00  0.00    +0.004 A 
ATOM     14  C   UNL     1      -0.013  -2.056  -1.151  0.00  0.00    +0.008 A 
ATOM     15  C   UNL     1       0.011  -2.774   0.053  0.00  0.00    -0.020 A 
ATOM     16  C   UNL     1       0.013  -2.082   1.272  0.00  0.00    +0.008 A 
ATOM     17  C   UNL     1      -0.004  -0.704   1.277  0.00  0.00    +0.004 A 
ENDBRANCH   1  15
BRANCH   5  18
ATOM     18  S   UNL     1       4.414  -7.649   1.982  0.00  0.00    -0.079 S 
BRANCH  18  19
ATOM     19  C   UNL     1       5.687  -6.505   2.584  0.00  0.00    +0.173 C 
BRANCH  19  20
ATOM     20  C   UNL     1       6.862  -7.292   3.108  0.00  0.00    +0.227 C 
ATOM     21  O   UNL     1       6.842  -8.504   3.078  0.00  0.00    -0.275 OA
ATOM     22  N   UNL     1       7.934  -6.647   3.610  0.00  0.00    -0.285 N 
ATOM     23  H   UNL     1       7.985  -5.680   3.561  0.00  0.00    +0.155 HD
BRANCH  22  24
ATOM     24  C   UNL     1       8.973  -7.374   4.201  0.00  0.00    +0.038 A 
ATOM     25  C   UNL     1       8.725  -8.630   4.740  0.00  0.00    +0.056 A 
ATOM     26  C   UNL     1       9.753  -9.345   5.323  0.00  0.00    +0.128 A 
ATOM     27  C   UNL     1      11.028  -8.811   5.371  0.00  0.00    +0.033 A 
ATOM     28  C   UNL     1      11.278  -7.561   4.835  0.00  0.00    +0.007 A 
ATOM     29  C   UNL     1      10.255  -6.844   4.245  0.00  0.00    -0.029 A 
ATOM     30  C   UNL     1      10.530  -5.484   3.655  0.00  0.00    +0.045 C 
BRANCH  26  31
ATOM     31  N   UNL     1       9.489 -10.683   5.899  0.00  0.00    +0.056 N 
ATOM     32  O   UNL     1       8.375 -11.149   5.858  0.00  0.00    -0.126 OA
ATOM     33  O   UNL     1      10.389 -11.309   6.409  0.00  0.00    -0.126 OA
ENDBRANCH  26  31
ENDBRANCH  22  24
ENDBRANCH  19  20
ENDBRANCH  18  19
ENDBRANCH   5  18
TORSDOF 6
