REMARK  Name = ZINC35937959
REMARK  3 active torsions:
REMARK  status: ('A' for Active; 'I' for Inactive)
REMARK    1  A    between atoms: C_3  and  N_25
REMARK    2  A    between atoms: C_6  and  C_7
REMARK    3  A    between atoms: C_7  and  N_8
REMARK                            x       y       z     vdW  Elec       q    Type
REMARK                         _______ _______ _______ _____ _____    ______ ____
ROOT
ATOM      1  N   UNL     1      -1.726  -1.018  -1.372  0.00  0.00    +0.383 N 
ATOM      2  C   UNL     1      -2.033   0.263  -2.020  0.00  0.00    -0.075 C 
ATOM      3  C   UNL     1      -2.406   0.022  -3.484  0.00  0.00    +0.027 C 
ATOM      4  C   UNL     1      -3.635  -0.890  -3.549  0.00  0.00    +0.095 C 
ATOM      5  C   UNL     1      -3.330  -2.194  -2.804  0.00  0.00    +0.027 C 
ATOM      6  C   UNL     1      -2.921  -1.871  -1.366  0.00  0.00    -0.075 C 
ATOM      7  N   UNL     1      -3.938  -1.196  -4.951  0.00  0.00    -0.323 N 
ATOM      8  C   UNL     1      -4.575  -0.232  -5.726  0.00  0.00    +0.041 A 
ATOM      9  C   UNL     1      -4.390  -0.160  -7.096  0.00  0.00    +0.025 A 
ATOM     10  C   UNL     1      -5.053   0.808  -7.826  0.00  0.00    +0.016 A 
ATOM     11  C   UNL     1      -5.901   1.706  -7.198  0.00  0.00    +0.014 A 
ATOM     12  C   UNL     1      -6.093   1.651  -5.832  0.00  0.00    +0.029 A 
ATOM     13  C   UNL     1      -5.427   0.683  -5.084  0.00  0.00    +0.059 A 
ATOM     14  C   UNL     1      -5.580   0.598  -3.620  0.00  0.00    +0.247 C 
ATOM     15  O   UNL     1      -6.426   1.261  -3.053  0.00  0.00    -0.270 OA
ATOM     16  N   UNL     1      -4.773  -0.222  -2.917  0.00  0.00    -0.291 N 
ATOM     17  I   UNL     1      -6.899   3.159  -8.329  0.00  0.00    -0.044 I 
ATOM     18  H   UNL     1      -3.699  -2.055  -5.332  0.00  0.00    +0.148 HD
ATOM     19  H   UNL     1      -4.950  -0.370  -1.975  0.00  0.00    +0.151 HD
ATOM     20  H   UNL     1      -0.987  -1.481  -1.879  0.00  0.00    -0.081 HD
ENDROOT
BRANCH   1  21
ATOM     21  C   UNL     1      -1.293  -0.775   0.010  0.00  0.00    -0.043 C 
BRANCH  21  27
ATOM     22  C   UNL     1      -0.017   1.378   0.010  0.00  0.00    +0.004 A 
ATOM     23  C   UNL     1       1.171   2.086   0.002  0.00  0.00    +0.033 A 
ATOM     24  C   UNL     1       2.377   1.411  -0.013  0.00  0.00    +0.126 A 
ATOM     25  C   UNL     1       2.396   0.029  -0.020  0.00  0.00    +0.033 A 
ATOM     26  C   UNL     1       1.208  -0.679  -0.012  0.00  0.00    +0.004 A 
ATOM     27  C   UNL     1       0.002  -0.004   0.002  0.00  0.00    -0.064 A 
BRANCH  24  28
ATOM     28  N   UNL     1       3.649   2.168  -0.022  0.00  0.00    +0.056 N 
ATOM     29  O   UNL     1       3.633   3.377  -0.016  0.00  0.00    -0.126 OA
ATOM     30  O   UNL     1       4.704   1.578  -0.035  0.00  0.00    -0.126 OA
ENDBRANCH  24  28
ENDBRANCH  21  27
ENDBRANCH   1  21
TORSDOF 3
