REMARK  Name = ZINC09079620
REMARK  10 active torsions:
REMARK  status: ('A' for Active; 'I' for Inactive)
REMARK    1  A    between atoms: C_1  and  N_2
REMARK    2  A    between atoms: N_2  and  C_3
REMARK    3  A    between atoms: N_2  and  C_4
REMARK    4  A    between atoms: C_7  and  C_10
REMARK    5  A    between atoms: C_10  and  C_12
REMARK    6  A    between atoms: C_10  and  S_26
REMARK    7  A    between atoms: C_12  and  N_13
REMARK    8  A    between atoms: C_14  and  C_16
REMARK    9  A    between atoms: C_17  and  C_18
REMARK   10  A    between atoms: S_26  and  C_29
REMARK                            x       y       z     vdW  Elec       q    Type
REMARK                         _______ _______ _______ _____ _____    ______ ____
ROOT
ATOM      1  C   UNL     1      -0.013   1.086   0.008  0.00  0.00    +0.183 C 
ENDROOT
BRANCH   1   5
ATOM      2  C   UNL     1       3.997   2.565  -0.022  0.00  0.00    +0.029 A 
ATOM      3  C   UNL     1       3.760   1.196  -0.027  0.00  0.00    +0.023 A 
ATOM      4  C   UNL     1       2.463   0.722  -0.018  0.00  0.00    +0.007 A 
ATOM      5  C   UNL     1       1.401   1.607  -0.003  0.00  0.00    -0.021 A 
ATOM      6  C   UNL     1       1.633   2.971  -0.003  0.00  0.00    +0.007 A 
ATOM      7  C   UNL     1       2.928   3.452  -0.007  0.00  0.00    +0.023 A 
BRANCH   2   9
ATOM      8  C   UNL     1       6.434   2.112  -0.049  0.00  0.00    +0.129 C 
ATOM      9  N   UNL     1       5.307   3.049  -0.033  0.00  0.00    -0.336 N 
ATOM     10  C   UNL     1       5.556   4.492  -0.027  0.00  0.00    +0.129 C 
ENDBRANCH   2   9
ENDBRANCH   1   5
BRANCH   1  11
ATOM     11  S   UNL     1      -0.862   1.671   1.500  0.00  0.00    +0.011 S 
ATOM     12  O   UNL     1      -2.242   1.339   1.440  0.00  0.00    -0.168 OA
ATOM     13  O   UNL     1      -0.092   1.362   2.654  0.00  0.00    -0.168 OA
BRANCH  11  14
ATOM     14  C   UNL     1      -0.816   3.429   1.388  0.00  0.00    +0.126 A 
ATOM     15  C   UNL     1      -1.711   4.271   0.815  0.00  0.00    +0.035 A 
ATOM     16  C   UNL     1      -1.467   5.631   0.847  0.00  0.00    +0.009 A 
ATOM     17  C   UNL     1      -0.340   6.082   1.450  0.00  0.00    +0.047 A 
ATOM     18  S   UNL     1       0.416   4.563   2.005  0.00  0.00    -0.078 S 
ENDBRANCH  11  14
ENDBRANCH   1  11
BRANCH   1  19
ATOM     19  C   UNL     1      -0.753   1.593  -1.232  0.00  0.00    +0.135 C 
BRANCH  19  20
ATOM     20  N   UNL     1      -2.127   1.086  -1.221  0.00  0.00    -0.310 N 
ATOM     21  C   UNL     1      -2.971   1.405  -2.222  0.00  0.00    +0.237 C 
ATOM     22  O   UNL     1      -2.591   2.115  -3.135  0.00  0.00    -0.271 OA
ATOM     23  H   UNL     1      -2.430   0.520  -0.494  0.00  0.00    +0.149 HD
BRANCH  21  24
ATOM     24  C   UNL     1      -4.344   0.899  -2.212  0.00  0.00    +0.068 C 
ATOM     25  C   UNL     1      -5.189   1.218  -3.213  0.00  0.00    +0.013 C 
BRANCH  25  26
ATOM     26  C   UNL     1      -6.569   0.709  -3.203  0.00  0.00    -0.023 A 
ATOM     27  C   UNL     1      -7.448   1.039  -4.240  0.00  0.00    +0.009 A 
ATOM     28  C   UNL     1      -8.739   0.559  -4.225  0.00  0.00    +0.022 A 
ATOM     29  C   UNL     1      -9.169  -0.249  -3.184  0.00  0.00    +0.059 A 
ATOM     30  C   UNL     1      -8.305  -0.580  -2.153  0.00  0.00    +0.060 A 
ATOM     31  C   UNL     1      -7.007  -0.112  -2.159  0.00  0.00    +0.029 A 
ATOM     32 CL   UNL     1      -8.854  -1.593  -0.854  0.00  0.00    -0.082 Cl
ATOM     33 CL   UNL     1     -10.799  -0.848  -3.172  0.00  0.00    -0.082 Cl
ENDBRANCH  25  26
ENDBRANCH  21  24
ENDBRANCH  19  20
ENDBRANCH   1  19
TORSDOF 8
