REMARK  Name = ZINC11976533
REMARK  9 active torsions:
REMARK  status: ('A' for Active; 'I' for Inactive)
REMARK    1  A    between atoms: C_1  and  C_2
REMARK    2  A    between atoms: C_2  and  C_3
REMARK    3  A    between atoms: C_3  and  C_22
REMARK    4  A    between atoms: N_6  and  C_10
REMARK    5  A    between atoms: C_10  and  C_11
REMARK    6  A    between atoms: C_27  and  C_28
REMARK    7  A    between atoms: C_27  and  N_70
REMARK    8  A    between atoms: C_30  and  C_35
REMARK    9  A    between atoms: C_33  and  C_34
REMARK                            x       y       z     vdW  Elec       q    Type
REMARK                         _______ _______ _______ _____ _____    ______ ____
ROOT
ATOM      1  C   UNL     1       7.828   2.108  -1.767  0.00  0.00    +0.115 C 
ATOM      2  C   UNL     1       6.783   2.236  -0.677  0.00  0.00    +0.247 C 
ATOM      3  O   UNL     1       6.684   1.562   0.325  0.00  0.00    -0.273 OA
ATOM      4  N   UNL     1       5.985   3.255  -1.055  0.00  0.00    -0.221 N 
ATOM      5  C   UNL     1       6.382   3.787  -2.217  0.00  0.00    +0.309 C 
ATOM      6  O   UNL     1       5.822   4.721  -2.758  0.00  0.00    -0.252 OA
ATOM      7  N   UNL     1       7.469   3.174  -2.718  0.00  0.00    -0.285 N 
ATOM      8  H   UNL     1       7.927   3.392  -3.545  0.00  0.00    +0.151 HD
ENDROOT
BRANCH   1   9
ATOM      9  C   UNL     1       9.229   2.344  -1.199  0.00  0.00    +0.018 C 
ATOM     10  C   UNL     1       9.619   1.171  -0.295  0.00  0.00    -0.013 C 
ATOM     11  C   UNL     1      10.994   1.441   0.320  0.00  0.00    -0.078 C 
ATOM     12  C   UNL     1      10.624   3.835   0.238  0.00  0.00    -0.078 C 
ATOM     13  C   UNL     1       9.237   3.636  -0.378  0.00  0.00    -0.013 C 
ATOM     14  N   UNL     1      10.928   2.685   1.116  0.00  0.00    +0.382 N 
ATOM     15  H   UNL     1      10.182   2.594   1.816  0.00  0.00    -0.081 HD
BRANCH  14  16
ATOM     16  C   UNL     1      12.213   2.907   1.812  0.00  0.00    -0.043 C 
BRANCH  16  17
ATOM     17  C   UNL     1      12.325   1.921   2.945  0.00  0.00    -0.061 A 
ATOM     18  C   UNL     1      13.194   0.850   2.847  0.00  0.00    +0.005 A 
ATOM     19  C   UNL     1      13.298  -0.054   3.886  0.00  0.00    -0.050 A 
ATOM     20  C   UNL     1      12.532   0.111   5.026  0.00  0.00    +0.003 A 
ATOM     21  C   UNL     1      11.663   1.182   5.124  0.00  0.00    +0.004 A 
ATOM     22  C   UNL     1      11.563   2.090   4.086  0.00  0.00    -0.049 A 
ATOM     23  C   UNL     1      10.621   3.260   4.197  0.00  0.00    +0.044 C 
ATOM     24  C   UNL     1      14.245  -1.221   3.779  0.00  0.00    +0.044 C 
ENDBRANCH  16  17
ENDBRANCH  14  16
ENDBRANCH   1   9
BRANCH   1  26
ATOM     25  C   UNL     1       6.359   0.555  -3.061  0.00  0.00    +0.006 C 
ATOM     26  C   UNL     1       7.746   0.736  -2.440  0.00  0.00    +0.032 C 
ENDBRANCH   1  26
BRANCH   4  27
ATOM     27  C   UNL     1       4.830   3.724  -0.286  0.00  0.00    +0.166 C 
BRANCH  27  28
ATOM     28  C   UNL     1       3.578   2.966  -0.731  0.00  0.00    +0.229 C 
ATOM     29  C   UNL     1       2.345   3.539  -0.019  0.00  0.00    +0.275 C 
ATOM     30  O   UNL     1       1.197   2.800  -0.447  0.00  0.00    -0.485 OA
ATOM     31  C   UNL     1       1.313   1.444  -0.461  0.00  0.00    +0.162 A 
ATOM     32  C   UNL     1       0.168   0.662  -0.509  0.00  0.00    +0.049 A 
ATOM     33  C   UNL     1       0.270  -0.716  -0.529  0.00  0.00    +0.004 A 
ATOM     34  C   UNL     1       1.513  -1.319  -0.502  0.00  0.00    +0.004 A 
ATOM     35  C   UNL     1       2.658  -0.547  -0.454  0.00  0.00    +0.049 A 
ATOM     36  C   UNL     1       2.563   0.837  -0.432  0.00  0.00    +0.163 A 
ATOM     37  O   UNL     1       3.699   1.584  -0.378  0.00  0.00    -0.480 OA
ENDBRANCH  27  28
ENDBRANCH   4  27
TORSDOF 6
