REMARK  Name = ZINC63375163
REMARK  6 active torsions:
REMARK  status: ('A' for Active; 'I' for Inactive)
REMARK    1  A    between atoms: C_1  and  C_2
REMARK    2  A    between atoms: C_2  and  C_3
REMARK    3  A    between atoms: C_6  and  C_9
REMARK    4  A    between atoms: N_16  and  C_31
REMARK    5  A    between atoms: C_19  and  C_30
REMARK    6  A    between atoms: C_31  and  C_32
REMARK                            x       y       z     vdW  Elec       q    Type
REMARK                         _______ _______ _______ _____ _____    ______ ____
ROOT
ATOM      1  C   UNL     1       2.762  -2.145   4.569  0.00  0.00    +0.065 C 
ATOM      2  C   UNL     1       2.048  -3.479   4.852  0.00  0.00    +0.121 C 
ATOM      3  N   UNL     1       0.767  -3.210   5.534  0.00  0.00    -0.283 N 
ATOM      4  C   UNL     1      -0.359  -3.636   4.949  0.00  0.00    +0.234 C 
ATOM      5  O   UNL     1      -0.258  -4.195   3.877  0.00  0.00    -0.274 OA
ATOM      6  C   UNL     1      -1.729  -3.473   5.517  0.00  0.00    +0.204 C 
ATOM      7  N   UNL     1      -1.713  -2.798   6.804  0.00  0.00    -0.286 N 
ATOM      8  C   UNL     1      -0.601  -2.359   7.391  0.00  0.00    +0.242 C 
ATOM      9  O   UNL     1      -0.708  -1.811   8.468  0.00  0.00    -0.273 OA
ATOM     10  C   UNL     1       0.768  -2.496   6.812  0.00  0.00    +0.135 C 
ATOM     11  C   UNL     1       1.384  -1.111   6.587  0.00  0.00    +0.139 C 
ATOM     12  C   UNL     1       2.696  -1.338   5.841  0.00  0.00    -0.027 C 
ATOM     13  C   UNL     1       3.639  -0.724   6.545  0.00  0.00    -0.000 A 
ATOM     14  C   UNL     1       5.070  -0.504   6.284  0.00  0.00    +0.010 A 
ATOM     15  C   UNL     1       5.761   0.158   7.250  0.00  0.00    +0.001 A 
ATOM     16  C   UNL     1       5.178   0.618   8.434  0.00  0.00    +0.002 A 
ATOM     17  C   UNL     1       3.867   0.468   8.753  0.00  0.00    +0.026 A 
ATOM     18  C   UNL     1       3.036  -0.204   7.810  0.00  0.00    +0.043 A 
ATOM     19  N   UNL     1       1.734  -0.451   7.845  0.00  0.00    -0.375 N 
ATOM     20  C   UNL     1       1.651  -3.258   7.803  0.00  0.00    +0.044 C 
ATOM     21  H   UNL     1       1.120  -0.242   8.566  0.00  0.00    +0.160 HD
ENDROOT
BRANCH   1  25
ATOM     22  C   UNL     1       0.773  -0.066   1.411  0.00  0.00    -0.048 A 
ATOM     23  C   UNL     1       2.107  -0.404   1.284  0.00  0.00    +0.004 A 
ATOM     24  C   UNL     1       2.751  -1.077   2.305  0.00  0.00    +0.004 A 
ATOM     25  C   UNL     1       2.060  -1.411   3.455  0.00  0.00    -0.039 A 
ATOM     26  C   UNL     1       0.726  -1.072   3.584  0.00  0.00    +0.004 A 
ATOM     27  C   UNL     1       0.084  -0.395   2.564  0.00  0.00    +0.004 A 
BRANCH  22  29
ATOM     28  C   UNL     1       0.216   2.176   0.510  0.00  0.00    +0.009 C 
ATOM     29  C   UNL     1       0.071   0.667   0.298  0.00  0.00    +0.032 C 
ENDBRANCH  22  29
ENDBRANCH   1  25
BRANCH   7  30
ATOM     30  C   UNL     1      -2.989  -2.590   7.493  0.00  0.00    +0.147 C 
BRANCH  30  31
ATOM     31  C   UNL     1      -3.641  -1.335   6.973  0.00  0.00    +0.023 A 
ATOM     32  C   UNL     1      -3.358  -0.113   7.559  0.00  0.00    +0.129 A 
ATOM     33  C   UNL     1      -3.958   1.040   7.081  0.00  0.00    +0.039 A 
ATOM     34  C   UNL     1      -4.839   0.970   6.018  0.00  0.00    +0.004 A 
ATOM     35  C   UNL     1      -5.122  -0.250   5.433  0.00  0.00    +0.020 A 
ATOM     36  C   UNL     1      -4.519  -1.402   5.906  0.00  0.00    +0.048 A 
ATOM     37 CL   UNL     1      -4.869  -2.933   5.165  0.00  0.00    -0.083 Cl
ATOM     38  F   UNL     1      -2.497  -0.045   8.598  0.00  0.00    -0.205 F 
ENDBRANCH  30  31
ENDBRANCH   7  30
TORSDOF 4
