REMARK  Name = ZINC40035707
REMARK  8 active torsions:
REMARK  status: ('A' for Active; 'I' for Inactive)
REMARK    1  A    between atoms: C_1  and  C_2
REMARK    2  A    between atoms: C_2  and  C_3
REMARK    3  A    between atoms: C_3  and  C_40
REMARK    4  A    between atoms: N_15  and  C_33
REMARK    5  A    between atoms: N_18  and  N_19
REMARK    6  A    between atoms: C_20  and  C_21
REMARK    7  A    between atoms: C_30  and  C_32
REMARK    8  A    between atoms: C_36  and  C_39
REMARK                            x       y       z     vdW  Elec       q    Type
REMARK                         _______ _______ _______ _____ _____    ______ ____
ROOT
ATOM      1  C   UNL     1      -2.158  -1.140   0.110  0.00  0.00    +0.004 C 
ATOM      2  C   UNL     1      -2.005  -2.633  -0.171  0.00  0.00    +0.047 C 
ATOM      3  C   UNL     1      -1.118  -2.858  -1.365  0.00  0.00    -0.037 A 
ATOM      4  C   UNL     1      -0.265  -3.941  -1.408  0.00  0.00    +0.004 A 
ATOM      5  C   UNL     1       0.544  -4.143  -2.513  0.00  0.00    +0.000 A 
ATOM      6  C   UNL     1       0.504  -3.264  -3.580  0.00  0.00    +0.001 A 
ATOM      7  C   UNL     1      -0.344  -2.175  -3.549  0.00  0.00    +0.010 A 
ATOM      8  C   UNL     1      -1.158  -1.967  -2.439  0.00  0.00    +0.004 A 
ATOM      9  C   UNL     1      -2.071  -0.803  -2.373  0.00  0.00    +0.084 A 
ATOM     10  C   UNL     1      -2.559  -0.405  -1.137  0.00  0.00    +0.050 A 
ATOM     11  C   UNL     1      -3.429   0.692  -1.076  0.00  0.00    +0.264 A 
ATOM     12  O   UNL     1      -3.881   1.070  -0.008  0.00  0.00    -0.267 OA
ATOM     13  N   UNL     1      -3.756   1.321  -2.225  0.00  0.00    -0.248 N 
ATOM     14  C   UNL     1      -3.243   0.892  -3.414  0.00  0.00    +0.223 A 
ATOM     15  N   UNL     1      -2.427  -0.140  -3.478  0.00  0.00    -0.214 NA
ATOM     16  N   UNL     1      -3.585   1.548  -4.568  0.00  0.00    -0.206 N 
ATOM     17  C   UNL     1      -3.230  -0.936   1.183  0.00  0.00    +0.016 C 
ATOM     18  H   UNL     1      -4.125   2.353  -4.527  0.00  0.00    +0.177 HD
ENDROOT
BRANCH  13  19
ATOM     19  C   UNL     1      -4.627   2.418  -2.196  0.00  0.00    +0.053 A 
ATOM     20  C   UNL     1      -5.993   2.226  -2.349  0.00  0.00    +0.026 A 
ATOM     21  C   UNL     1      -6.849   3.310  -2.320  0.00  0.00    +0.005 A 
ATOM     22  C   UNL     1      -6.346   4.585  -2.139  0.00  0.00    -0.050 A 
ATOM     23  C   UNL     1      -4.985   4.780  -1.988  0.00  0.00    +0.005 A 
ATOM     24  C   UNL     1      -4.125   3.700  -2.009  0.00  0.00    +0.026 A 
ATOM     25  C   UNL     1      -7.282   5.766  -2.108  0.00  0.00    +0.044 C 
ENDBRANCH  13  19
BRANCH   1  27
ATOM     26  C   UNL     1      -0.980   0.907   0.927  0.00  0.00    +0.005 C 
ATOM     27  C   UNL     1      -0.826  -0.583   0.617  0.00  0.00    +0.008 C 
ENDBRANCH   1  27
BRANCH  16  28
ATOM     28  N   UNL     1      -3.156   1.055  -5.807  0.00  0.00    -0.188 NA
ATOM     29  C   UNL     1      -3.481   1.679  -6.904  0.00  0.00    +0.137 C 
BRANCH  29  30
ATOM     30  C   UNL     1      -3.047   1.181  -8.158  0.00  0.00    +0.013 C 
ATOM     31  C   UNL     1      -2.297   0.053  -8.220  0.00  0.00    +0.020 C 
ATOM     32  C   UNL     1      -1.856  -0.409  -9.547  0.00  0.00    +0.017 A 
ATOM     33  C   UNL     1      -1.380  -1.703  -9.745  0.00  0.00    +0.011 A 
ATOM     34  C   UNL     1      -0.978  -2.094 -11.007  0.00  0.00    +0.001 A 
ATOM     35  C   UNL     1      -1.046  -1.207 -12.068  0.00  0.00    +0.004 A 
ATOM     36  C   UNL     1      -1.517   0.081 -11.881  0.00  0.00    +0.046 A 
ATOM     37  C   UNL     1      -1.924   0.489 -10.625  0.00  0.00    +0.128 A 
ATOM     38  O   UNL     1      -2.390   1.745 -10.409  0.00  0.00    -0.484 OA
ATOM     39  C   UNL     1      -3.421   1.899  -9.428  0.00  0.00    +0.202 C 
ATOM     40  C   UNL     1      -3.615   3.387  -9.129  0.00  0.00    +0.057 C 
ENDBRANCH  29  30
ENDBRANCH  16  28
TORSDOF 4
