REMARK  Name = ZINC38710894
REMARK  4 active torsions:
REMARK  status: ('A' for Active; 'I' for Inactive)
REMARK    1  A    between atoms: C_3  and  S_7
REMARK    2  A    between atoms: S_7  and  N_10
REMARK    3  A    between atoms: N_10  and  C_11
REMARK    4  A    between atoms: C_20  and  C_22
REMARK                            x       y       z     vdW  Elec       q    Type
REMARK                         _______ _______ _______ _____ _____    ______ ____
ROOT
ATOM      1  C   UNL     1       5.576   3.026   1.855  0.00  0.00    +0.076 A 
ATOM      2  C   UNL     1       6.397   3.479   0.830  0.00  0.00    +0.027 A 
ATOM      3  C   UNL     1       7.588   4.108   1.132  0.00  0.00    +0.007 A 
ATOM      4  C   UNL     1       7.966   4.288   2.450  0.00  0.00    -0.024 A 
ATOM      5  C   UNL     1       7.156   3.841   3.483  0.00  0.00    +0.041 A 
ATOM      6  C   UNL     1       5.950   3.211   3.176  0.00  0.00    +0.050 A 
ATOM      7  N   UNL     1       7.716   4.120   4.734  0.00  0.00    -0.271 N 
ATOM      8  C   UNL     1       9.001   4.806   4.567  0.00  0.00    +0.118 C 
ATOM      9  C   UNL     1       9.196   4.933   3.048  0.00  0.00    +0.056 C 
ATOM     10  C   UNL     1       7.157   3.804   5.918  0.00  0.00    +0.223 C 
ATOM     11  O   UNL     1       6.086   3.235   5.951  0.00  0.00    -0.275 OA
ENDROOT
BRANCH  10  12
ATOM     12  C   UNL     1       7.861   4.159   7.203  0.00  0.00    +0.076 C 
ATOM     13  C   UNL     1       9.209   3.413   7.289  0.00  0.00    +0.013 C 
ATOM     14  C   UNL     1       9.345   3.048   8.789  0.00  0.00    +0.001 C 
ATOM     15  C   UNL     1       7.892   2.685   9.185  0.00  0.00    +0.001 C 
ATOM     16  C   UNL     1       7.024   3.696   8.408  0.00  0.00    +0.013 C 
ENDBRANCH  10  12
BRANCH   1  17
ATOM     17  N   UNL     1       4.370   2.390   1.554  0.00  0.00    -0.098 NA
BRANCH  17  18
ATOM     18  S   UNL     1       3.922   2.168  -0.024  0.00  0.00    +0.093 S 
ATOM     19  O   UNL     1       4.859   1.261  -0.589  0.00  0.00    -0.148 OA
ATOM     20  O   UNL     1       3.692   3.462  -0.566  0.00  0.00    -0.148 OA
BRANCH  18  23
ATOM     21  C   UNL     1      -0.017   1.378   0.010  0.00  0.00    +0.022 A 
ATOM     22  C   UNL     1       1.185   2.070   0.002  0.00  0.00    +0.032 A 
ATOM     23  C   UNL     1       2.365   1.343  -0.013  0.00  0.00    +0.128 A 
ATOM     24  C   UNL     1       2.305  -0.038  -0.020  0.00  0.00    +0.139 A 
ATOM     25  N   UNL     1       1.144  -0.663  -0.013  0.00  0.00    -0.261 NA
ATOM     26  C   UNL     1       0.002  -0.004   0.002  0.00  0.00    +0.111 A 
ENDBRANCH  18  23
ENDBRANCH  17  18
ENDBRANCH   1  17
TORSDOF 4
