REMARK  Name = ZINC23680322
REMARK  9 active torsions:
REMARK  status: ('A' for Active; 'I' for Inactive)
REMARK    1  A    between atoms: C_1  and  C_2
REMARK    2  A    between atoms: C_2  and  C_3
REMARK    3  A    between atoms: C_3  and  C_4
REMARK    4  A    between atoms: C_4  and  O_5
REMARK    5  A    between atoms: O_5  and  C_6
REMARK    6  A    between atoms: C_6  and  C_8
REMARK    7  A    between atoms: C_11  and  N_14
REMARK    8  A    between atoms: C_15  and  C_17
REMARK    9  A    between atoms: C_21  and  C_27
REMARK                            x       y       z     vdW  Elec       q    Type
REMARK                         _______ _______ _______ _____ _____    ______ ____
ROOT
ATOM      1  N   UNL     1      -0.011   0.966   0.007  0.00  0.00    -0.284 N 
ATOM      2  C   UNL     1       1.024   1.576   0.618  0.00  0.00    +0.239 C 
ATOM      3  O   UNL     1       0.891   2.698   1.060  0.00  0.00    -0.273 OA
ATOM      4  H   UNL     1       0.129  -0.022  -0.456  0.00  0.00    +0.155 HD
ENDROOT
BRANCH   2   5
ATOM      5  C   UNL     1       2.346   0.866   0.750  0.00  0.00    +0.173 C 
ATOM      6  C   UNL     1       2.115  -0.456   1.520  0.00  0.00    +0.103 C 
ATOM      7  S   UNL     1       3.565  -0.426   2.668  0.00  0.00    -0.133 S 
ATOM      8  C   UNL     1       3.691   1.409   2.759  0.00  0.00    +0.082 C 
ATOM      9  N   UNL     1       3.304   1.783   1.377  0.00  0.00    -0.275 N 
ATOM     10  C   UNL     1       4.009   2.898   1.044  0.00  0.00    +0.217 C 
ATOM     11  O   UNL     1       3.754   3.622   0.105  0.00  0.00    -0.276 OA
ATOM     12  C   UNL     1       5.153   3.107   2.008  0.00  0.00    +0.099 C 
ATOM     13  C   UNL     1       5.162   1.834   2.896  0.00  0.00    +0.046 C 
ATOM     14  C   UNL     1       2.787   2.023   3.830  0.00  0.00    +0.044 C 
ENDBRANCH   2   5
BRANCH   1  18
ATOM     15  C   UNL     1      -3.739   2.819  -0.122  0.00  0.00    +0.059 A 
ATOM     16  C   UNL     1      -3.651   1.429   0.001  0.00  0.00    +0.017 A 
ATOM     17  C   UNL     1      -2.418   0.820   0.043  0.00  0.00    +0.024 A 
ATOM     18  C   UNL     1      -1.259   1.586  -0.036  0.00  0.00    +0.033 A 
ATOM     19  C   UNL     1      -1.342   2.970  -0.154  0.00  0.00    +0.024 A 
ATOM     20  C   UNL     1      -2.573   3.585  -0.202  0.00  0.00    +0.017 A 
BRANCH  15  21
ATOM     21  C   UNL     1      -5.059   3.475  -0.168  0.00  0.00    +0.339 C 
ATOM     22  O   UNL     1      -6.072   2.808  -0.098  0.00  0.00    -0.245 OA
BRANCH  21  23
ATOM     23  O   UNL     1      -5.142   4.815  -0.287  0.00  0.00    -0.461 OA
BRANCH  23  24
ATOM     24  C   UNL     1      -6.473   5.392  -0.325  0.00  0.00    +0.232 C 
BRANCH  24  25
ATOM     25  C   UNL     1      -6.366   6.912  -0.462  0.00  0.00    +0.041 C 
BRANCH  25  27
ATOM     26  C   UNL     1      -7.662   9.041  -0.639  0.00  0.00    +0.004 C 
ATOM     27  C   UNL     1      -7.769   7.521  -0.502  0.00  0.00    -0.000 C 
ENDBRANCH  25  27
ENDBRANCH  24  25
ENDBRANCH  23  24
ENDBRANCH  21  23
ENDBRANCH  15  21
ENDBRANCH   1  18
TORSDOF 7
