REMARK  Name = ZINC16912761
REMARK  10 active torsions:
REMARK  status: ('A' for Active; 'I' for Inactive)
REMARK    1  A    between atoms: C_1  and  C_2
REMARK    2  A    between atoms: C_2  and  C_3
REMARK    3  A    between atoms: C_3  and  C_5
REMARK    4  A    between atoms: C_3  and  O_7
REMARK    5  A    between atoms: O_7  and  C_8
REMARK    6  A    between atoms: C_11  and  C_16
REMARK    7  A    between atoms: C_13  and  O_14
REMARK    8  A    between atoms: O_14  and  C_15
REMARK    9  A    between atoms: N_20  and  N_24
REMARK   10  A    between atoms: C_25  and  C_27
REMARK                            x       y       z     vdW  Elec       q    Type
REMARK                         _______ _______ _______ _____ _____    ______ ____
ROOT
ATOM      1  C   UNL     1       4.753   0.413  -6.112  0.00  0.00    +0.028 C 
ATOM      2  C   UNL     1       4.113   0.962  -7.176  0.00  0.00    +0.079 C 
ATOM      3  C   UNL     1       2.709   1.398  -7.308  0.00  0.00    +0.275 C 
ATOM      4  O   UNL     1       1.919   1.296  -6.387  0.00  0.00    -0.267 OA
ATOM      5  N   UNL     1       2.353   1.905  -8.476  0.00  0.00    -0.169 N 
ATOM      6  C   UNL     1       3.231   2.016  -9.493  0.00  0.00    +0.138 C 
ATOM      7  S   UNL     1       2.964   2.640 -11.065  0.00  0.00    -0.026 S 
ATOM      8  S   UNL     1       4.742   1.362  -8.801  0.00  0.00    -0.059 S 
ENDROOT
BRANCH   1  12
ATOM      9  C   UNL     1       2.544  -0.744  -2.679  0.00  0.00    +0.163 A 
ATOM     10  C   UNL     1       2.045  -1.010  -3.946  0.00  0.00    +0.050 A 
ATOM     11  C   UNL     1       2.755  -0.631  -5.064  0.00  0.00    +0.012 A 
ATOM     12  C   UNL     1       3.990   0.013  -4.923  0.00  0.00    -0.020 A 
ATOM     13  C   UNL     1       4.495   0.276  -3.644  0.00  0.00    +0.057 A 
ATOM     14  C   UNL     1       3.773  -0.102  -2.529  0.00  0.00    +0.162 A 
BRANCH  14  15
ATOM     15  O   UNL     1       4.261   0.150  -1.285  0.00  0.00    -0.491 OA
ATOM     16  C   UNL     1       5.526   0.811  -1.206  0.00  0.00    +0.277 C 
ENDBRANCH  14  15
BRANCH   9  17
ATOM     17  O   UNL     1       1.836  -1.115  -1.580  0.00  0.00    -0.474 OA
BRANCH  17  18
ATOM     18  C   UNL     1       0.534  -1.660  -1.801  0.00  0.00    +0.285 C 
BRANCH  18  19
ATOM     19  C   UNL     1       0.650  -3.131  -2.107  0.00  0.00    +0.396 C 
ATOM     20  O   UNL     1       1.725  -3.678  -2.045  0.00  0.00    -0.242 OA
ATOM     21  O   UNL     1      -0.442  -3.833  -2.450  0.00  0.00    -0.242 OA
ENDBRANCH  18  19
BRANCH  18  23
ATOM     22  C   UNL     1      -0.541   0.029  -0.307  0.00  0.00    +0.008 C 
ATOM     23  C   UNL     1      -0.320  -1.466  -0.547  0.00  0.00    +0.053 C 
ENDBRANCH  18  23
ENDBRANCH  17  18
ENDBRANCH   9  17
ENDBRANCH   1  12
BRANCH   5  24
ATOM     24  N   UNL     1       1.032   2.337  -8.661  0.00  0.00    -0.222 N 
ATOM     25  C   UNL     1       0.750   3.654  -8.674  0.00  0.00    +0.261 C 
ATOM     26  O   UNL     1       1.640   4.468  -8.525  0.00  0.00    -0.269 OA
ATOM     27  H   UNL     1       0.322   1.687  -8.780  0.00  0.00    +0.174 HD
BRANCH  25  28
ATOM     28  C   UNL     1      -0.646   4.111  -8.870  0.00  0.00    +0.041 A 
ATOM     29  C   UNL     1      -1.684   3.191  -9.049  0.00  0.00    +0.033 A 
ATOM     30  C   UNL     1      -2.972   3.660  -9.222  0.00  0.00    +0.111 A 
ATOM     31  N   UNL     1      -3.225   4.954  -9.231  0.00  0.00    -0.263 NA
ATOM     32  C   UNL     1      -2.276   5.854  -9.072  0.00  0.00    +0.111 A 
ATOM     33  C   UNL     1      -0.961   5.473  -8.887  0.00  0.00    +0.033 A 
ENDBRANCH  25  28
ENDBRANCH   5  24
TORSDOF 8
