REMARK  Name = ZINC50649898
REMARK  2 active torsions:
REMARK  status: ('A' for Active; 'I' for Inactive)
REMARK    1  A    between atoms: C_6  and  S_7
REMARK    2  A    between atoms: S_7  and  N_10
REMARK                            x       y       z     vdW  Elec       q    Type
REMARK                         _______ _______ _______ _____ _____    ______ ____
ROOT
ATOM      1  S   UNL     1      -1.298  -1.165  -0.290  0.00  0.00    +0.065 S 
ATOM      2  O   UNL     1      -1.403  -2.209   0.668  0.00  0.00    -0.153 OA
ATOM      3  O   UNL     1      -2.271  -0.135  -0.404  0.00  0.00    -0.153 OA
ENDROOT
BRANCH   1   9
ATOM      4  C   UNL     1       1.085  -0.811   1.007  0.00  0.00    +0.048 A 
ATOM      5  C   UNL     1       2.294  -0.153   1.201  0.00  0.00    +0.038 A 
ATOM      6  C   UNL     1       2.619   0.916   0.389  0.00  0.00    +0.128 A 
ATOM      7  N   UNL     1       1.799   1.316  -0.564  0.00  0.00    -0.238 NA
ATOM      8  C   UNL     1       0.639   0.715  -0.779  0.00  0.00    +0.143 A 
ATOM      9  C   UNL     1       0.247  -0.368   0.001  0.00  0.00    +0.146 A 
ATOM     10  N   UNL     1      -0.195   1.171  -1.794  0.00  0.00    -0.342 N 
ATOM     11 BR   UNL     1       3.480  -0.714   2.562  0.00  0.00    -0.049 Br
ATOM     12  H   UNL     1       0.096   1.892  -2.374  0.00  0.00    +0.144 HD
ATOM     13  H   UNL     1      -1.068   0.769  -1.922  0.00  0.00    +0.144 HD
ENDBRANCH   1   9
BRANCH   1  14
ATOM     14  N   UNL     1      -1.202  -1.892  -1.775  0.00  0.00    -0.166 NA
ATOM     15  C   UNL     1      -1.705  -1.226  -2.988  0.00  0.00    +0.128 C 
ATOM     16  C   UNL     1      -0.529  -1.028  -3.946  0.00  0.00    +0.121 C 
ATOM     17  N   UNL     1       0.255  -2.250  -4.062  0.00  0.00    -0.313 N 
ATOM     18  C   UNL     1       0.268  -3.229  -3.156  0.00  0.00    +0.229 C 
ATOM     19  O   UNL     1       1.023  -4.163  -3.325  0.00  0.00    -0.274 OA
ATOM     20  C   UNL     1      -0.605  -3.226  -1.936  0.00  0.00    +0.205 C 
ATOM     21  H   UNL     1       0.806  -2.359  -4.852  0.00  0.00    +0.149 HD
ENDBRANCH   1  14
TORSDOF 2
