REMARK  Name = ZINC40892882
REMARK  7 active torsions:
REMARK  status: ('A' for Active; 'I' for Inactive)
REMARK    1  A    between atoms: C_1  and  C_2
REMARK    2  A    between atoms: C_2  and  C_4
REMARK    3  A    between atoms: C_2  and  N_10
REMARK    4  A    between atoms: C_11  and  C_13
REMARK    5  A    between atoms: C_18  and  O_24
REMARK    6  A    between atoms: O_24  and  C_25
REMARK    7  A    between atoms: C_25  and  C_27
REMARK                            x       y       z     vdW  Elec       q    Type
REMARK                         _______ _______ _______ _____ _____    ______ ____
ROOT
ATOM      1  C   UNL     1      -3.398  -1.215  -1.223  0.00  0.00    +0.122 A 
ATOM      2  C   UNL     1      -4.168  -1.283  -2.379  0.00  0.00    +0.031 A 
ATOM      3  C   UNL     1      -5.499  -1.754  -2.267  0.00  0.00    +0.019 A 
ATOM      4  C   UNL     1      -6.253  -2.033  -3.418  0.00  0.00    +0.015 A 
ATOM      5  C   UNL     1      -7.518  -2.525  -3.297  0.00  0.00    +0.047 A 
ATOM      6  C   UNL     1      -8.075  -2.747  -2.038  0.00  0.00    +0.135 A 
ATOM      7  C   UNL     1      -7.353  -2.459  -0.890  0.00  0.00    +0.093 A 
ATOM      8  C   UNL     1      -6.068  -1.952  -0.993  0.00  0.00    +0.143 A 
ATOM      9  O   UNL     1      -5.369  -1.626   0.121  0.00  0.00    -0.422 OA
ATOM     10  C   UNL     1      -4.018  -1.678   0.032  0.00  0.00    +0.350 A 
ATOM     11  O   UNL     1      -3.339  -2.088   0.954  0.00  0.00    -0.244 OA
ENDROOT
BRANCH   1  13
ATOM     12  N   UNL     1      -1.293  -0.657  -0.116  0.00  0.00    -0.305 N 
ATOM     13  C   UNL     1      -2.018  -0.707  -1.252  0.00  0.00    +0.251 C 
ATOM     14  O   UNL     1      -1.530  -0.331  -2.301  0.00  0.00    -0.270 OA
ATOM     15  H   UNL     1      -1.682  -0.957   0.720  0.00  0.00    +0.150 HD
BRANCH  12  17
ATOM     16  C   UNL     1       0.065   1.374  -0.028  0.00  0.00    +0.033 C 
ATOM     17  C   UNL     1       0.081  -0.151  -0.145  0.00  0.00    +0.100 C 
BRANCH  17  18
ATOM     18  C   UNL     1       0.856  -0.736   1.007  0.00  0.00    -0.027 A 
ATOM     19  C   UNL     1       0.255  -0.877   2.244  0.00  0.00    +0.005 A 
ATOM     20  C   UNL     1       0.966  -1.413   3.301  0.00  0.00    +0.000 A 
ATOM     21  C   UNL     1       2.278  -1.809   3.122  0.00  0.00    +0.000 A 
ATOM     22  C   UNL     1       2.879  -1.668   1.885  0.00  0.00    +0.000 A 
ATOM     23  C   UNL     1       2.167  -1.136   0.826  0.00  0.00    +0.005 A 
ENDBRANCH  17  18
ENDBRANCH  12  17
ENDBRANCH   1  13
BRANCH   6  24
ATOM     24  O   UNL     1      -9.332  -3.247  -1.935  0.00  0.00    -0.422 OA
BRANCH  24  25
ATOM     25  C   UNL     1      -9.536  -4.526  -2.308  0.00  0.00    +0.344 C 
ATOM     26  O   UNL     1      -8.593  -5.226  -2.620  0.00  0.00    -0.245 OA
BRANCH  25  27
ATOM     27  C   UNL     1     -10.906  -5.078  -2.335  0.00  0.00    +0.060 A 
ATOM     28  C   UNL     1     -11.993  -4.275  -1.982  0.00  0.00    +0.015 A 
ATOM     29  C   UNL     1     -13.270  -4.796  -2.010  0.00  0.00    +0.002 A 
ATOM     30  C   UNL     1     -13.476  -6.111  -2.388  0.00  0.00    +0.015 A 
ATOM     31  C   UNL     1     -12.404  -6.913  -2.739  0.00  0.00    +0.019 A 
ATOM     32  C   UNL     1     -11.121  -6.402  -2.721  0.00  0.00    +0.030 A 
ATOM     33 BR   UNL     1     -12.697  -8.709  -3.253  0.00  0.00    -0.050 Br
ENDBRANCH  25  27
ENDBRANCH  24  25
ENDBRANCH   6  24
TORSDOF 6
