REMARK  Name = ZINC21334256
REMARK  5 active torsions:
REMARK  status: ('A' for Active; 'I' for Inactive)
REMARK    1  A    between atoms: C_4  and  C_7
REMARK    2  A    between atoms: C_7  and  N_8
REMARK    3  A    between atoms: C_10  and  C_19
REMARK    4  A    between atoms: C_11  and  C_13
REMARK    5  A    between atoms: N_26  and  C_27
REMARK                            x       y       z     vdW  Elec       q    Type
REMARK                         _______ _______ _______ _____ _____    ______ ____
ROOT
ATOM      1  N   UNL     1       1.222  -2.667  -1.404  0.00  0.00    -0.266 N 
ATOM      2  C   UNL     1       2.128  -3.504  -1.936  0.00  0.00    +0.117 A 
ATOM      3  C   UNL     1       1.780  -3.720  -3.257  0.00  0.00    +0.022 A 
ATOM      4  C   UNL     1       0.564  -2.934  -3.497  0.00  0.00    +0.101 A 
ATOM      5  N   UNL     1       0.268  -2.331  -2.368  0.00  0.00    -0.170 NA
ENDROOT
BRANCH   3   6
ATOM      6  C   UNL     1       2.485  -4.567  -4.225  0.00  0.00    +0.032 C 
ATOM      7  C   UNL     1       3.605  -5.238  -3.851  0.00  0.00    +0.080 C 
ATOM      8  C   UNL     1       4.473  -6.144  -4.635  0.00  0.00    +0.276 C 
ATOM      9  O   UNL     1       4.245  -6.400  -5.807  0.00  0.00    -0.267 OA
ATOM     10  N   UNL     1       5.507  -6.654  -4.003  0.00  0.00    -0.154 NA
ATOM     11  C   UNL     1       5.763  -6.390  -2.731  0.00  0.00    +0.152 C 
ATOM     12  S   UNL     1       4.441  -5.281  -2.270  0.00  0.00    -0.052 S 
ATOM     13  N   UNL     1       6.792  -6.856  -1.956  0.00  0.00    -0.322 N 
ATOM     14  H   UNL     1       6.873  -6.544  -0.904  0.00  0.00    +0.148 HD
BRANCH  13  15
ATOM     15  C   UNL     1       7.785  -7.768  -2.527  0.00  0.00    +0.072 C 
ATOM     16  C   UNL     1       7.266  -9.205  -2.442  0.00  0.00    +0.022 C 
ATOM     17  C   UNL     1       8.304 -10.158  -3.039  0.00  0.00    +0.002 C 
ATOM     18  C   UNL     1       9.613 -10.042  -2.257  0.00  0.00    +0.000 C 
ATOM     19  C   UNL     1      10.132  -8.605  -2.342  0.00  0.00    +0.002 C 
ATOM     20  C   UNL     1       9.095  -7.652  -1.745  0.00  0.00    +0.022 C 
ENDBRANCH  13  15
ENDBRANCH   3   6
BRANCH   4  21
ATOM     21  C   UNL     1      -0.190  -2.842  -4.770  0.00  0.00    +0.021 A 
ATOM     22  C   UNL     1      -1.583  -2.731  -4.764  0.00  0.00    +0.013 A 
ATOM     23  C   UNL     1      -2.240  -2.644  -5.980  0.00  0.00    +0.020 A 
ATOM     24  C   UNL     1      -1.504  -2.680  -7.151  0.00  0.00    +0.111 A 
ATOM     25  N   UNL     1      -0.190  -2.790  -7.125  0.00  0.00    -0.263 NA
ATOM     26  C   UNL     1       0.479  -2.871  -5.993  0.00  0.00    +0.120 A 
ENDBRANCH   4  21
BRANCH   1  27
ATOM     27  C   UNL     1       1.229  -2.186  -0.021  0.00  0.00    +0.178 C 
BRANCH  27  31
ATOM     28  C   UNL     1       1.171   2.086   0.002  0.00  0.00    +0.000 A 
ATOM     29  C   UNL     1      -0.017   1.378   0.010  0.00  0.00    +0.000 A 
ATOM     30  C   UNL     1       0.002  -0.004   0.002  0.00  0.00    +0.005 A 
ATOM     31  C   UNL     1       1.208  -0.679  -0.013  0.00  0.00    -0.026 A 
ATOM     32  C   UNL     1       2.396   0.029  -0.021  0.00  0.00    +0.005 A 
ATOM     33  C   UNL     1       2.377   1.411  -0.015  0.00  0.00    +0.000 A 
ENDBRANCH  27  31
ENDBRANCH   1  27
TORSDOF 5
