REMARK  Name = ZINC03948705
REMARK  4 active torsions:
REMARK  status: ('A' for Active; 'I' for Inactive)
REMARK    1  A    between atoms: C_1  and  C_2
REMARK    2  A    between atoms: C_4  and  C_17
REMARK    3  A    between atoms: C_5  and  C_9
REMARK    4  A    between atoms: C_6  and  C_8
REMARK                            x       y       z     vdW  Elec       q    Type
REMARK                         _______ _______ _______ _____ _____    ______ ____
ROOT
ATOM      1  C   UNL     1      -2.856   1.533  -0.094  0.00  0.00    +0.037 C 
ATOM      2  C   UNL     1      -3.484   2.580  -0.682  0.00  0.00    +0.098 C 
ATOM      3  C   UNL     1      -4.355   2.549  -1.869  0.00  0.00    +0.266 C 
ATOM      4  O   UNL     1      -4.660   1.571  -2.527  0.00  0.00    -0.268 OA
ATOM      5  N   UNL     1      -4.750   3.821  -2.078  0.00  0.00    -0.235 N 
ATOM      6  C   UNL     1      -4.206   4.624  -1.152  0.00  0.00    +0.311 C 
ATOM      7  O   UNL     1      -4.382   5.826  -1.094  0.00  0.00    -0.252 OA
ATOM      8  N   UNL     1      -3.441   3.926  -0.295  0.00  0.00    -0.265 N 
ATOM      9  H   UNL     1      -5.337   4.112  -2.794  0.00  0.00    +0.159 HD
ATOM     10  H   UNL     1      -2.946   4.288   0.457  0.00  0.00    +0.157 HD
ENDROOT
BRANCH   1  15
ATOM     11  C   UNL     1       0.023   2.316   4.819  0.00  0.00    +0.044 C 
ATOM     12  C   UNL     1      -0.733   2.107   3.532  0.00  0.00    -0.050 A 
ATOM     13  C   UNL     1      -2.083   2.402   3.471  0.00  0.00    +0.007 A 
ATOM     14  C   UNL     1      -2.782   2.215   2.298  0.00  0.00    -0.043 A 
ATOM     15  C   UNL     1      -2.120   1.730   1.164  0.00  0.00    -0.017 A 
ATOM     16  C   UNL     1      -0.756   1.428   1.236  0.00  0.00    -0.043 A 
ATOM     17  C   UNL     1      -0.072   1.621   2.417  0.00  0.00    +0.007 A 
ATOM     18  C   UNL     1      -0.034   0.899   0.023  0.00  0.00    +0.044 C 
ATOM     19  C   UNL     1      -4.253   2.537   2.234  0.00  0.00    +0.044 C 
ENDBRANCH   1  15
TORSDOF 1
