REMARK  Name = ZINC39946710
REMARK  5 active torsions:
REMARK  status: ('A' for Active; 'I' for Inactive)
REMARK    1  A    between atoms: C_4  and  N_7
REMARK    2  A    between atoms: N_9  and  N_26
REMARK    3  A    between atoms: C_10  and  C_14
REMARK    4  A    between atoms: C_17  and  C_20
REMARK    5  A    between atoms: C_27  and  C_28
REMARK                            x       y       z     vdW  Elec       q    Type
REMARK                         _______ _______ _______ _____ _____    ______ ____
ROOT
ATOM      1  N   UNL     1       3.605  -0.627  -0.059  0.00  0.00    -0.225 NA
ATOM      2  C   UNL     1       3.757  -1.766   0.577  0.00  0.00    +0.177 C 
ATOM      3  N   UNL     1       4.897  -2.533   0.682  0.00  0.00    -0.193 N 
ATOM      4  C   UNL     1       4.787  -3.915   1.106  0.00  0.00    +0.140 C 
ATOM      5  C   UNL     1       3.333  -4.334   1.425  0.00  0.00    +0.106 C 
ATOM      6  S   UNL     1       2.534  -2.673   1.512  0.00  0.00    -0.087 S 
ENDROOT
BRANCH   1  10
ATOM      7  C   UNL     1      -0.066   1.281  -0.040  0.00  0.00    +0.000 A 
ATOM      8  C   UNL     1       1.090   2.009   0.182  0.00  0.00    +0.002 A 
ATOM      9  C   UNL     1       2.317   1.380   0.177  0.00  0.00    +0.028 A 
ATOM     10  C   UNL     1       2.391   0.004  -0.052  0.00  0.00    +0.067 A 
ATOM     11  C   UNL     1       1.220  -0.725  -0.276  0.00  0.00    +0.028 A 
ATOM     12  C   UNL     1       0.000  -0.082  -0.268  0.00  0.00    +0.002 A 
ENDBRANCH   1  10
BRANCH   4  13
ATOM     13  C   UNL     1       5.315  -4.803   0.009  0.00  0.00    -0.024 A 
ATOM     14  C   UNL     1       5.041  -4.506  -1.313  0.00  0.00    +0.006 A 
ATOM     15  C   UNL     1       5.526  -5.320  -2.319  0.00  0.00    +0.004 A 
ATOM     16  C   UNL     1       6.284  -6.432  -2.003  0.00  0.00    -0.044 A 
ATOM     17  C   UNL     1       6.559  -6.729  -0.681  0.00  0.00    +0.004 A 
ATOM     18  C   UNL     1       6.078  -5.912   0.325  0.00  0.00    +0.006 A 
BRANCH  16  19
ATOM     19  C   UNL     1       6.812  -7.321  -3.100  0.00  0.00    +0.019 C 
ATOM     20  C   UNL     1       6.263  -8.737  -2.917  0.00  0.00    +0.008 C 
ATOM     21  C   UNL     1       6.799  -9.639  -4.031  0.00  0.00    +0.001 C 
ATOM     22  C   UNL     1       8.327  -9.672  -3.970  0.00  0.00    +0.000 C 
ATOM     23  C   UNL     1       8.876  -8.256  -4.153  0.00  0.00    +0.001 C 
ATOM     24  C   UNL     1       8.340  -7.354  -3.039  0.00  0.00    +0.008 C 
ENDBRANCH  16  19
ENDBRANCH   4  13
BRANCH   3  25
ATOM     25  N   UNL     1       6.150  -1.982   0.382  0.00  0.00    -0.185 NA
ATOM     26  C   UNL     1       7.240  -2.682   0.589  0.00  0.00    +0.136 C 
BRANCH  26  27
ATOM     27  C   UNL     1       8.481  -2.180   0.181  0.00  0.00    +0.000 C 
ATOM     28  C   UNL     1       9.726  -2.795   0.319  0.00  0.00    +0.004 A 
ATOM     29  C   UNL     1      10.123  -4.031   0.873  0.00  0.00    +0.010 A 
ATOM     30  C   UNL     1      11.435  -4.379   0.871  0.00  0.00    +0.001 A 
ATOM     31  C   UNL     1      12.414  -3.541   0.332  0.00  0.00    +0.002 A 
ATOM     32  C   UNL     1      12.105  -2.340  -0.216  0.00  0.00    +0.026 A 
ATOM     33  C   UNL     1      10.753  -1.908  -0.251  0.00  0.00    +0.043 A 
ATOM     34  N   UNL     1      10.203  -0.806  -0.719  0.00  0.00    -0.380 N 
ATOM     35  C   UNL     1       8.753  -0.861  -0.508  0.00  0.00    +0.150 C 
ATOM     36  H   UNL     1      10.681  -0.074  -1.140  0.00  0.00    +0.160 HD
ENDBRANCH  26  27
ENDBRANCH   3  25
TORSDOF 5
