REMARK  Name = ZINC36369693
REMARK  15 active torsions:
REMARK  status: ('A' for Active; 'I' for Inactive)
REMARK    1  A    between atoms: C_1  and  C_2
REMARK    2  A    between atoms: C_6  and  O_32
REMARK    3  A    between atoms: C_7  and  C_31
REMARK    4  A    between atoms: C_12  and  C_13
REMARK    5  A    between atoms: C_13  and  C_14
REMARK    6  A    between atoms: N_19  and  C_22
REMARK    7  A    between atoms: C_22  and  C_23
REMARK    8  A    between atoms: N_25  and  C_26
REMARK    9  A    between atoms: C_26  and  C_27
REMARK   10  A    between atoms: C_27  and  N_28
REMARK   11  A    between atoms: N_28  and  C_29
REMARK   12  A    between atoms: N_28  and  C_30
REMARK   13  A    between atoms: O_32  and  C_33
REMARK   14  A    between atoms: C_33  and  C_34
REMARK   15  A    between atoms: C_34  and  C_36
REMARK                            x       y       z     vdW  Elec       q    Type
REMARK                         _______ _______ _______ _____ _____    ______ ____
ROOT
ATOM      1  C   UNL     1       2.473   0.064  -0.238  0.00  0.00    +0.138 C 
ENDROOT
BRANCH   1  13
ATOM      2  C   UNL     1       0.011   1.491   0.253  0.00  0.00    +0.045 C 
ATOM      3  C   UNL     1       0.016  -0.009   0.116  0.00  0.00    -0.029 A 
ATOM      4  C   UNL     1      -1.226  -0.778   0.223  0.00  0.00    +0.021 A 
ATOM      5  C   UNL     1      -2.450  -0.141   0.454  0.00  0.00    +0.015 A 
ATOM      6  C   UNL     1      -3.593  -0.881   0.548  0.00  0.00    +0.047 A 
ATOM      7  C   UNL     1      -3.548  -2.268   0.416  0.00  0.00    +0.127 A 
ATOM      8  C   UNL     1      -2.345  -2.915   0.187  0.00  0.00    +0.034 A 
ATOM      9  C   UNL     1      -1.174  -2.178   0.088  0.00  0.00    +0.146 A 
ATOM     10  O   UNL     1       0.009  -2.789  -0.135  0.00  0.00    -0.422 OA
ATOM     11  C   UNL     1       1.151  -2.090  -0.234  0.00  0.00    +0.341 A 
ATOM     12  O   UNL     1       2.194  -2.684  -0.436  0.00  0.00    -0.245 OA
ATOM     13  C   UNL     1       1.172  -0.685  -0.114  0.00  0.00    +0.049 A 
ATOM     14  C   UNL     1      -2.308  -4.415   0.046  0.00  0.00    +0.051 C 
BRANCH   7  15
ATOM     15  O   UNL     1      -4.693  -2.991   0.513  0.00  0.00    -0.487 OA
BRANCH  15  16
ATOM     16  C   UNL     1      -5.901  -2.264   0.751  0.00  0.00    +0.259 C 
BRANCH  16  17
ATOM     17  C   UNL     1      -7.059  -3.226   0.828  0.00  0.00    -0.043 C 
ATOM     18  C   UNL     1      -6.853  -4.511   0.682  0.00  0.00    +0.011 C 
ATOM     19  C   UNL     1      -8.453  -2.708   1.073  0.00  0.00    +0.042 C 
ENDBRANCH  16  17
ENDBRANCH  15  16
ENDBRANCH   7  15
ENDBRANCH   1  13
BRANCH   1  20
ATOM     20  C   UNL     1       3.164   0.094   1.101  0.00  0.00    +0.220 C 
ATOM     21  O   UNL     1       2.651  -0.441   2.061  0.00  0.00    -0.275 OA
ATOM     22  N   UNL     1       4.354   0.714   1.232  0.00  0.00    -0.299 N 
ATOM     23  C   UNL     1       4.991   1.374   0.083  0.00  0.00    +0.123 C 
ATOM     24  C   UNL     1       5.370   2.802   0.489  0.00  0.00    +0.104 C 
ATOM     25  N   UNL     1       6.184   2.760   1.712  0.00  0.00    -0.291 NA
ATOM     26  C   UNL     1       5.425   2.202   2.839  0.00  0.00    +0.104 C 
ATOM     27  C   UNL     1       5.045   0.755   2.530  0.00  0.00    +0.123 C 
BRANCH  25  28
ATOM     28  C   UNL     1       6.712   4.091   2.039  0.00  0.00    +0.180 C 
BRANCH  28  29
ATOM     29  C   UNL     1       7.731   3.970   3.143  0.00  0.00    +0.227 C 
ATOM     30  O   UNL     1       7.992   2.882   3.611  0.00  0.00    -0.274 OA
ATOM     31  N   UNL     1       8.352   5.071   3.610  0.00  0.00    -0.316 N 
ATOM     32  H   UNL     1       8.143   5.941   3.236  0.00  0.00    +0.149 HD
BRANCH  31  33
ATOM     33  C   UNL     1       9.342   4.954   4.683  0.00  0.00    +0.085 C 
BRANCH  33  34
ATOM     34  C   UNL     1       9.892   6.340   5.024  0.00  0.00    -0.061 C 
BRANCH  34  35
ATOM     35  N   UNL     1      10.885   6.222   6.100  0.00  0.00    +0.377 N 
ATOM     36  C   UNL     1      12.041   5.454   5.618  0.00  0.00    -0.097 C 
ATOM     37  C   UNL     1      11.325   7.563   6.510  0.00  0.00    -0.097 C 
ATOM     38  H   UNL     1      10.472   5.748   6.889  0.00  0.00    -0.083 HD
ENDBRANCH  34  35
ENDBRANCH  33  34
ENDBRANCH  31  33
ENDBRANCH  28  29
ENDBRANCH  25  28
ENDBRANCH   1  20
TORSDOF 10
