REMARK  Name = ZINC04885176
REMARK  10 active torsions:
REMARK  status: ('A' for Active; 'I' for Inactive)
REMARK    1  A    between atoms: C_1  and  C_2
REMARK    2  A    between atoms: C_2  and  N_3
REMARK    3  A    between atoms: C_8  and  C_27
REMARK    4  A    between atoms: C_10  and  C_15
REMARK    5  A    between atoms: C_10  and  C_23
REMARK    6  A    between atoms: C_15  and  C_16
REMARK    7  A    between atoms: C_19  and  O_22
REMARK    8  A    between atoms: C_23  and  O_25
REMARK    9  A    between atoms: O_25  and  C_26
REMARK   10  A    between atoms: C_32  and  C_33
REMARK                            x       y       z     vdW  Elec       q    Type
REMARK                         _______ _______ _______ _____ _____    ______ ____
ROOT
ATOM      1  N   UNL     1       1.899   1.465  -4.023  0.00  0.00    -0.242 N 
ATOM      2  C   UNL     1       2.161   2.167  -2.880  0.00  0.00    +0.224 C 
ATOM      3  O   UNL     1       1.896   3.330  -2.660  0.00  0.00    -0.275 OA
ATOM      4  C   UNL     1       2.841   1.207  -1.955  0.00  0.00    +0.077 C 
ATOM      5  C   UNL     1       2.501   1.155  -0.475  0.00  0.00    -0.026 C 
ATOM      6  C   UNL     1       2.492  -1.075  -1.420  0.00  0.00    +0.048 C 
ATOM      7  C   UNL     1       2.061  -0.083  -2.419  0.00  0.00    +0.086 C 
ATOM      8  C   UNL     1       2.022   0.114  -3.847  0.00  0.00    +0.225 C 
ATOM      9  O   UNL     1       2.083  -0.735  -4.710  0.00  0.00    -0.275 OA
ATOM     10  N   UNL     1       2.409  -0.293  -0.147  0.00  0.00    +0.396 N 
ATOM     11  H   UNL     1       1.516  -0.487   0.321  0.00  0.00    -0.083 HD
ATOM     12  H   UNL     1       3.184  -0.557   0.473  0.00  0.00    -0.083 HD
ENDROOT
BRANCH   5  13
ATOM     13  C   UNL     1       1.180   1.834  -0.219  0.00  0.00    -0.058 A 
ATOM     14  C   UNL     1       0.003   1.114  -0.306  0.00  0.00    +0.002 A 
ATOM     15  C   UNL     1      -1.208   1.739  -0.077  0.00  0.00    +0.000 A 
ATOM     16  C   UNL     1      -1.242   3.082   0.249  0.00  0.00    +0.000 A 
ATOM     17  C   UNL     1      -0.066   3.802   0.337  0.00  0.00    +0.003 A 
ATOM     18  C   UNL     1       1.145   3.178   0.103  0.00  0.00    -0.049 A 
ATOM     19  C   UNL     1       2.428   3.963   0.199  0.00  0.00    +0.044 C 
ENDBRANCH   5  13
BRANCH   1  21
ATOM     20  C   UNL     1       2.812   2.376  -6.100  0.00  0.00    +0.025 C 
ATOM     21  C   UNL     1       1.541   2.092  -5.298  0.00  0.00    +0.113 C 
ENDBRANCH   1  21
BRANCH   6  22
ATOM     22  C   UNL     1       1.556  -2.256  -1.394  0.00  0.00    +0.297 C 
ATOM     23  O   UNL     1       0.979  -2.592  -2.401  0.00  0.00    -0.252 OA
BRANCH  22  24
ATOM     24  O   UNL     1       1.363  -2.934  -0.252  0.00  0.00    -0.469 OA
ATOM     25  C   UNL     1       0.448  -4.061  -0.300  0.00  0.00    +0.280 C 
ENDBRANCH  22  24
ENDBRANCH   6  22
BRANCH   6  26
ATOM     26  C   UNL     1       3.929  -1.529  -1.688  0.00  0.00    +0.034 C 
BRANCH  26  27
ATOM     27  C   UNL     1       4.385  -2.436  -0.575  0.00  0.00    -0.048 A 
ATOM     28  C   UNL     1       5.012  -1.903   0.536  0.00  0.00    +0.007 A 
ATOM     29  C   UNL     1       5.426  -2.732   1.561  0.00  0.00    +0.045 A 
ATOM     30  C   UNL     1       5.223  -4.102   1.469  0.00  0.00    +0.117 A 
ATOM     31  C   UNL     1       4.599  -4.634   0.350  0.00  0.00    +0.045 A 
ATOM     32  C   UNL     1       4.182  -3.801  -0.670  0.00  0.00    +0.007 A 
BRANCH  30  33
ATOM     33  O   UNL     1       5.635  -4.920   2.473  0.00  0.00    -0.507 OA
ATOM     34  H   UNL     1       6.539  -5.247   2.368  0.00  0.00    +0.292 HD
ENDBRANCH  30  33
ENDBRANCH  26  27
ENDBRANCH   6  26
TORSDOF 7
