REMARK  Name = ZINC24770334
REMARK  12 active torsions:
REMARK  status: ('A' for Active; 'I' for Inactive)
REMARK    1  A    between atoms: C_1  and  C_2
REMARK    2  A    between atoms: C_2  and  N_3
REMARK    3  A    between atoms: N_3  and  C_4
REMARK    4  A    between atoms: N_3  and  C_18
REMARK    5  A    between atoms: C_4  and  C_5
REMARK    6  A    between atoms: N_7  and  C_8
REMARK    7  A    between atoms: C_13  and  C_14
REMARK    8  A    between atoms: C_18  and  C_19
REMARK    9  A    between atoms: N_21  and  C_22
REMARK   10  A    between atoms: N_21  and  C_23
REMARK   11  A    between atoms: C_23  and  C_24
REMARK   12  A    between atoms: N_27  and  C_29
REMARK                            x       y       z     vdW  Elec       q    Type
REMARK                         _______ _______ _______ _____ _____    ______ ____
ROOT
ATOM      1  N   UNL     1       2.313   0.693  -0.078  0.00  0.00    +0.391 N 
ATOM      2  H   UNL     1       2.140  -0.203   0.537  0.00  0.00    -0.080 HD
ENDROOT
BRANCH   1   4
ATOM      3  C   UNL     1       2.740   1.476  -2.358  0.00  0.00    -0.017 C 
ATOM      4  C   UNL     1       2.424   0.265  -1.479  0.00  0.00    -0.081 C 
ENDBRANCH   1   4
BRANCH   1   5
ATOM      5  C   UNL     1       1.170   1.596   0.108  0.00  0.00    +0.020 C 
BRANCH   5   6
ATOM      6  C   UNL     1      -0.111   0.842  -0.139  0.00  0.00    +0.201 C 
ATOM      7  O   UNL     1      -0.075  -0.333  -0.440  0.00  0.00    -0.278 OA
ATOM      8  N   UNL     1      -1.297   1.474  -0.030  0.00  0.00    -0.287 N 
ATOM      9  H   UNL     1      -1.334   2.517   0.317  0.00  0.00    +0.155 HD
BRANCH   8  10
ATOM     10  C   UNL     1      -2.480   0.803  -0.359  0.00  0.00    +0.045 A 
ATOM     11  C   UNL     1      -2.596  -0.560  -0.121  0.00  0.00    +0.024 A 
ATOM     12  C   UNL     1      -3.767  -1.219  -0.443  0.00  0.00    +0.002 A 
ATOM     13  C   UNL     1      -4.819  -0.524  -1.011  0.00  0.00    +0.001 A 
ATOM     14  C   UNL     1      -4.705   0.833  -1.254  0.00  0.00    +0.014 A 
ATOM     15  C   UNL     1      -3.538   1.498  -0.930  0.00  0.00    +0.076 A 
BRANCH  15  16
ATOM     16  C   UNL     1      -3.414   2.976  -1.196  0.00  0.00    +0.419 C 
ATOM     17  F   UNL     1      -4.599   3.448  -1.769  0.00  0.00    -0.166 F 
ATOM     18  F   UNL     1      -3.179   3.648   0.009  0.00  0.00    -0.166 F 
ATOM     19  F   UNL     1      -2.348   3.204  -2.073  0.00  0.00    -0.166 F 
ENDBRANCH  15  16
ENDBRANCH   8  10
ENDBRANCH   5   6
ENDBRANCH   1   5
BRANCH   1  20
ATOM     20  C   UNL     1       3.560   1.320   0.381  0.00  0.00    +0.019 C 
BRANCH  20  21
ATOM     21  C   UNL     1       4.618   0.262   0.561  0.00  0.00    +0.199 C 
ATOM     22  O   UNL     1       4.362  -0.899   0.322  0.00  0.00    -0.278 OA
ATOM     23  N   UNL     1       5.849   0.606   0.989  0.00  0.00    -0.302 N 
ATOM     24  C   UNL     1       6.158   2.008   1.279  0.00  0.00    +0.132 C 
BRANCH  23  25
ATOM     25  C   UNL     1       6.877  -0.422   1.165  0.00  0.00    +0.145 C 
BRANCH  25  26
ATOM     26  C   UNL     1       7.646  -0.589  -0.121  0.00  0.00    +0.008 A 
ATOM     27  C   UNL     1       8.800   0.112  -0.486  0.00  0.00    +0.140 A 
ATOM     28  N   UNL     1       9.177  -0.306  -1.668  0.00  0.00    -0.174 NA
ATOM     29  N   UNL     1       8.272  -1.287  -2.094  0.00  0.00    -0.240 N 
ATOM     30  C   UNL     1       7.344  -1.446  -1.123  0.00  0.00    +0.119 A 
BRANCH  29  31
ATOM     31  C   UNL     1       8.324  -1.986  -3.308  0.00  0.00    +0.065 A 
ATOM     32  C   UNL     1       7.362  -2.942  -3.602  0.00  0.00    +0.028 A 
ATOM     33  C   UNL     1       7.413  -3.625  -4.801  0.00  0.00    +0.002 A 
ATOM     34  C   UNL     1       8.426  -3.364  -5.705  0.00  0.00    +0.000 A 
ATOM     35  C   UNL     1       9.389  -2.415  -5.413  0.00  0.00    +0.002 A 
ATOM     36  C   UNL     1       9.341  -1.726  -4.217  0.00  0.00    +0.028 A 
ENDBRANCH  29  31
ENDBRANCH  25  26
ENDBRANCH  23  25
ENDBRANCH  20  21
ENDBRANCH   1  20
TORSDOF 10
