REMARK  Name = ZINC36450897
REMARK  7 active torsions:
REMARK  status: ('A' for Active; 'I' for Inactive)
REMARK    1  A    between atoms: C_1  and  C_2
REMARK    2  A    between atoms: C_2  and  C_4
REMARK    3  A    between atoms: C_2  and  N_13
REMARK    4  A    between atoms: C_14  and  C_16
REMARK    5  A    between atoms: C_16  and  N_17
REMARK    6  A    between atoms: N_20  and  S_23
REMARK    7  A    between atoms: S_23  and  C_26
REMARK                            x       y       z     vdW  Elec       q    Type
REMARK                         _______ _______ _______ _____ _____    ______ ____
ROOT
ATOM      1  N   UNL     1      -0.242  -1.150  -4.714  0.00  0.00    -0.291 NA
ATOM      2  C   UNL     1      -1.277  -2.165  -4.472  0.00  0.00    +0.102 C 
ATOM      3  C   UNL     1      -2.348  -2.068  -5.563  0.00  0.00    +0.125 C 
ATOM      4  N   UNL     1      -1.688  -2.155  -6.875  0.00  0.00    -0.174 NA
ATOM      5  C   UNL     1      -0.550  -1.261  -7.141  0.00  0.00    +0.125 C 
ATOM      6  C   UNL     1       0.450  -1.389  -5.987  0.00  0.00    +0.102 C 
ENDROOT
BRANCH   4   7
ATOM      7  S   UNL     1      -2.211  -3.229  -8.021  0.00  0.00    +0.061 S 
ATOM      8  O   UNL     1      -1.108  -3.475  -8.882  0.00  0.00    -0.153 OA
ATOM      9  O   UNL     1      -2.882  -4.271  -7.325  0.00  0.00    -0.153 OA
BRANCH   7  10
ATOM     10  C   UNL     1      -3.431  -2.404  -8.989  0.00  0.00    +0.109 A 
ATOM     11  C   UNL     1      -4.761  -2.460  -8.616  0.00  0.00    +0.032 A 
ATOM     12  C   UNL     1      -5.724  -1.814  -9.371  0.00  0.00    +0.051 A 
ATOM     13  C   UNL     1      -5.350  -1.111 -10.504  0.00  0.00    +0.162 A 
ATOM     14  C   UNL     1      -4.015  -1.055 -10.878  0.00  0.00    +0.164 A 
ATOM     15  C   UNL     1      -3.053  -1.698 -10.118  0.00  0.00    +0.078 A 
ATOM     16  O   UNL     1      -3.657  -0.358 -11.996  0.00  0.00    -0.488 OA
ATOM     17  C   UNL     1      -4.093  -0.907 -13.241  0.00  0.00    +0.232 C 
ATOM     18  C   UNL     1      -5.514  -0.467 -13.557  0.00  0.00    +0.082 C 
ATOM     19  C   UNL     1      -6.524  -1.010 -12.558  0.00  0.00    +0.232 C 
ATOM     20  O   UNL     1      -6.290  -0.468 -11.257  0.00  0.00    -0.488 OA
ENDBRANCH   7  10
ENDBRANCH   4   7
BRANCH   1  21
ATOM     21  C   UNL     1       0.712  -1.094  -3.598  0.00  0.00    +0.180 C 
BRANCH  21  23
ATOM     22  N   UNL     1       0.688  -0.476  -1.203  0.00  0.00    -0.305 N 
ATOM     23  C   UNL     1       0.006  -0.608  -2.358  0.00  0.00    +0.228 C 
ATOM     24  O   UNL     1      -1.175  -0.336  -2.400  0.00  0.00    -0.274 OA
ATOM     25  H   UNL     1       1.632  -0.695  -1.170  0.00  0.00    +0.149 HD
BRANCH  22  27
ATOM     26  C   UNL     1      -0.019   1.526   0.010  0.00  0.00    +0.036 C 
ATOM     27  C   UNL     1       0.002  -0.004   0.002  0.00  0.00    +0.136 C 
BRANCH  27  28
ATOM     28  C   UNL     1       0.731  -0.503   1.223  0.00  0.00    +0.126 A 
ATOM     29  C   UNL     1       0.140  -0.958   2.336  0.00  0.00    +0.055 A 
ATOM     30  C   UNL     1       1.225  -1.333   3.251  0.00  0.00    +0.020 A 
ATOM     31  C   UNL     1       1.275  -1.860   4.541  0.00  0.00    +0.011 A 
ATOM     32  C   UNL     1       2.486  -2.101   5.129  0.00  0.00    +0.001 A 
ATOM     33  C   UNL     1       3.663  -1.824   4.450  0.00  0.00    +0.004 A 
ATOM     34  C   UNL     1       3.634  -1.302   3.174  0.00  0.00    +0.047 A 
ATOM     35  C   UNL     1       2.414  -1.051   2.558  0.00  0.00    +0.135 A 
ATOM     36  O   UNL     1       2.068  -0.562   1.351  0.00  0.00    -0.458 OA
ENDBRANCH  27  28
ENDBRANCH  22  27
ENDBRANCH  21  23
ENDBRANCH   1  21
TORSDOF 6
