REMARK  Name = ZINC67299022
REMARK  6 active torsions:
REMARK  status: ('A' for Active; 'I' for Inactive)
REMARK    1  A    between atoms: C_1  and  O_2
REMARK    2  A    between atoms: O_2  and  C_3
REMARK    3  A    between atoms: N_11  and  C_12
REMARK    4  A    between atoms: C_20  and  C_22
REMARK    5  A    between atoms: N_24  and  C_25
REMARK    6  A    between atoms: C_25  and  C_26
REMARK                            x       y       z     vdW  Elec       q    Type
REMARK                         _______ _______ _______ _____ _____    ______ ____
ROOT
ATOM      1  C   UNL     1       0.536  -0.652  -1.122  0.00  0.00    +0.163 A 
ATOM      2  C   UNL     1       1.089   0.116  -2.132  0.00  0.00    +0.049 A 
ATOM      3  C   UNL     1       1.729  -0.485  -3.206  0.00  0.00    +0.004 A 
ATOM      4  C   UNL     1       1.823  -1.856  -3.284  0.00  0.00    +0.012 A 
ATOM      5  C   UNL     1       1.267  -2.649  -2.272  0.00  0.00    +0.022 A 
ATOM      6  C   UNL     1       0.626  -2.039  -1.178  0.00  0.00    +0.179 A 
ATOM      7  O   UNL     1       0.100  -2.806  -0.191  0.00  0.00    -0.435 OA
ATOM      8  C   UNL     1      -0.295  -4.060  -0.529  0.00  0.00    +0.212 A 
ATOM      9  N   UNL     1      -1.410  -4.571  -0.052  0.00  0.00    -0.325 N 
ATOM     10  C   UNL     1       0.563  -4.832  -1.449  0.00  0.00    +0.097 A 
ATOM     11  C   UNL     1       1.348  -4.110  -2.335  0.00  0.00    +0.030 A 
ATOM     12  H   UNL     1      -1.724  -5.432  -0.370  0.00  0.00    +0.169 HD
ENDROOT
BRANCH   9  13
ATOM     13  C   UNL     1      -2.126  -3.888   0.893  0.00  0.00    +0.047 A 
ATOM     14  C   UNL     1      -1.471  -3.294   1.974  0.00  0.00    +0.064 A 
ATOM     15  C   UNL     1      -2.200  -2.605   2.925  0.00  0.00    +0.128 A 
ATOM     16  C   UNL     1      -3.577  -2.504   2.807  0.00  0.00    +0.076 A 
ATOM     17  C   UNL     1      -4.231  -3.091   1.737  0.00  0.00    +0.128 A 
ATOM     18  C   UNL     1      -3.513  -3.777   0.777  0.00  0.00    +0.064 A 
ATOM     19  F   UNL     1      -5.574  -2.988   1.629  0.00  0.00    -0.205 F 
ATOM     20  F   UNL     1      -1.568  -2.030   3.972  0.00  0.00    -0.205 F 
ENDBRANCH   9  13
BRANCH  10  21
ATOM     21  C   UNL     1       0.577  -6.305  -1.432  0.00  0.00    +0.250 C 
ATOM     22  O   UNL     1      -0.185  -6.912  -0.705  0.00  0.00    -0.270 OA
ATOM     23  N   UNL     1       1.435  -6.979  -2.223  0.00  0.00    -0.304 N 
ATOM     24  H   UNL     1       2.093  -6.497  -2.748  0.00  0.00    +0.149 HD
BRANCH  23  25
ATOM     25  C   UNL     1       1.373  -8.442  -2.291  0.00  0.00    +0.179 C 
BRANCH  25  26
ATOM     26  C   UNL     1       2.431  -8.945  -3.239  0.00  0.00    +0.122 A 
ATOM     27  C   UNL     1       3.690  -9.282  -2.907  0.00  0.00    +0.046 A 
ATOM     28  C   UNL     1       4.331  -9.698  -4.096  0.00  0.00    +0.041 A 
ATOM     29  C   UNL     1       3.425  -9.591  -5.085  0.00  0.00    +0.195 A 
ATOM     30  O   UNL     1       2.274  -9.140  -4.559  0.00  0.00    -0.466 OA
ENDBRANCH  25  26
ENDBRANCH  23  25
ENDBRANCH  10  21
BRANCH   1  32
ATOM     31  C   UNL     1      -0.143   1.376  -0.082  0.00  0.00    +0.277 C 
ATOM     32  O   UNL     1      -0.088  -0.052  -0.073  0.00  0.00    -0.491 OA
ENDBRANCH   1  32
TORSDOF 5
