REMARK  Name = ZINC01160867
REMARK  5 active torsions:
REMARK  status: ('A' for Active; 'I' for Inactive)
REMARK    1  A    between atoms: C_1  and  C_2
REMARK    2  A    between atoms: C_7  and  C_16
REMARK    3  A    between atoms: C_7  and  O_20
REMARK    4  A    between atoms: C_9  and  C_11
REMARK    5  A    between atoms: C_9  and  O_15
REMARK                            x       y       z     vdW  Elec       q    Type
REMARK                         _______ _______ _______ _____ _____    ______ ____
ROOT
ATOM      1  C   UNL     1       0.279   1.150   1.381  0.00  0.00    +0.067 C 
ATOM      2  C   UNL     1       0.227  -0.313   1.023  0.00  0.00    +0.062 A 
ATOM      3  C   UNL     1       0.180  -0.839  -0.274  0.00  0.00    +0.068 A 
ATOM      4  C   UNL     1       0.143  -2.185  -0.169  0.00  0.00    +0.123 A 
ATOM      5  N   UNL     1       0.166  -2.502   1.152  0.00  0.00    -0.210 N 
ATOM      6  N   UNL     1       0.223  -1.311   1.874  0.00  0.00    -0.172 NA
ATOM      7  C   UNL     1       0.142  -3.876   1.661  0.00  0.00    +0.261 C 
ATOM      8  C   UNL     1       0.569  -4.829   0.538  0.00  0.00    +0.133 C 
ATOM      9  C   UNL     1      -0.231  -4.527  -0.734  0.00  0.00    +0.234 C 
ATOM     10  N   UNL     1       0.087  -3.154  -1.173  0.00  0.00    -0.295 N 
ATOM     11  H   UNL     1       0.249  -2.938  -2.105  0.00  0.00    +0.150 HD
ENDROOT
BRANCH   9  12
ATOM     12  C   UNL     1      -1.728  -4.638  -0.438  0.00  0.00    +0.436 C 
ATOM     13  F   UNL     1      -2.115  -3.593   0.408  0.00  0.00    -0.166 F 
ATOM     14  F   UNL     1      -2.447  -4.559  -1.635  0.00  0.00    -0.166 F 
ATOM     15  F   UNL     1      -1.992  -5.863   0.184  0.00  0.00    -0.166 F 
ENDBRANCH   9  12
BRANCH   7  16
ATOM     16  C   UNL     1       1.111  -4.004   2.838  0.00  0.00    +0.440 C 
ATOM     17  F   UNL     1       0.727  -3.125   3.856  0.00  0.00    -0.166 F 
ATOM     18  F   UNL     1       1.086  -5.317   3.322  0.00  0.00    -0.166 F 
ATOM     19  F   UNL     1       2.406  -3.689   2.412  0.00  0.00    -0.166 F 
ENDBRANCH   7  16
BRANCH   9  20
ATOM     20  O   UNL     1       0.129  -5.455  -1.759  0.00  0.00    -0.364 OA
ATOM     21  H   UNL     1      -0.341  -5.321  -2.594  0.00  0.00    +0.212 HD
ENDBRANCH   9  20
BRANCH   7  22
ATOM     22  O   UNL     1      -1.181  -4.205   2.090  0.00  0.00    -0.361 OA
ATOM     23  H   UNL     1      -1.519  -3.634   2.794  0.00  0.00    +0.213 HD
ENDBRANCH   7  22
TORSDOF 4
