REMARK  Name = ZINC04767997
REMARK  8 active torsions:
REMARK  status: ('A' for Active; 'I' for Inactive)
REMARK    1  A    between atoms: C_1  and  C_2
REMARK    2  A    between atoms: C_2  and  C_3
REMARK    3  A    between atoms: C_3  and  C_4
REMARK    4  A    between atoms: C_4  and  O_5
REMARK    5  A    between atoms: O_5  and  C_6
REMARK    6  A    between atoms: C_6  and  C_8
REMARK    7  A    between atoms: C_9  and  C_29
REMARK    8  A    between atoms: C_20  and  C_22
REMARK                            x       y       z     vdW  Elec       q    Type
REMARK                         _______ _______ _______ _____ _____    ______ ____
ROOT
ATOM      1  C   UNL     1      -3.402   1.372  -1.243  0.00  0.00    +0.080 C 
ATOM      2  C   UNL     1      -4.477   2.163  -1.110  0.00  0.00    +0.020 C 
ATOM      3  N   UNL     1      -4.891   2.639   0.108  0.00  0.00    -0.288 N 
ATOM      4  C   UNL     1      -4.338   2.066   1.244  0.00  0.00    +0.202 A 
ATOM      5  N   UNL     1      -4.731   2.177   2.484  0.00  0.00    -0.214 NA
ATOM      6  C   UNL     1      -3.916   1.454   3.278  0.00  0.00    +0.091 A 
ATOM      7  C   UNL     1      -3.908   1.242   4.661  0.00  0.00    +0.030 A 
ATOM      8  C   UNL     1      -2.910   0.427   5.165  0.00  0.00    +0.002 A 
ATOM      9  C   UNL     1      -1.959  -0.159   4.348  0.00  0.00    +0.002 A 
ATOM     10  C   UNL     1      -1.947   0.037   2.977  0.00  0.00    +0.028 A 
ATOM     11  C   UNL     1      -2.939   0.852   2.445  0.00  0.00    +0.071 A 
ATOM     12  N   UNL     1      -3.226   1.255   1.173  0.00  0.00    -0.300 N 
ATOM     13  C   UNL     1      -2.545   0.943  -0.084  0.00  0.00    +0.159 C 
ATOM     14  C   UNL     1      -5.257   2.542  -2.342  0.00  0.00    +0.061 C 
ATOM     15  H   UNL     1      -5.547   3.350   0.173  0.00  0.00    +0.155 HD
ENDROOT
BRANCH  13  16
ATOM     16  C   UNL     1      -1.228   1.674  -0.136  0.00  0.00    -0.020 A 
ATOM     17  C   UNL     1      -0.047   0.964  -0.241  0.00  0.00    +0.007 A 
ATOM     18  C   UNL     1       1.160   1.635  -0.294  0.00  0.00    +0.015 A 
ATOM     19  C   UNL     1       1.187   3.016  -0.237  0.00  0.00    +0.018 A 
ATOM     20  C   UNL     1       0.005   3.727  -0.126  0.00  0.00    +0.015 A 
ATOM     21  C   UNL     1      -1.202   3.055  -0.073  0.00  0.00    +0.007 A 
ATOM     22 BR   UNL     1       2.838   3.934  -0.311  0.00  0.00    -0.050 Br
ENDBRANCH  13  16
BRANCH   1  23
ATOM     23  C   UNL     1      -3.057   0.919  -2.537  0.00  0.00    +0.339 C 
ATOM     24  O   UNL     1      -3.789   1.158  -3.480  0.00  0.00    -0.245 OA
BRANCH  23  25
ATOM     25  O   UNL     1      -1.917   0.222  -2.726  0.00  0.00    -0.461 OA
BRANCH  25  26
ATOM     26  C   UNL     1      -1.632  -0.204  -4.060  0.00  0.00    +0.232 C 
BRANCH  26  27
ATOM     27  C   UNL     1      -0.309  -0.973  -4.077  0.00  0.00    +0.041 C 
BRANCH  27  29
ATOM     28  C   UNL     1       1.319  -2.198  -5.523  0.00  0.00    +0.004 C 
ATOM     29  C   UNL     1      -0.003  -1.429  -5.505  0.00  0.00    -0.000 C 
ENDBRANCH  27  29
ENDBRANCH  26  27
ENDBRANCH  25  26
ENDBRANCH  23  25
ENDBRANCH   1  23
TORSDOF 6
