REMARK  Name = ZINC15744441
REMARK  9 active torsions:
REMARK  status: ('A' for Active; 'I' for Inactive)
REMARK    1  A    between atoms: C_1  and  C_2
REMARK    2  A    between atoms: C_5  and  S_9
REMARK    3  A    between atoms: C_6  and  C_8
REMARK    4  A    between atoms: S_9  and  N_12
REMARK    5  A    between atoms: C_15  and  C_18
REMARK    6  A    between atoms: N_20  and  C_21
REMARK    7  A    between atoms: C_21  and  C_22
REMARK    8  A    between atoms: C_22  and  C_24
REMARK    9  A    between atoms: C_22  and  C_25
REMARK                            x       y       z     vdW  Elec       q    Type
REMARK                         _______ _______ _______ _____ _____    ______ ____
ROOT
ATOM      1  N   UNL     1       0.970  -0.476  -1.269  0.00  0.00    -0.177 NA
ATOM      2  C   UNL     1       0.383  -0.029   0.002  0.00  0.00    +0.110 C 
ATOM      3  C   UNL     1       0.357   1.503   0.021  0.00  0.00    +0.030 C 
ATOM      4  C   UNL     1       1.766   2.037  -0.243  0.00  0.00    +0.077 C 
ATOM      5  C   UNL     1       2.236   1.579  -1.626  0.00  0.00    +0.030 C 
ATOM      6  C   UNL     1       2.284   0.048  -1.663  0.00  0.00    +0.110 C 
ENDROOT
BRANCH   4   7
ATOM      7  C   UNL     1       1.751   3.543  -0.191  0.00  0.00    +0.216 C 
ATOM      8  O   UNL     1       0.714   4.131   0.034  0.00  0.00    -0.276 OA
ATOM      9  N   UNL     1       2.888   4.236  -0.396  0.00  0.00    -0.315 N 
ATOM     10  H   UNL     1       3.717   3.765  -0.576  0.00  0.00    +0.149 HD
BRANCH   9  11
ATOM     11  C   UNL     1       2.873   5.700  -0.345  0.00  0.00    +0.112 C 
BRANCH  11  12
ATOM     12  C   UNL     1       4.282   6.234  -0.609  0.00  0.00    +0.033 C 
ATOM     13  C   UNL     1       5.213   5.800   0.525  0.00  0.00    +0.014 C 
BRANCH  12  14
ATOM     14  C   UNL     1       4.244   7.739  -0.679  0.00  0.00    -0.043 A 
ATOM     15  C   UNL     1       3.803   8.470   0.407  0.00  0.00    +0.004 A 
ATOM     16  C   UNL     1       3.772   9.851   0.345  0.00  0.00    +0.000 A 
ATOM     17  C   UNL     1       4.174  10.500  -0.808  0.00  0.00    +0.000 A 
ATOM     18  C   UNL     1       4.611   9.768  -1.896  0.00  0.00    +0.000 A 
ATOM     19  C   UNL     1       4.645   8.387  -1.832  0.00  0.00    +0.004 A 
ENDBRANCH  12  14
ENDBRANCH  11  12
ENDBRANCH   9  11
ENDBRANCH   4   7
BRANCH   1  20
ATOM     20  S   UNL     1       0.164  -1.550  -2.239  0.00  0.00    +0.061 S 
ATOM     21  O   UNL     1       1.155  -2.268  -2.961  0.00  0.00    -0.153 OA
ATOM     22  O   UNL     1      -0.798  -2.196  -1.417  0.00  0.00    -0.153 OA
BRANCH  20  27
ATOM     23  C   UNL     1      -2.924   1.678  -6.295  0.00  0.00    +0.044 C 
ATOM     24  C   UNL     1      -2.153   0.872  -5.282  0.00  0.00    -0.050 A 
ATOM     25  C   UNL     1      -1.089   0.087  -5.688  0.00  0.00    +0.005 A 
ATOM     26  C   UNL     1      -0.382  -0.652  -4.759  0.00  0.00    +0.029 A 
ATOM     27  C   UNL     1      -0.738  -0.607  -3.424  0.00  0.00    +0.108 A 
ATOM     28  C   UNL     1      -1.804   0.174  -3.019  0.00  0.00    -0.024 A 
ATOM     29  C   UNL     1      -2.509   0.917  -3.947  0.00  0.00    +0.008 A 
ATOM     30  C   UNL     1      -2.196   0.218  -1.564  0.00  0.00    +0.046 C 
ENDBRANCH  20  27
ENDBRANCH   1  20
TORSDOF 6
