REMARK  Name = ZINC67289053
REMARK  6 active torsions:
REMARK  status: ('A' for Active; 'I' for Inactive)
REMARK    1  A    between atoms: C_1  and  N_2
REMARK    2  A    between atoms: C_13  and  C_15
REMARK    3  A    between atoms: C_15  and  C_16
REMARK    4  A    between atoms: C_16  and  C_17
REMARK    5  A    between atoms: N_19  and  C_20
REMARK    6  A    between atoms: C_25  and  C_28
REMARK                            x       y       z     vdW  Elec       q    Type
REMARK                         _______ _______ _______ _____ _____    ______ ____
ROOT
ATOM      1  C   UNL     1      -4.738  -1.427   0.016  0.00  0.00    +0.083 C 
ENDROOT
BRANCH   1  14
ATOM      2  C   UNL     1      -0.018   1.461   0.010  0.00  0.00    +0.155 C 
ATOM      3  N   UNL     1       0.002  -0.004   0.002  0.00  0.00    -0.280 N 
ATOM      4  C   UNL     1      -1.189  -0.712   0.004  0.00  0.00    +0.168 A 
ATOM      5  C   UNL     1      -1.144  -2.100  -0.004  0.00  0.00    +0.149 A 
ATOM      6  C   UNL     1       0.111  -2.748  -0.013  0.00  0.00    +0.280 A 
ATOM      7  O   UNL     1       0.176  -3.964  -0.021  0.00  0.00    -0.265 OA
ATOM      8  N   UNL     1       1.236  -2.003  -0.015  0.00  0.00    -0.273 N 
ATOM      9  H   UNL     1       2.100  -2.444  -0.021  0.00  0.00    +0.173 HD
ATOM     10  C   UNL     1       1.178  -0.660  -0.013  0.00  0.00    +0.331 A 
ATOM     11  O   UNL     1       2.213  -0.022  -0.020  0.00  0.00    -0.246 OA
ATOM     12  N   UNL     1      -2.456  -2.530   0.000  0.00  0.00    -0.336 N 
ATOM     13  H   UNL     1      -2.762  -3.450  -0.003  0.00  0.00    +0.167 HD
ATOM     14  C   UNL     1      -3.231  -1.427   0.010  0.00  0.00    +0.110 A 
ATOM     15  N   UNL     1      -2.477  -0.358   0.012  0.00  0.00    -0.214 NA
ENDBRANCH   1  14
BRANCH   1  16
ATOM     16  C   UNL     1      -5.242  -0.606   1.205  0.00  0.00    +0.103 C 
BRANCH  16  17
ATOM     17  C   UNL     1      -6.749  -0.605   1.211  0.00  0.00    +0.214 C 
ATOM     18  O   UNL     1      -7.359  -1.202   0.350  0.00  0.00    -0.276 OA
ATOM     19  N   UNL     1      -7.418   0.060   2.174  0.00  0.00    -0.312 N 
ATOM     20  H   UNL     1      -6.930   0.537   2.863  0.00  0.00    +0.149 HD
BRANCH  19  21
ATOM     21  C   UNL     1      -8.883   0.060   2.180  0.00  0.00    +0.073 C 
ATOM     22  C   UNL     1      -9.396   1.171   1.262  0.00  0.00    +0.022 C 
ATOM     23  C   UNL     1     -10.927   1.172   1.268  0.00  0.00    +0.002 C 
ATOM     24  C   UNL     1     -11.430   1.415   2.692  0.00  0.00    +0.012 C 
ATOM     25  C   UNL     1     -10.917   0.304   3.611  0.00  0.00    +0.095 C 
ATOM     26  C   UNL     1      -9.387   0.303   3.604  0.00  0.00    +0.034 C 
BRANCH  25  27
ATOM     27  C   UNL     1     -11.421   0.547   5.035  0.00  0.00    +0.393 C 
ATOM     28  F   UNL     1     -12.820   0.547   5.041  0.00  0.00    -0.170 F 
ATOM     29  F   UNL     1     -10.951  -0.469   5.875  0.00  0.00    -0.170 F 
ATOM     30  F   UNL     1     -10.952   1.783   5.492  0.00  0.00    -0.170 F 
ENDBRANCH  25  27
ENDBRANCH  19  21
ENDBRANCH  16  17
ENDBRANCH   1  16
TORSDOF 5
