REMARK  Name = ZINC40384960
REMARK  5 active torsions:
REMARK  status: ('A' for Active; 'I' for Inactive)
REMARK    1  A    between atoms: C_5  and  C_7
REMARK    2  A    between atoms: C_7  and  N_8
REMARK    3  A    between atoms: C_9  and  C_11
REMARK    4  A    between atoms: C_16  and  N_34
REMARK    5  A    between atoms: N_24  and  C_27
REMARK                            x       y       z     vdW  Elec       q    Type
REMARK                         _______ _______ _______ _____ _____    ______ ____
ROOT
ATOM      1  C   UNL     1       1.817  -4.512   2.961  0.00  0.00    +0.101 C 
ATOM      2  C   UNL     1       3.167  -3.982   3.444  0.00  0.00    +0.051 C 
ATOM      3  C   UNL     1       4.251  -4.543   2.559  0.00  0.00    -0.023 A 
ATOM      4  C   UNL     1       5.413  -3.820   2.362  0.00  0.00    +0.038 A 
ATOM      5  C   UNL     1       6.409  -4.322   1.544  0.00  0.00    +0.127 A 
ATOM      6  C   UNL     1       6.244  -5.545   0.922  0.00  0.00    +0.034 A 
ATOM      7  C   UNL     1       5.087  -6.272   1.119  0.00  0.00    +0.025 A 
ATOM      8  C   UNL     1       4.085  -5.772   1.947  0.00  0.00    +0.033 A 
ATOM      9  N   UNL     1       2.931  -6.548   2.149  0.00  0.00    -0.323 N 
ATOM     10  C   UNL     1       1.832  -6.043   2.951  0.00  0.00    +0.103 C 
ATOM     11  C   UNL     1       0.472  -6.532   2.482  0.00  0.00    +0.128 C 
ATOM     12  N   UNL     1       0.513  -7.864   1.913  0.00  0.00    -0.325 N 
ATOM     13  C   UNL     1       1.584  -8.307   1.036  0.00  0.00    +0.124 C 
ATOM     14  C   UNL     1       2.934  -7.886   1.561  0.00  0.00    +0.124 C 
ENDROOT
BRANCH  12  15
ATOM     15  C   UNL     1      -0.517  -8.757   2.218  0.00  0.00    +0.048 A 
ATOM     16  C   UNL     1      -1.648  -8.818   1.414  0.00  0.00    +0.024 A 
ATOM     17  C   UNL     1      -2.664  -9.702   1.718  0.00  0.00    +0.002 A 
ATOM     18  C   UNL     1      -2.558 -10.527   2.824  0.00  0.00    +0.002 A 
ATOM     19  C   UNL     1      -1.434 -10.470   3.627  0.00  0.00    +0.022 A 
ATOM     20  C   UNL     1      -0.411  -9.591   3.325  0.00  0.00    +0.062 A 
ATOM     21 CL   UNL     1       1.003  -9.525   4.330  0.00  0.00    -0.082 Cl
ENDBRANCH  12  15
BRANCH   1  23
ATOM     22  N   UNL     1       1.488  -2.679   1.333  0.00  0.00    -0.311 N 
ATOM     23  C   UNL     1       1.550  -4.005   1.567  0.00  0.00    +0.219 C 
ATOM     24  O   UNL     1       1.392  -4.790   0.656  0.00  0.00    -0.275 OA
ATOM     25  H   UNL     1       1.614  -2.051   2.062  0.00  0.00    +0.149 HD
BRANCH  22  26
ATOM     26  C   UNL     1       1.228  -2.186  -0.022  0.00  0.00    +0.142 C 
BRANCH  26  31
ATOM     27  C   UNL     1      -0.017   1.378   0.010  0.00  0.00    +0.000 A 
ATOM     28  C   UNL     1       1.171   2.087   0.002  0.00  0.00    +0.003 A 
ATOM     29  C   UNL     1       2.377   1.414  -0.013  0.00  0.00    +0.038 A 
ATOM     30  C   UNL     1       2.397   0.029  -0.021  0.00  0.00    +0.128 A 
ATOM     31  C   UNL     1       1.208  -0.679  -0.013  0.00  0.00    +0.005 A 
ATOM     32  C   UNL     1       0.002  -0.004   0.002  0.00  0.00    +0.008 A 
ATOM     33  F   UNL     1       3.577  -0.630  -0.036  0.00  0.00    -0.205 F 
ENDBRANCH  26  31
ENDBRANCH  22  26
ENDBRANCH   1  23
BRANCH   5  34
ATOM     34  N   UNL     1       7.652  -3.547   1.335  0.00  0.00    +0.056 N 
ATOM     35  O   UNL     1       7.797  -2.477   1.878  0.00  0.00    -0.126 OA
ATOM     36  O   UNL     1       8.524  -3.985   0.620  0.00  0.00    -0.126 OA
ENDBRANCH   5  34
TORSDOF 5
