REMARK  Name = ZINC40269656
REMARK  2 active torsions:
REMARK  status: ('A' for Active; 'I' for Inactive)
REMARK    1  A    between atoms: C_6  and  C_7
REMARK    2  A    between atoms: C_7  and  C_9
REMARK                            x       y       z     vdW  Elec       q    Type
REMARK                         _______ _______ _______ _____ _____    ______ ____
ROOT
ATOM      1  C   UNL     1      -0.017   1.379   0.010  0.00  0.00    +0.007 A 
ATOM      2  C   UNL     1       1.169   2.081   0.002  0.00  0.00    +0.025 A 
ATOM      3  C   UNL     1       2.395   1.413  -0.013  0.00  0.00    +0.055 A 
ATOM      4  C   UNL     1       2.414   0.027  -0.021  0.00  0.00    +0.055 A 
ATOM      5  C   UNL     1       1.206  -0.674  -0.013  0.00  0.00    +0.030 A 
ATOM      6  C   UNL     1       0.002  -0.004   0.002  0.00  0.00    -0.023 A 
ATOM      7  N   UNL     1       3.581  -0.730  -0.035  0.00  0.00    -0.284 N 
ATOM      8  C   UNL     1       4.668  -0.466  -0.757  0.00  0.00    +0.226 C 
ATOM      9  O   UNL     1       5.611  -1.227  -0.714  0.00  0.00    -0.275 OA
ATOM     10  C   UNL     1       4.747   0.761  -1.628  0.00  0.00    +0.192 C 
ATOM     11  C   UNL     1       4.634   1.976  -0.744  0.00  0.00    +0.226 C 
ATOM     12  O   UNL     1       5.556   2.762  -0.691  0.00  0.00    -0.275 OA
ATOM     13  N   UNL     1       3.541   2.202  -0.019  0.00  0.00    -0.284 N 
ATOM     14  H   UNL     1       3.605  -1.519   0.529  0.00  0.00    +0.155 HD
ATOM     15  H   UNL     1       3.543   2.985   0.554  0.00  0.00    +0.155 HD
ENDROOT
BRANCH   6  16
ATOM     16  C   UNL     1      -1.292  -0.777   0.011  0.00  0.00    +0.147 C 
ATOM     17 CL   UNL     1      -2.293  -0.255   1.417  0.00  0.00    -0.111 Cl
BRANCH  16  18
ATOM     18  C   UNL     1      -2.044  -0.512  -1.268  0.00  0.00    +0.013 A 
ATOM     19  C   UNL     1      -2.362  -1.373  -2.265  0.00  0.00    +0.014 A 
ATOM     20  C   UNL     1      -3.066  -0.903  -3.358  0.00  0.00    +0.023 A 
ATOM     21  C   UNL     1      -3.418   0.407  -3.399  0.00  0.00    +0.055 A 
ATOM     22  S   UNL     1      -2.754   1.016  -1.858  0.00  0.00    -0.085 S 
ATOM     23 BR   UNL     1      -4.370   1.342  -4.739  0.00  0.00    -0.043 Br
ENDBRANCH  16  18
ENDBRANCH   6  16
TORSDOF 2
