REMARK  Name = ZINC02761191
REMARK  5 active torsions:
REMARK  status: ('A' for Active; 'I' for Inactive)
REMARK    1  A    between atoms: C_1  and  C_2
REMARK    2  A    between atoms: C_2  and  C_24
REMARK    3  A    between atoms: C_6  and  C_14
REMARK    4  A    between atoms: C_8  and  C_12
REMARK    5  A    between atoms: C_9  and  N_11
REMARK                            x       y       z     vdW  Elec       q    Type
REMARK                         _______ _______ _______ _____ _____    ______ ____
ROOT
ATOM      1  C   UNL     1       0.002  -0.004   0.002  0.00  0.00    +0.012 C 
ATOM      2  C   UNL     1      -0.019   1.526   0.010  0.00  0.00    -0.021 C 
ATOM      3  C   UNL     1      -0.743   2.023   1.263  0.00  0.00    +0.081 C 
ATOM      4  C   UNL     1      -0.804   3.533   1.249  0.00  0.00    +0.115 C 
ATOM      5  C   UNL     1      -0.861   4.209   0.086  0.00  0.00    +0.046 C 
ATOM      6  C   UNL     1      -0.932   5.717   0.077  0.00  0.00    +0.101 C 
ATOM      7  C   UNL     1      -0.473   6.262   1.400  0.00  0.00    +0.098 C 
ATOM      8  C   UNL     1      -0.431   5.463   2.494  0.00  0.00    +0.198 C 
ATOM      9  O   UNL     1      -0.800   4.174   2.432  0.00  0.00    -0.445 OA
ATOM     10  C   UNL     1      -0.858   3.538  -1.152  0.00  0.00    +0.164 C 
ATOM     11  O   UNL     1      -0.930   4.181  -2.179  0.00  0.00    -0.292 OA
ATOM     12  C   UNL     1      -0.768   2.037  -1.225  0.00  0.00    +0.086 C 
ATOM     13  C   UNL     1       1.415   2.059  -0.000  0.00  0.00    +0.012 C 
ENDROOT
BRANCH   6  14
ATOM     14  C   UNL     1      -2.353   6.149  -0.176  0.00  0.00    -0.034 A 
ATOM     15  C   UNL     1      -3.357   5.766   0.694  0.00  0.00    +0.005 A 
ATOM     16  C   UNL     1      -4.660   6.167   0.465  0.00  0.00    +0.015 A 
ATOM     17  C   UNL     1      -4.961   6.941  -0.641  0.00  0.00    +0.018 A 
ATOM     18  C   UNL     1      -3.957   7.319  -1.514  0.00  0.00    +0.015 A 
ATOM     19  C   UNL     1      -2.654   6.923  -1.281  0.00  0.00    +0.005 A 
ATOM     20 BR   UNL     1      -6.745   7.483  -0.959  0.00  0.00    -0.050 Br
ENDBRANCH   6  14
BRANCH   8  21
ATOM     21  N   UNL     1      -0.001   5.982   3.690  0.00  0.00    -0.328 N 
ATOM     22  H   UNL     1       0.268   6.912   3.746  0.00  0.00    +0.145 HD
ATOM     23  H   UNL     1       0.033   5.419   4.479  0.00  0.00    +0.145 HD
ENDBRANCH   8  21
BRANCH   7  24
ATOM     24  C   UNL     1      -0.078   7.635   1.506  0.00  0.00    +0.101 C 
ATOM     25  N   UNL     1       0.236   8.723   1.590  0.00  0.00    -0.191 NA
ENDBRANCH   7  24
TORSDOF 3
