REMARK  Name = ZINC21076944
REMARK  7 active torsions:
REMARK  status: ('A' for Active; 'I' for Inactive)
REMARK    1  A    between atoms: C_3  and  C_9
REMARK    2  A    between atoms: N_10  and  N_11
REMARK    3  A    between atoms: C_14  and  S_17
REMARK    4  A    between atoms: S_17  and  C_18
REMARK    5  A    between atoms: C_18  and  C_19
REMARK    6  A    between atoms: C_19  and  C_20
REMARK    7  A    between atoms: N_22  and  C_23
REMARK                            x       y       z     vdW  Elec       q    Type
REMARK                         _______ _______ _______ _____ _____    ______ ____
ROOT
ATOM      1  N   UNL     1      -8.569  -0.792  -0.024  0.00  0.00    -0.205 N 
ATOM      2  C   UNL     1      -7.206  -0.532  -0.021  0.00  0.00    +0.232 A 
ATOM      3  N   UNL     1      -6.623   0.705  -0.016  0.00  0.00    -0.186 NA
ATOM      4  C   UNL     1      -5.268   0.534  -0.013  0.00  0.00    +0.210 A 
ATOM      5  N   UNL     1      -5.022  -0.755  -0.021  0.00  0.00    -0.144 NA
ATOM      6  N   UNL     1      -6.250  -1.430  -0.020  0.00  0.00    -0.245 N 
ATOM      7  H   UNL     1      -9.287   0.041  -0.023  0.00  0.00    +0.177 HD
ATOM      8  H   UNL     1      -6.501  -2.501  -0.019  0.00  0.00    +0.192 HD
ENDROOT
BRANCH   1  10
ATOM      9  C   UNL     1     -10.305  -2.358  -0.032  0.00  0.00    +0.139 C 
ATOM     10  N   UNL     1      -9.029  -2.115  -0.028  0.00  0.00    -0.188 NA
BRANCH   9  13
ATOM     11  C   UNL     1     -12.609  -5.320  -0.044  0.00  0.00    +0.021 A 
ATOM     12  C   UNL     1     -12.161  -4.016  -0.040  0.00  0.00    +0.012 A 
ATOM     13  C   UNL     1     -10.790  -3.750  -0.036  0.00  0.00    +0.013 A 
ATOM     14  C   UNL     1      -9.879  -4.811  -0.043  0.00  0.00    +0.051 A 
ATOM     15  C   UNL     1     -10.341  -6.112  -0.042  0.00  0.00    +0.040 A 
ATOM     16  C   UNL     1     -11.702  -6.367  -0.045  0.00  0.00    +0.042 A 
ATOM     17 CL   UNL     1     -12.274  -8.006  -0.050  0.00  0.00    -0.083 Cl
ATOM     18 CL   UNL     1      -8.172  -4.494  -0.046  0.00  0.00    -0.083 Cl
ENDBRANCH   9  13
ENDBRANCH   1  10
BRANCH   4  19
ATOM     19  S   UNL     1      -4.062   1.818  -0.007  0.00  0.00    -0.084 S 
BRANCH  19  20
ATOM     20  C   UNL     1      -2.478   0.933  -0.005  0.00  0.00    +0.086 C 
BRANCH  20  21
ATOM     21  C   UNL     1      -1.330   1.944   0.001  0.00  0.00    +0.107 C 
BRANCH  21  22
ATOM     22  C   UNL     1      -0.014   1.208   0.002  0.00  0.00    +0.218 C 
ATOM     23  O   UNL     1       0.003  -0.004  -0.001  0.00  0.00    -0.275 OA
ATOM     24  N   UNL     1       1.143   1.898   0.001  0.00  0.00    -0.284 N 
ATOM     25  H   UNL     1       1.129   2.996  -0.071  0.00  0.00    +0.155 HD
BRANCH  24  26
ATOM     26  C   UNL     1       2.364   1.218   0.092  0.00  0.00    +0.053 A 
ATOM     27  C   UNL     1       2.513  -0.025  -0.508  0.00  0.00    +0.044 A 
ATOM     28  C   UNL     1       3.721  -0.692  -0.421  0.00  0.00    +0.043 A 
ATOM     29  C   UNL     1       4.777  -0.125   0.271  0.00  0.00    +0.021 A 
ATOM     30  C   UNL     1       4.630   1.110   0.874  0.00  0.00    +0.023 A 
ATOM     31  C   UNL     1       3.426   1.784   0.786  0.00  0.00    +0.062 A 
ATOM     32 CL   UNL     1       3.242   3.336   1.543  0.00  0.00    -0.082 Cl
ATOM     33 CL   UNL     1       3.911  -2.244  -1.175  0.00  0.00    -0.083 Cl
ENDBRANCH  24  26
ENDBRANCH  21  22
ENDBRANCH  20  21
ENDBRANCH  19  20
ENDBRANCH   4  19
TORSDOF 7
