REMARK  Name = ZINC09642546
REMARK  10 active torsions:
REMARK  status: ('A' for Active; 'I' for Inactive)
REMARK    1  A    between atoms: C_1  and  C_2
REMARK    2  A    between atoms: C_2  and  O_3
REMARK    3  A    between atoms: O_3  and  C_4
REMARK    4  A    between atoms: C_4  and  C_5
REMARK    5  A    between atoms: C_5  and  C_6
REMARK    6  A    between atoms: C_6  and  N_7
REMARK    7  A    between atoms: C_19  and  C_22
REMARK    8  A    between atoms: C_23  and  C_33
REMARK    9  A    between atoms: N_24  and  C_26
REMARK   10  A    between atoms: C_29  and  C_32
REMARK                            x       y       z     vdW  Elec       q    Type
REMARK                         _______ _______ _______ _____ _____    ______ ____
ROOT
ATOM      1  N   UNL     1      -6.793   7.264  -1.191  0.00  0.00    -0.299 N 
ATOM      2  C   UNL     1      -6.494   5.957  -1.325  0.00  0.00    +0.302 C 
ATOM      3  O   UNL     1      -7.162   5.251  -2.055  0.00  0.00    -0.253 OA
ATOM      4  N   UNL     1      -5.453   5.432  -0.648  0.00  0.00    -0.283 N 
ATOM      5  C   UNL     1      -4.699   6.239   0.323  0.00  0.00    +0.128 C 
ATOM      6  C   UNL     1      -3.206   6.128  -0.006  0.00  0.00    +0.125 C 
ATOM      7  N   UNL     1      -2.825   4.710  -0.064  0.00  0.00    -0.309 N 
ATOM      8  C   UNL     1      -3.534   4.011  -1.144  0.00  0.00    +0.125 C 
ATOM      9  C   UNL     1      -5.040   4.036  -0.862  0.00  0.00    +0.128 C 
ATOM     10  C   UNL     1      -1.453   4.569  -0.199  0.00  0.00    +0.172 A 
ATOM     11  C   UNL     1      -0.837   3.246  -0.277  0.00  0.00    +0.137 A 
ATOM     12  C   UNL     1       0.632   3.213  -0.419  0.00  0.00    +0.049 A 
ATOM     13  C   UNL     1       1.298   4.457  -0.465  0.00  0.00    +0.072 A 
ATOM     14  N   UNL     1       0.605   5.564  -0.382  0.00  0.00    -0.152 NA
ATOM     15  N   UNL     1      -0.665   5.626  -0.259  0.00  0.00    -0.132 NA
ATOM     16  C   UNL     1       2.798   4.511  -0.609  0.00  0.00    +0.068 C 
ATOM     17  C   UNL     1       0.988   1.884  -0.472  0.00  0.00    +0.051 A 
ATOM     18  N   UNL     1      -0.137   1.152  -0.375  0.00  0.00    -0.236 N 
ATOM     19  N   UNL     1      -1.247   1.999  -0.262  0.00  0.00    -0.163 NA
ATOM     20  C   UNL     1       2.388   1.345  -0.614  0.00  0.00    +0.066 C 
ATOM     21  H   UNL     1      -6.248   7.882  -0.462  0.00  0.00    +0.150 HD
ENDROOT
BRANCH  18  22
ATOM     22  C   UNL     1      -0.190  -0.247  -0.390  0.00  0.00    +0.066 A 
ATOM     23  C   UNL     1       0.694  -0.969  -1.183  0.00  0.00    +0.028 A 
ATOM     24  C   UNL     1       0.642  -2.349  -1.192  0.00  0.00    +0.005 A 
ATOM     25  C   UNL     1      -0.295  -3.012  -0.420  0.00  0.00    -0.050 A 
ATOM     26  C   UNL     1      -1.179  -2.297   0.365  0.00  0.00    +0.005 A 
ATOM     27  C   UNL     1      -1.129  -0.917   0.383  0.00  0.00    +0.028 A 
ATOM     28  C   UNL     1      -0.352  -4.518  -0.437  0.00  0.00    +0.044 C 
ENDBRANCH  18  22
BRANCH   1  29
ATOM     29  C   UNL     1      -7.845   7.862  -2.017  0.00  0.00    +0.108 C 
BRANCH  29  30
ATOM     30  C   UNL     1      -7.984   9.346  -1.670  0.00  0.00    +0.047 C 
BRANCH  30  31
ATOM     31  C   UNL     1      -9.083   9.971  -2.532  0.00  0.00    +0.161 C 
BRANCH  31  32
ATOM     32  O   UNL     1      -9.212  11.356  -2.208  0.00  0.00    -0.380 OA
BRANCH  32  34
ATOM     33  C   UNL     1     -10.268  13.506  -2.534  0.00  0.00    +0.034 C 
ATOM     34  C   UNL     1     -10.217  12.038  -2.962  0.00  0.00    +0.156 C 
ENDBRANCH  32  34
ENDBRANCH  31  32
ENDBRANCH  30  31
ENDBRANCH  29  30
ENDBRANCH   1  29
TORSDOF 6
