REMARK  Name = ZINC15958215
REMARK  4 active torsions:
REMARK  status: ('A' for Active; 'I' for Inactive)
REMARK    1  A    between atoms: C_12  and  C_15
REMARK    2  A    between atoms: C_15  and  C_16
REMARK    3  A    between atoms: C_19  and  O_22
REMARK    4  A    between atoms: N_25  and  C_28
REMARK                            x       y       z     vdW  Elec       q    Type
REMARK                         _______ _______ _______ _____ _____    ______ ____
ROOT
ATOM      1  C   UNL     1      -0.017   1.379   0.010  0.00  0.00    +0.000 A 
ATOM      2  C   UNL     1       1.173   2.084   0.002  0.00  0.00    +0.002 A 
ATOM      3  C   UNL     1       2.379   1.414  -0.012  0.00  0.00    +0.023 A 
ATOM      4  C   UNL     1       2.407   0.021  -0.019  0.00  0.00    +0.039 A 
ATOM      5  C   UNL     1       1.203  -0.677  -0.012  0.00  0.00    +0.003 A 
ATOM      6  C   UNL     1       0.002  -0.004   0.002  0.00  0.00    +0.008 A 
ATOM      7  C   UNL     1       1.573  -2.133  -0.023  0.00  0.00    +0.136 C 
ATOM      8  C   UNL     1       1.010  -2.865   1.202  0.00  0.00    +0.122 C 
ATOM      9  C   UNL     1      -0.285  -3.552   0.684  0.00  0.00    +0.107 C 
ATOM     10  C   UNL     1      -0.388  -3.139  -0.799  0.00  0.00    +0.072 C 
ATOM     11  N   UNL     1       1.016  -2.825  -1.200  0.00  0.00    -0.295 NA
ATOM     12  C   UNL     1       0.035  -5.025   0.787  0.00  0.00    +0.227 C 
ATOM     13  O   UNL     1      -0.709  -5.928   0.470  0.00  0.00    -0.275 OA
ATOM     14  N   UNL     1       1.269  -5.178   1.282  0.00  0.00    -0.238 N 
ATOM     15  C   UNL     1       1.914  -4.022   1.563  0.00  0.00    +0.228 C 
ATOM     16  O   UNL     1       3.030  -3.920   2.025  0.00  0.00    -0.275 OA
ATOM     17  C   UNL     1       3.077  -2.155  -0.034  0.00  0.00    +0.243 C 
ATOM     18  O   UNL     1       3.787  -3.138  -0.042  0.00  0.00    -0.273 OA
ATOM     19  N   UNL     1       3.482  -0.870  -0.034  0.00  0.00    -0.283 N 
ATOM     20  H   UNL     1       1.030  -2.226  -2.011  0.00  0.00    +0.124 HD
ATOM     21  H   UNL     1       4.413  -0.596  -0.042  0.00  0.00    +0.155 HD
ENDROOT
BRANCH  14  22
ATOM     22  C   UNL     1       1.875  -6.492   1.509  0.00  0.00    +0.084 C 
ATOM     23  C   UNL     1       2.015  -7.218   0.155  0.00  0.00    +0.023 C 
ATOM     24  C   UNL     1       3.059  -8.292   0.294  0.00  0.00    +0.002 C 
ATOM     25  C   UNL     1       2.451  -9.664   0.643  0.00  0.00    +0.000 C 
ATOM     26  C   UNL     1       1.326  -9.570   1.691  0.00  0.00    +0.000 C 
ATOM     27  C   UNL     1       1.653  -8.610   2.802  0.00  0.00    +0.002 C 
ATOM     28  C   UNL     1       1.052  -7.233   2.454  0.00  0.00    +0.023 C 
ENDBRANCH  14  22
BRANCH  10  29
ATOM     29  C   UNL     1      -0.920  -4.301  -1.639  0.00  0.00    +0.054 C 
BRANCH  29  30
ATOM     30  C   UNL     1      -1.129  -3.841  -3.059  0.00  0.00    -0.046 A 
ATOM     31  C   UNL     1      -2.345  -3.305  -3.439  0.00  0.00    +0.007 A 
ATOM     32  C   UNL     1      -2.539  -2.883  -4.740  0.00  0.00    +0.045 A 
ATOM     33  C   UNL     1      -1.511  -2.996  -5.665  0.00  0.00    +0.117 A 
ATOM     34  C   UNL     1      -0.291  -3.534  -5.281  0.00  0.00    +0.045 A 
ATOM     35  C   UNL     1      -0.101  -3.950  -3.978  0.00  0.00    +0.007 A 
BRANCH  33  36
ATOM     36  O   UNL     1      -1.700  -2.582  -6.946  0.00  0.00    -0.507 OA
ATOM     37  H   UNL     1      -1.468  -1.655  -7.098  0.00  0.00    +0.292 HD
ENDBRANCH  33  36
ENDBRANCH  29  30
ENDBRANCH  10  29
TORSDOF 4
