REMARK  Name = ZINC15221949
REMARK  2 active torsions:
REMARK  status: ('A' for Active; 'I' for Inactive)
REMARK    1  A    between atoms: C_14  and  N_18
REMARK    2  A    between atoms: C_15  and  C_16
REMARK                            x       y       z     vdW  Elec       q    Type
REMARK                         _______ _______ _______ _____ _____    ______ ____
ROOT
ATOM      1  C   UNL     1      -0.013   1.076   0.008  0.00  0.00    +0.000 A 
ATOM      2  C   UNL     1      -1.225   1.735   0.017  0.00  0.00    +0.002 A 
ATOM      3  C   UNL     1      -1.308   3.118   0.030  0.00  0.00    +0.023 A 
ATOM      4  C   UNL     1      -0.107   3.830   0.022  0.00  0.00    +0.038 A 
ATOM      5  C   UNL     1       1.117   3.149   0.009  0.00  0.00    -0.002 A 
ATOM      6  C   UNL     1       1.191   1.773   0.000  0.00  0.00    +0.007 A 
ATOM      7  C   UNL     1       2.179   4.201   0.010  0.00  0.00    +0.139 C 
ATOM      8  C   UNL     1       3.044   4.109  -1.218  0.00  0.00    +0.014 C 
ATOM      9  C   UNL     1       4.322   3.733  -1.184  0.00  0.00    +0.189 C 
ATOM     10  N   UNL     1       4.913   3.729  -2.434  0.00  0.00    -0.315 N 
ATOM     11  C   UNL     1       3.934   4.145  -3.447  0.00  0.00    +0.109 C 
ATOM     12  C   UNL     1       2.648   4.410  -2.640  0.00  0.00    +0.056 C 
ATOM     13  O   UNL     1       4.942   3.396  -0.015  0.00  0.00    -0.427 OA
ATOM     14  C   UNL     1       4.343   3.715   1.146  0.00  0.00    +0.201 C 
ATOM     15  C   UNL     1       3.047   4.101   1.234  0.00  0.00    +0.110 C 
ATOM     16  C   UNL     1       1.417   5.508   0.016  0.00  0.00    +0.237 C 
ATOM     17  O   UNL     1       1.895   6.622   0.014  0.00  0.00    -0.274 OA
ATOM     18  N   UNL     1       0.103   5.198   0.024  0.00  0.00    -0.284 N 
ATOM     19  H   UNL     1       5.835   3.488  -2.615  0.00  0.00    +0.149 HD
ATOM     20  H   UNL     1      -0.609   5.856   0.030  0.00  0.00    +0.155 HD
ENDROOT
BRANCH  14  21
ATOM     21  N   UNL     1       5.081   3.646   2.301  0.00  0.00    -0.328 N 
ATOM     22  H   UNL     1       4.673   3.870   3.152  0.00  0.00    +0.145 HD
ATOM     23  H   UNL     1       6.011   3.373   2.267  0.00  0.00    +0.145 HD
ENDBRANCH  14  21
BRANCH  15  24
ATOM     24  C   UNL     1       2.493   4.418   2.515  0.00  0.00    +0.102 C 
ATOM     25  N   UNL     1       2.054   4.670   3.532  0.00  0.00    -0.191 NA
ENDBRANCH  15  24
TORSDOF 2
