REMARK  Name = ZINC13612285
REMARK  11 active torsions:
REMARK  status: ('A' for Active; 'I' for Inactive)
REMARK    1  A    between atoms: C_1  and  C_2
REMARK    2  A    between atoms: C_5  and  S_8
REMARK    3  A    between atoms: S_8  and  N_11
REMARK    4  A    between atoms: N_11  and  C_12
REMARK    5  A    between atoms: N_11  and  C_20
REMARK    6  A    between atoms: C_12  and  C_13
REMARK    7  A    between atoms: N_15  and  C_16
REMARK    8  A    between atoms: C_16  and  C_17
REMARK    9  A    between atoms: C_17  and  N_51
REMARK   10  A    between atoms: C_18  and  N_51
REMARK   11  A    between atoms: C_19  and  N_51
REMARK                            x       y       z     vdW  Elec       q    Type
REMARK                         _______ _______ _______ _____ _____    ______ ____
ROOT
ATOM      1  N   UNL     1       1.110  -2.367   0.011  0.00  0.00    -0.194 N 
ENDROOT
BRANCH   1   2
ATOM      2  C   UNL     1       0.923  -1.008   0.272  0.00  0.00    +0.052 A 
ATOM      3  C   UNL     1      -0.362  -0.493   0.395  0.00  0.00    +0.026 A 
ATOM      4  C   UNL     1      -0.544   0.851   0.652  0.00  0.00    +0.017 A 
ATOM      5  C   UNL     1       0.551   1.686   0.786  0.00  0.00    +0.018 A 
ATOM      6  C   UNL     1       1.832   1.177   0.663  0.00  0.00    +0.017 A 
ATOM      7  C   UNL     1       2.020  -0.167   0.407  0.00  0.00    +0.026 A 
ATOM      8 BR   UNL     1       0.297   3.527   1.137  0.00  0.00    -0.050 Br
ENDBRANCH   1   2
BRANCH   1   9
ATOM      9  S   UNL     1       2.485  -2.882  -0.755  0.00  0.00    +0.075 S 
ATOM     10  O   UNL     1       2.161  -4.111  -1.390  0.00  0.00    -0.150 OA
ATOM     11  O   UNL     1       2.993  -1.765  -1.472  0.00  0.00    -0.150 OA
BRANCH   9  16
ATOM     12  C   UNL     1       6.538  -4.170   3.526  0.00  0.00    +0.044 C 
ATOM     13  C   UNL     1       5.526  -3.849   2.456  0.00  0.00    -0.050 A 
ATOM     14  C   UNL     1       4.574  -4.786   2.102  0.00  0.00    +0.005 A 
ATOM     15  C   UNL     1       3.645  -4.491   1.121  0.00  0.00    +0.029 A 
ATOM     16  C   UNL     1       3.669  -3.258   0.495  0.00  0.00    +0.109 A 
ATOM     17  C   UNL     1       4.624  -2.323   0.847  0.00  0.00    +0.029 A 
ATOM     18  C   UNL     1       5.550  -2.616   1.831  0.00  0.00    +0.005 A 
ENDBRANCH   9  16
ENDBRANCH   1   9
BRANCH   1  19
ATOM     19  C   UNL     1       0.091  -3.338   0.417  0.00  0.00    +0.227 C 
BRANCH  19  20
ATOM     20  C   UNL     1      -0.969  -3.428  -0.651  0.00  0.00    +0.232 C 
ATOM     21  O   UNL     1      -0.882  -2.748  -1.651  0.00  0.00    -0.274 OA
ATOM     22  N   UNL     1      -2.015  -4.264  -0.493  0.00  0.00    -0.316 N 
ATOM     23  H   UNL     1      -2.085  -4.808   0.307  0.00  0.00    +0.149 HD
BRANCH  22  24
ATOM     24  C   UNL     1      -3.045  -4.352  -1.531  0.00  0.00    +0.085 C 
BRANCH  24  25
ATOM     25  C   UNL     1      -4.110  -5.365  -1.108  0.00  0.00    -0.061 C 
BRANCH  25  28
ATOM     26  C   UNL     1      -6.052  -6.579  -1.894  0.00  0.00    -0.097 C 
ATOM     27  C   UNL     1      -5.887  -4.191  -2.259  0.00  0.00    -0.097 C 
ATOM     28  N   UNL     1      -5.131  -5.458  -2.173  0.00  0.00    +0.377 N 
ATOM     29  H   UNL     1      -4.661  -5.628  -3.070  0.00  0.00    -0.083 HD
ENDBRANCH  25  28
ENDBRANCH  24  25
ENDBRANCH  22  24
ENDBRANCH  19  20
ENDBRANCH   1  19
TORSDOF 8
