REMARK  Name = ZINC28932571
REMARK  9 active torsions:
REMARK  status: ('A' for Active; 'I' for Inactive)
REMARK    1  A    between atoms: C_1  and  C_2
REMARK    2  A    between atoms: C_5  and  C_8
REMARK    3  A    between atoms: C_8  and  C_10
REMARK    4  A    between atoms: C_15  and  C_16
REMARK    5  A    between atoms: C_16  and  O_18
REMARK    6  A    between atoms: O_18  and  C_19
REMARK    7  A    between atoms: C_19  and  C_20
REMARK    8  A    between atoms: C_22  and  O_23
REMARK    9  A    between atoms: C_32  and  C_34
REMARK                            x       y       z     vdW  Elec       q    Type
REMARK                         _______ _______ _______ _____ _____    ______ ____
ROOT
ATOM      1  O   UNL     1       0.292  -8.441   0.304  0.00  0.00    -0.456 OA
ENDROOT
BRANCH   1   2
ATOM      2  C   UNL     1       1.372  -9.230   0.457  0.00  0.00    +0.340 C 
ATOM      3  O   UNL     1       2.484  -8.742   0.473  0.00  0.00    -0.245 OA
BRANCH   2   9
ATOM      4  C   UNL     1       2.321 -11.511   0.860  0.00  0.00    +0.036 A 
ATOM      5  C   UNL     1       2.148 -12.886   1.002  0.00  0.00    +0.012 A 
ATOM      6  C   UNL     1       0.887 -13.439   0.883  0.00  0.00    +0.001 A 
ATOM      7  C   UNL     1      -0.210 -12.634   0.629  0.00  0.00    +0.001 A 
ATOM      8  C   UNL     1      -0.058 -11.267   0.490  0.00  0.00    +0.016 A 
ATOM      9  C   UNL     1       1.205 -10.692   0.606  0.00  0.00    +0.070 A 
BRANCH   4  10
ATOM     10  C   UNL     1       3.669 -10.915   0.980  0.00  0.00    +0.194 C 
ATOM     11  O   UNL     1       4.173 -10.767   2.076  0.00  0.00    -0.287 OA
BRANCH  10  16
ATOM     12  C   UNL     1       6.529  -9.293  -3.742  0.00  0.00    +0.044 C 
ATOM     13  C   UNL     1       5.780  -9.718  -2.506  0.00  0.00    -0.050 A 
ATOM     14  C   UNL     1       6.393  -9.638  -1.267  0.00  0.00    +0.004 A 
ATOM     15  C   UNL     1       5.714 -10.025  -0.131  0.00  0.00    +0.012 A 
ATOM     16  C   UNL     1       4.403 -10.498  -0.233  0.00  0.00    +0.022 A 
ATOM     17  C   UNL     1       3.792 -10.581  -1.486  0.00  0.00    +0.012 A 
ATOM     18  C   UNL     1       4.482 -10.186  -2.613  0.00  0.00    +0.004 A 
ENDBRANCH  10  16
ENDBRANCH   4  10
ENDBRANCH   2   9
ENDBRANCH   1   2
BRANCH   1  19
ATOM     19  C   UNL     1       0.532  -7.016   0.163  0.00  0.00    +0.269 C 
BRANCH  19  20
ATOM     20  C   UNL     1      -0.784  -6.298   0.003  0.00  0.00    +0.007 A 
ATOM     21  C   UNL     1      -1.957  -6.983   0.005  0.00  0.00    +0.095 A 
ATOM     22  C   UNL     1      -3.175  -6.289  -0.146  0.00  0.00    +0.285 A 
ATOM     23  O   UNL     1      -3.213  -4.955  -0.293  0.00  0.00    -0.425 OA
ATOM     24  C   UNL     1      -2.083  -4.215  -0.303  0.00  0.00    +0.141 A 
ATOM     25  C   UNL     1      -0.832  -4.843  -0.158  0.00  0.00    +0.024 A 
ATOM     26  C   UNL     1       0.341  -4.080  -0.167  0.00  0.00    +0.014 A 
ATOM     27  C   UNL     1       0.269  -2.727  -0.324  0.00  0.00    +0.024 A 
ATOM     28  C   UNL     1      -0.968  -2.097  -0.463  0.00  0.00    +0.037 A 
ATOM     29  C   UNL     1      -2.140  -2.838  -0.455  0.00  0.00    +0.070 A 
ATOM     30  N   UNL     1      -1.026  -0.712  -0.616  0.00  0.00    -0.286 N 
ATOM     31  C   UNL     1      -2.044  -0.015  -0.071  0.00  0.00    +0.214 C 
ATOM     32  O   UNL     1      -2.954  -0.601   0.476  0.00  0.00    -0.276 OA
ATOM     33  C   UNL     1      -2.051   1.490  -0.143  0.00  0.00    +0.109 C 
ATOM     34  H   UNL     1      -0.241  -0.187  -1.181  0.00  0.00    +0.155 HD
BRANCH  22  35
ATOM     35  O   UNL     1      -4.219  -6.915  -0.143  0.00  0.00    -0.480 OA
ATOM     36  H   UNL     1      -5.177  -6.388  -0.260  0.00  0.00    +0.295 HD
ENDBRANCH  22  35
ENDBRANCH  19  20
ENDBRANCH   1  19
TORSDOF 7
