REMARK  Name = ZINC00391119
REMARK  2 active torsions:
REMARK  status: ('A' for Active; 'I' for Inactive)
REMARK    1  A    between atoms: C_2  and  C_11
REMARK    2  A    between atoms: C_4  and  C_9
REMARK                            x       y       z     vdW  Elec       q    Type
REMARK                         _______ _______ _______ _____ _____    ______ ____
ROOT
ATOM      1  C   UNL     1       1.440   2.761  -1.321  0.00  0.00    +0.139 C 
ATOM      2  C   UNL     1       1.280   1.975   0.000  0.00  0.00    +0.164 C 
ATOM      3  C   UNL     1       2.487   1.014  -0.016  0.00  0.00    +0.303 C 
ATOM      4  O   UNL     1       3.196   1.267  -1.263  0.00  0.00    -0.449 OA
ATOM      5  C   UNL     1       2.878   2.491  -1.723  0.00  0.00    +0.309 C 
ATOM      6  O   UNL     1       3.602   3.235  -2.341  0.00  0.00    -0.251 OA
ENDROOT
BRANCH   3   7
ATOM      7  C   UNL     1       3.389   1.296   1.158  0.00  0.00    +0.397 C 
ATOM      8  O   UNL     1       4.510   1.707   0.974  0.00  0.00    -0.242 OA
ATOM      9  O   UNL     1       2.947   1.090   2.408  0.00  0.00    -0.242 OA
ENDBRANCH   3   7
BRANCH   2  10
ATOM     10  C   UNL     1      -0.014   1.204   0.009  0.00  0.00    +0.364 C 
ATOM     11  O   UNL     1       0.002  -0.004   0.002  0.00  0.00    -0.246 OA
ATOM     12  O   UNL     1      -1.186   1.859   0.018  0.00  0.00    -0.246 OA
ENDBRANCH   2  10
TORSDOF 2
