REMARK  Name = ZINC49979919
REMARK  5 active torsions:
REMARK  status: ('A' for Active; 'I' for Inactive)
REMARK    1  A    between atoms: C_1  and  C_2
REMARK    2  A    between atoms: C_6  and  N_8
REMARK    3  A    between atoms: N_8  and  C_9
REMARK    4  A    between atoms: N_8  and  C_10
REMARK    5  A    between atoms: C_15  and  N_16
REMARK                            x       y       z     vdW  Elec       q    Type
REMARK                         _______ _______ _______ _____ _____    ______ ____
ROOT
ATOM      1  C   UNL     1       0.068  -4.199   2.379  0.00  0.00    +0.057 A 
ATOM      2  C   UNL     1       1.278  -4.877   2.375  0.00  0.00    +0.052 A 
ATOM      3  C   UNL     1       1.293  -6.263   2.364  0.00  0.00    +0.078 A 
ATOM      4  C   UNL     1       0.095  -6.975   2.357  0.00  0.00    +0.144 A 
ATOM      5  C   UNL     1      -1.113  -6.299   2.362  0.00  0.00    +0.072 A 
ATOM      6  C   UNL     1      -1.130  -4.912   2.379  0.00  0.00    +0.050 A 
ATOM      7  O   UNL     1       0.126  -8.335   2.344  0.00  0.00    -0.481 OA
ATOM      8  C   UNL     1       1.213  -8.947   1.645  0.00  0.00    +0.325 C 
ATOM      9  C   UNL     1       2.506  -8.276   2.033  0.00  0.00    +0.255 C 
ATOM     10  O   UNL     1       3.540  -8.911   2.051  0.00  0.00    -0.272 OA
ATOM     11  N   UNL     1       2.509  -6.965   2.360  0.00  0.00    -0.280 N 
ATOM     12  H   UNL     1       3.338  -6.516   2.588  0.00  0.00    +0.155 HD
ENDROOT
BRANCH   6  13
ATOM     13  N   UNL     1      -2.353  -4.226   2.391  0.00  0.00    -0.356 N 
ATOM     14  H   UNL     1      -2.365  -3.256   2.399  0.00  0.00    +0.142 HD
ATOM     15  H   UNL     1      -3.187  -4.722   2.391  0.00  0.00    +0.142 HD
ENDBRANCH   6  13
BRANCH   1  16
ATOM     16  N   UNL     1       0.050  -2.797   2.390  0.00  0.00    -0.302 N 
ATOM     17  C   UNL     1       0.046  -2.074   3.664  0.00  0.00    +0.135 C 
BRANCH  16  23
ATOM     18  C   UNL     1      -0.018   1.503   0.010  0.00  0.00    +0.044 C 
ATOM     19  C   UNL     1       0.002  -0.004   0.002  0.00  0.00    -0.049 A 
ATOM     20  C   UNL     1       0.006  -0.688  -1.200  0.00  0.00    +0.003 A 
ATOM     21  C   UNL     1       0.024  -2.071  -1.212  0.00  0.00    +0.002 A 
ATOM     22  C   UNL     1       0.039  -2.773  -0.024  0.00  0.00    +0.023 A 
ATOM     23  C   UNL     1       0.035  -2.090   1.186  0.00  0.00    +0.034 A 
ATOM     24  C   UNL     1       0.023  -0.700   1.194  0.00  0.00    +0.026 A 
ENDBRANCH  16  23
ENDBRANCH   1  16
TORSDOF 3
