REMARK  Name = ZINC17058851
REMARK  10 active torsions:
REMARK  status: ('A' for Active; 'I' for Inactive)
REMARK    1  A    between atoms: C_1  and  C_2
REMARK    2  A    between atoms: C_2  and  C_3
REMARK    3  A    between atoms: C_3  and  C_5
REMARK    4  A    between atoms: C_3  and  C_6
REMARK    5  A    between atoms: C_9  and  N_12
REMARK    6  A    between atoms: C_16  and  C_17
REMARK    7  A    between atoms: N_21  and  C_22
REMARK    8  A    between atoms: C_22  and  C_23
REMARK    9  A    between atoms: C_23  and  O_24
REMARK   10  A    between atoms: O_24  and  C_25
REMARK                            x       y       z     vdW  Elec       q    Type
REMARK                         _______ _______ _______ _____ _____    ______ ____
ROOT
ATOM      1  N   UNL     1      -0.813  -6.308  -1.206  0.00  0.00    -0.188 N 
ATOM      2  C   UNL     1      -1.761  -6.932  -1.938  0.00  0.00    +0.264 C 
ATOM      3  O   UNL     1      -2.593  -6.298  -2.561  0.00  0.00    -0.269 OA
ATOM      4  C   UNL     1      -1.755  -8.405  -1.961  0.00  0.00    +0.103 C 
ATOM      5  C   UNL     1      -2.701  -9.120  -2.694  0.00  0.00    +0.044 C 
ATOM      6  C   UNL     1      -0.748  -9.070  -1.206  0.00  0.00    +0.276 C 
ATOM      7  O   UNL     1      -0.688 -10.418  -1.185  0.00  0.00    -0.268 OA
ATOM      8  N   UNL     1       0.128  -8.349  -0.527  0.00  0.00    -0.123 NA
ATOM      9  C   UNL     1       0.103  -7.019  -0.529  0.00  0.00    +0.340 C 
ATOM     10  O   UNL     1       0.946  -6.420   0.116  0.00  0.00    -0.250 OA
ENDROOT
BRANCH   1  14
ATOM     11  C   UNL     1      -0.719  -2.143  -1.060  0.00  0.00    -0.044 A 
ATOM     12  C   UNL     1      -1.470  -2.849  -0.139  0.00  0.00    +0.006 A 
ATOM     13  C   UNL     1      -1.503  -4.229  -0.184  0.00  0.00    +0.024 A 
ATOM     14  C   UNL     1      -0.782  -4.908  -1.157  0.00  0.00    +0.046 A 
ATOM     15  C   UNL     1      -0.029  -4.196  -2.082  0.00  0.00    +0.024 A 
ATOM     16  C   UNL     1      -0.004  -2.816  -2.034  0.00  0.00    +0.006 A 
BRANCH  11  17
ATOM     17  C   UNL     1      -0.685  -0.638  -1.008  0.00  0.00    +0.016 C 
ATOM     18  C   UNL     1      -2.103  -0.089  -1.179  0.00  0.00    +0.012 C 
BRANCH  17  20
ATOM     19  C   UNL     1       0.027   1.335   0.349  0.00  0.00    +0.004 C 
ATOM     20  C   UNL     1      -0.124  -0.187   0.342  0.00  0.00    +0.004 C 
ENDBRANCH  17  20
ENDBRANCH  11  17
ENDBRANCH   1  14
BRANCH   5  21
ATOM     21  C   UNL     1      -2.753 -10.518  -2.596  0.00  0.00    +0.043 A 
ATOM     22  C   UNL     1      -2.586 -11.425  -3.639  0.00  0.00    +0.027 A 
ATOM     23  C   UNL     1      -2.716 -12.699  -3.092  0.00  0.00    +0.020 A 
ATOM     24  C   UNL     1      -2.954 -12.562  -1.761  0.00  0.00    +0.086 A 
ATOM     25  N   UNL     1      -2.973 -11.251  -1.447  0.00  0.00    -0.344 N 
BRANCH  25  26
ATOM     26  C   UNL     1      -3.195 -10.696  -0.110  0.00  0.00    +0.162 C 
BRANCH  26  27
ATOM     27  C   UNL     1      -4.659 -10.274   0.032  0.00  0.00    +0.250 C 
BRANCH  27  28
ATOM     28  O   UNL     1      -4.872  -9.722   1.332  0.00  0.00    -0.489 OA
BRANCH  28  29
ATOM     29  C   UNL     1      -6.129  -9.295   1.623  0.00  0.00    +0.139 A 
ATOM     30  C   UNL     1      -7.138  -9.410   0.678  0.00  0.00    +0.047 A 
ATOM     31  C   UNL     1      -8.415  -8.976   0.976  0.00  0.00    +0.004 A 
ATOM     32  C   UNL     1      -8.689  -8.426   2.214  0.00  0.00    +0.002 A 
ATOM     33  C   UNL     1      -7.686  -8.308   3.158  0.00  0.00    +0.023 A 
ATOM     34  C   UNL     1      -6.407  -8.747   2.868  0.00  0.00    +0.083 A 
ATOM     35 CL   UNL     1      -5.149  -8.606   4.056  0.00  0.00    -0.080 Cl
ENDBRANCH  28  29
ENDBRANCH  27  28
ENDBRANCH  26  27
ENDBRANCH  25  26
ENDBRANCH   5  21
TORSDOF 8
