REMARK  Name = ZINC20738769
REMARK  4 active torsions:
REMARK  status: ('A' for Active; 'I' for Inactive)
REMARK    1  A    between atoms: C_1  and  C_2
REMARK    2  A    between atoms: C_5  and  N_9
REMARK    3  A    between atoms: C_6  and  C_8
REMARK    4  A    between atoms: C_16  and  O_18
REMARK                            x       y       z     vdW  Elec       q    Type
REMARK                         _______ _______ _______ _____ _____    ______ ____
ROOT
ATOM      1  N   UNL     1       0.447  -4.130   0.216  0.00  0.00    -0.214 N 
ATOM      2  C   UNL     1       0.582  -5.001  -0.809  0.00  0.00    +0.164 A 
ATOM      3  C   UNL     1       0.768  -6.262  -0.252  0.00  0.00    +0.036 A 
ATOM      4  C   UNL     1       0.750  -6.124   1.123  0.00  0.00    +0.142 A 
ATOM      5  N   UNL     1       0.565  -4.856   1.413  0.00  0.00    -0.173 NA
ATOM      6  C   UNL     1       0.941  -7.479  -1.117  0.00  0.00    +0.112 C 
ATOM      7  C   UNL     1       1.566  -7.051  -2.444  0.00  0.00    +0.121 C 
ATOM      8  C   UNL     1       0.968  -5.767  -2.944  0.00  0.00    +0.191 C 
ATOM      9  N   UNL     1       0.541  -4.822  -2.160  0.00  0.00    -0.197 NA
ATOM     10  C   UNL     1      -0.360  -8.183  -1.333  0.00  0.00    -0.005 A 
ATOM     11  C   UNL     1      -1.539  -7.771  -1.914  0.00  0.00    +0.026 A 
ATOM     12  C   UNL     1      -2.580  -8.694  -1.955  0.00  0.00    +0.041 A 
ATOM     13  C   UNL     1      -2.433  -9.965  -1.436  0.00  0.00    +0.022 A 
ATOM     14  C   UNL     1      -1.250 -10.387  -0.850  0.00  0.00    +0.025 A 
ATOM     15  C   UNL     1      -0.198  -9.470  -0.803  0.00  0.00    +0.038 A 
ATOM     16  N   UNL     1       1.077  -9.621  -0.285  0.00  0.00    -0.284 N 
ATOM     17  C   UNL     1       1.816  -8.500  -0.427  0.00  0.00    +0.233 C 
ATOM     18  O   UNL     1       2.964  -8.342  -0.068  0.00  0.00    -0.274 OA
ATOM     19 CL   UNL     1      -4.093  -8.238  -2.673  0.00  0.00    -0.084 Cl
ATOM     20  H   UNL     1       1.401 -10.435   0.131  0.00  0.00    +0.155 HD
ENDROOT
BRANCH   1  25
ATOM     21  C   UNL     1      -0.420   1.460  -0.236  0.00  0.00    +0.044 C 
ATOM     22  C   UNL     1      -0.190  -0.025  -0.116  0.00  0.00    -0.050 A 
ATOM     23  C   UNL     1       0.795  -0.634  -0.873  0.00  0.00    +0.005 A 
ATOM     24  C   UNL     1       1.008  -1.994  -0.765  0.00  0.00    +0.028 A 
ATOM     25  C   UNL     1       0.233  -2.750   0.105  0.00  0.00    +0.071 A 
ATOM     26  C   UNL     1      -0.754  -2.135   0.863  0.00  0.00    -0.025 A 
ATOM     27  C   UNL     1      -0.960  -0.774   0.754  0.00  0.00    +0.008 A 
ATOM     28  C   UNL     1      -1.597  -2.952   1.808  0.00  0.00    +0.046 C 
ENDBRANCH   1  25
BRANCH   8  29
ATOM     29  O   UNL     1       0.870  -5.584  -4.276  0.00  0.00    -0.495 OA
ATOM     30  H   UNL     1       0.477  -4.738  -4.529  0.00  0.00    +0.293 HD
ENDBRANCH   8  29
TORSDOF 2
