REMARK  Name = ZINC18181623
REMARK  3 active torsions:
REMARK  status: ('A' for Active; 'I' for Inactive)
REMARK    1  A    between atoms: C_1  and  C_2
REMARK    2  A    between atoms: C_7  and  N_8
REMARK    3  A    between atoms: C_13  and  C_31
REMARK                            x       y       z     vdW  Elec       q    Type
REMARK                         _______ _______ _______ _____ _____    ______ ____
ROOT
ATOM      1  N   UNL     1       0.329  -0.048   2.574  0.00  0.00    -0.209 N 
ATOM      2  C   UNL     1      -0.871   0.292   3.134  0.00  0.00    +0.233 C 
ATOM      3  O   UNL     1      -1.958  -0.179   2.877  0.00  0.00    -0.274 OA
ATOM      4  C   UNL     1      -0.562   1.374   4.133  0.00  0.00    +0.125 C 
ATOM      5  C   UNL     1      -1.213   1.321   5.521  0.00  0.00    +0.163 C 
ATOM      6  O   UNL     1      -0.167   1.840   6.396  0.00  0.00    -0.348 OA
ATOM      7  C   UNL     1       1.129   1.561   5.790  0.00  0.00    +0.206 C 
ATOM      8  C   UNL     1       0.834   0.776   4.583  0.00  0.00    +0.138 C 
ATOM      9  C   UNL     1       1.401   0.386   3.316  0.00  0.00    +0.234 C 
ATOM     10  O   UNL     1       2.564   0.432   2.979  0.00  0.00    -0.274 OA
ATOM     11  C   UNL     1       1.996   0.847   6.797  0.00  0.00    +0.204 C 
ATOM     12  O   UNL     1       1.778  -0.239   7.290  0.00  0.00    -0.288 OA
ATOM     13  C   UNL     1       3.156   1.715   7.068  0.00  0.00    +0.031 A 
ATOM     14  C   UNL     1       4.254   1.530   7.911  0.00  0.00    +0.012 A 
ATOM     15  C   UNL     1       5.231   2.503   8.000  0.00  0.00    +0.001 A 
ATOM     16  C   UNL     1       5.131   3.666   7.256  0.00  0.00    +0.001 A 
ATOM     17  C   UNL     1       4.054   3.868   6.415  0.00  0.00    +0.012 A 
ATOM     18  C   UNL     1       3.055   2.897   6.310  0.00  0.00    +0.031 A 
ATOM     19  C   UNL     1       1.825   2.867   5.498  0.00  0.00    +0.204 C 
ATOM     20  O   UNL     1       1.443   3.732   4.739  0.00  0.00    -0.288 OA
ENDROOT
BRANCH   1  27
ATOM     21  C   UNL     1       0.469   1.414   0.137  0.00  0.00    +0.045 C 
ATOM     22  C   UNL     1       0.523  -0.092   0.166  0.00  0.00    -0.029 A 
ATOM     23  C   UNL     1       0.650  -0.801  -1.013  0.00  0.00    +0.006 A 
ATOM     24  C   UNL     1       0.701  -2.183  -0.988  0.00  0.00    +0.020 A 
ATOM     25  C   UNL     1       0.624  -2.859   0.218  0.00  0.00    +0.043 A 
ATOM     26  C   UNL     1       0.497  -2.153   1.400  0.00  0.00    +0.044 A 
ATOM     27  C   UNL     1       0.452  -0.766   1.377  0.00  0.00    +0.048 A 
ATOM     28 CL   UNL     1       0.687  -4.593   0.245  0.00  0.00    -0.083 Cl
ENDBRANCH   1  27
BRANCH   5  29
ATOM     29  C   UNL     1      -1.567  -0.096   5.890  0.00  0.00    -0.018 A 
ATOM     30  C   UNL     1      -0.863  -0.747   6.886  0.00  0.00    +0.006 A 
ATOM     31  C   UNL     1      -1.188  -2.048   7.224  0.00  0.00    +0.000 A 
ATOM     32  C   UNL     1      -2.217  -2.696   6.568  0.00  0.00    +0.000 A 
ATOM     33  C   UNL     1      -2.922  -2.045   5.574  0.00  0.00    +0.000 A 
ATOM     34  C   UNL     1      -2.600  -0.743   5.238  0.00  0.00    +0.006 A 
ENDBRANCH   5  29
TORSDOF 2
