REMARK  Name = ZINC43772806
REMARK  5 active torsions:
REMARK  status: ('A' for Active; 'I' for Inactive)
REMARK    1  A    between atoms: C_1  and  C_2
REMARK    2  A    between atoms: C_5  and  O_32
REMARK    3  A    between atoms: C_18  and  C_31
REMARK    4  A    between atoms: C_19  and  O_30
REMARK    5  A    between atoms: C_22  and  C_24
REMARK                            x       y       z     vdW  Elec       q    Type
REMARK                         _______ _______ _______ _____ _____    ______ ____
ROOT
ATOM      1  C   UNL     1       0.076   1.266   0.281  0.00  0.00    +0.012 C 
ATOM      2  C   UNL     1       0.020  -0.262   0.341  0.00  0.00    -0.026 C 
ATOM      3  C   UNL     1       0.826  -0.850  -0.819  0.00  0.00    +0.010 C 
ATOM      4  C   UNL     1       0.763  -2.377  -0.760  0.00  0.00    +0.032 C 
ATOM      5  C   UNL     1       1.353  -2.861   0.566  0.00  0.00    +0.115 C 
ATOM      6  C   UNL     1       0.550  -2.271   1.727  0.00  0.00    +0.035 C 
ATOM      7  C   UNL     1       0.613  -0.743   1.668  0.00  0.00    -0.002 C 
ATOM      8  C   UNL     1      -0.189  -0.152   2.829  0.00  0.00    +0.004 C 
ATOM      9  C   UNL     1      -1.647  -0.605   2.726  0.00  0.00    +0.007 C 
ATOM     10  C   UNL     1      -2.239  -0.120   1.401  0.00  0.00    +0.025 C 
ATOM     11  C   UNL     1      -1.434  -0.725   0.240  0.00  0.00    +0.001 C 
ATOM     12  C   UNL     1      -2.016  -0.326  -1.112  0.00  0.00    +0.005 C 
ATOM     13  C   UNL     1      -3.506  -0.693  -1.211  0.00  0.00    +0.010 C 
ATOM     14  C   UNL     1      -4.218   0.001  -0.067  0.00  0.00    +0.004 C 
ATOM     15  C   UNL     1      -3.678  -0.579   1.267  0.00  0.00    +0.075 C 
ATOM     16  C   UNL     1      -4.661  -0.008   2.295  0.00  0.00    +0.036 C 
ATOM     17  C   UNL     1      -6.032  -0.147   1.579  0.00  0.00    +0.011 C 
ATOM     18  C   UNL     1      -5.722  -0.228   0.040  0.00  0.00    +0.027 C 
ATOM     19  C   UNL     1      -3.926   1.502  -0.111  0.00  0.00    +0.014 C 
ENDROOT
BRANCH  18  20
ATOM     20  C   UNL     1      -6.470   0.876  -0.662  0.00  0.00    -0.022 C 
ATOM     21  C   UNL     1      -7.100   1.898  -0.086  0.00  0.00    +0.094 C 
ATOM     22  C   UNL     1      -7.695   2.740  -1.128  0.00  0.00    +0.332 C 
ATOM     23  O   UNL     1      -8.337   3.752  -0.927  0.00  0.00    -0.246 OA
ATOM     24  O   UNL     1      -7.424   2.224  -2.341  0.00  0.00    -0.457 OA
ATOM     25  C   UNL     1      -6.644   1.039  -2.153  0.00  0.00    +0.264 C 
ENDBRANCH  18  20
BRANCH  15  26
ATOM     26  O   UNL     1      -3.744  -2.006   1.233  0.00  0.00    -0.388 OA
ATOM     27  H   UNL     1      -3.379  -2.436   2.019  0.00  0.00    +0.210 HD
ENDBRANCH  15  26
BRANCH   5  28
ATOM     28  O   UNL     1       2.714  -2.438   0.664  0.00  0.00    -0.392 OA
ATOM     29  H   UNL     1       3.283  -2.775  -0.041  0.00  0.00    +0.210 HD
ENDBRANCH   5  28
TORSDOF 3
