REMARK  Name = ZINC12034737
REMARK  9 active torsions:
REMARK  status: ('A' for Active; 'I' for Inactive)
REMARK    1  A    between atoms: C_1  and  C_2
REMARK    2  A    between atoms: C_3  and  C_4
REMARK    3  A    between atoms: C_4  and  N_5
REMARK    4  A    between atoms: C_8  and  C_12
REMARK    5  A    between atoms: C_8  and  C_20
REMARK    6  A    between atoms: C_12  and  C_13
REMARK    7  A    between atoms: C_13  and  C_14
REMARK    8  A    between atoms: C_25  and  C_26
REMARK    9  A    between atoms: C_25  and  N_67
REMARK                            x       y       z     vdW  Elec       q    Type
REMARK                         _______ _______ _______ _____ _____    ______ ____
ROOT
ATOM      1  N   UNL     1      -4.314   7.561   5.769  0.00  0.00    -0.212 N 
ATOM      2  C   UNL     1      -3.153   6.914   5.522  0.00  0.00    +0.248 C 
ATOM      3  O   UNL     1      -2.981   5.716   5.447  0.00  0.00    -0.273 OA
ATOM      4  C   UNL     1      -2.110   8.001   5.358  0.00  0.00    +0.115 C 
ATOM      5  N   UNL     1      -2.870   9.248   5.551  0.00  0.00    -0.285 N 
ATOM      6  C   UNL     1      -4.146   8.888   5.785  0.00  0.00    +0.310 C 
ATOM      7  O   UNL     1      -5.045   9.681   5.988  0.00  0.00    -0.252 OA
ATOM      8  H   UNL     1      -2.520  10.152   5.517  0.00  0.00    +0.151 HD
ENDROOT
BRANCH   4   9
ATOM      9  C   UNL     1      -1.500   7.954   3.956  0.00  0.00    +0.018 C 
ATOM     10  C   UNL     1      -2.619   7.966   2.910  0.00  0.00    -0.013 C 
ATOM     11  C   UNL     1      -2.005   7.858   1.513  0.00  0.00    -0.078 C 
ATOM     12  C   UNL     1      -0.121   6.601   2.374  0.00  0.00    -0.078 C 
ATOM     13  C   UNL     1      -0.678   6.672   3.798  0.00  0.00    -0.013 C 
ATOM     14  N   UNL     1      -1.248   6.591   1.418  0.00  0.00    +0.382 N 
ATOM     15  H   UNL     1      -1.874   5.811   1.649  0.00  0.00    -0.081 HD
BRANCH  14  16
ATOM     16  C   UNL     1      -0.741   6.409   0.042  0.00  0.00    -0.041 C 
BRANCH  16  17
ATOM     17  C   UNL     1       0.245   5.269   0.027  0.00  0.00    -0.039 A 
ATOM     18  C   UNL     1       1.583   5.371   0.015  0.00  0.00    +0.085 A 
ATOM     19  N   UNL     1       2.147   4.124   0.003  0.00  0.00    -0.360 N 
ATOM     20  H   UNL     1       3.099   3.943  -0.007  0.00  0.00    +0.165 HD
ATOM     21  C   UNL     1       1.159   3.165   0.007  0.00  0.00    +0.047 A 
ATOM     22  C   UNL     1      -0.075   3.840   0.022  0.00  0.00    +0.001 A 
ATOM     23  C   UNL     1      -1.267   3.112   0.030  0.00  0.00    +0.010 A 
ATOM     24  C   UNL     1      -1.228   1.746   0.017  0.00  0.00    +0.001 A 
ATOM     25  C   UNL     1      -0.013   1.076   0.008  0.00  0.00    +0.002 A 
ATOM     26  C   UNL     1       1.175   1.774   0.000  0.00  0.00    +0.026 A 
ENDBRANCH  16  17
ENDBRANCH  14  16
ENDBRANCH   4   9
BRANCH   1  27
ATOM     27  C   UNL     1      -5.597   6.891   5.992  0.00  0.00    +0.206 C 
BRANCH  27  30
ATOM     28  C   UNL     1      -7.536   6.404   2.392  0.00  0.00    +0.106 C 
ATOM     29  C   UNL     1      -6.843   6.578   3.679  0.00  0.00    -0.104 C 
ATOM     30  C   UNL     1      -6.290   6.717   4.705  0.00  0.00    -0.083 C 
ENDBRANCH  27  30
ENDBRANCH   1  27
BRANCH   4  31
ATOM     31  C   UNL     1      -1.019   7.866   6.423  0.00  0.00    +0.040 C 
BRANCH  31  32
ATOM     32  C   UNL     1      -1.655   7.916   7.813  0.00  0.00    +0.038 C 
BRANCH  32  33
ATOM     33  C   UNL     1      -0.581   7.782   8.862  0.00  0.00    -0.047 A 
ATOM     34  C   UNL     1      -0.223   6.532   9.329  0.00  0.00    +0.003 A 
ATOM     35  C   UNL     1       0.766   6.409  10.288  0.00  0.00    +0.000 A 
ATOM     36  C   UNL     1       1.390   7.538  10.786  0.00  0.00    +0.000 A 
ATOM     37  C   UNL     1       1.028   8.789  10.322  0.00  0.00    +0.000 A 
ATOM     38  C   UNL     1       0.043   8.911   9.360  0.00  0.00    +0.003 A 
ENDBRANCH  32  33
ENDBRANCH  31  32
ENDBRANCH   4  31
TORSDOF 8
