REMARK  Name = ZINC65074797
REMARK  3 active torsions:
REMARK  status: ('A' for Active; 'I' for Inactive)
REMARK    1  A    between atoms: C_6  and  S_7
REMARK    2  A    between atoms: S_7  and  N_10
REMARK    3  A    between atoms: N_21  and  C_22
REMARK                            x       y       z     vdW  Elec       q    Type
REMARK                         _______ _______ _______ _____ _____    ______ ____
ROOT
ATOM      1  N   UNL     1      -1.942  -1.152  -1.571  0.00  0.00    -0.176 NA
ATOM      2  C   UNL     1      -2.782  -0.174  -2.277  0.00  0.00    +0.111 C 
ATOM      3  C   UNL     1      -2.076   0.238  -3.572  0.00  0.00    +0.047 C 
ATOM      4  C   UNL     1      -1.749  -1.014  -4.391  0.00  0.00    +0.075 C 
ATOM      5  C   UNL     1      -0.802  -1.912  -3.590  0.00  0.00    +0.047 C 
ATOM      6  C   UNL     1      -1.489  -2.346  -2.297  0.00  0.00    +0.111 C 
ATOM      7  C   UNL     1      -1.089  -0.612  -5.680  0.00  0.00    +0.089 C 
ATOM      8  N   UNL     1      -1.383  -1.124  -6.815  0.00  0.00    -0.374 N 
ATOM      9  C   UNL     1      -2.400  -2.154  -7.002  0.00  0.00    +0.129 C 
ATOM     10  C   UNL     1      -2.735  -2.809  -5.660  0.00  0.00    +0.102 C 
ATOM     11  N   UNL     1      -2.991  -1.747  -4.673  0.00  0.00    -0.303 NA
ATOM     12  N   UNL     1      -0.120   0.356  -5.638  0.00  0.00    -0.330 N 
ATOM     13  H   UNL     1      -3.386  -2.128  -3.826  0.00  0.00    +0.123 HD
ATOM     14  H   UNL     1       0.123   0.762  -4.791  0.00  0.00    +0.147 HD
ATOM     15  H   UNL     1      -0.902  -0.810  -7.597  0.00  0.00    +0.161 HD
ENDROOT
BRANCH  12  16
ATOM     16  C   UNL     1       0.549   0.777  -6.871  0.00  0.00    +0.071 C 
ATOM     17  C   UNL     1       1.714  -0.169  -7.169  0.00  0.00    +0.022 C 
ATOM     18  C   UNL     1       2.412   0.271  -8.457  0.00  0.00    +0.002 C 
ATOM     19  C   UNL     1       2.943   1.696  -8.287  0.00  0.00    +0.000 C 
ATOM     20  C   UNL     1       1.778   2.642  -7.990  0.00  0.00    +0.002 C 
ATOM     21  C   UNL     1       1.080   2.202  -6.702  0.00  0.00    +0.022 C 
ENDBRANCH  12  16
BRANCH   1  22
ATOM     22  S   UNL     1      -1.510  -0.909   0.009  0.00  0.00    +0.061 S 
ATOM     23  O   UNL     1      -1.215  -2.189   0.550  0.00  0.00    -0.153 OA
ATOM     24  O   UNL     1      -2.494  -0.051   0.572  0.00  0.00    -0.153 OA
BRANCH  22  30
ATOM     25  C   UNL     1      -0.017   1.378   0.010  0.00  0.00    +0.029 A 
ATOM     26  C   UNL     1       1.171   2.079   0.002  0.00  0.00    +0.006 A 
ATOM     27  C   UNL     1       2.387   1.408  -0.012  0.00  0.00    -0.044 A 
ATOM     28  C   UNL     1       2.406   0.031  -0.014  0.00  0.00    -0.042 A 
ATOM     29  C   UNL     1       1.209  -0.673  -0.010  0.00  0.00    +0.032 A 
ATOM     30  C   UNL     1       0.002  -0.004   0.002  0.00  0.00    +0.106 A 
ATOM     31  C   UNL     1       3.686  -0.762  -0.012  0.00  0.00    +0.035 C 
ATOM     32  C   UNL     1       4.861   0.113  -0.446  0.00  0.00    +0.005 C 
ATOM     33  C   UNL     1       4.847   1.394   0.396  0.00  0.00    +0.005 C 
ATOM     34  C   UNL     1       3.645   2.236  -0.027  0.00  0.00    +0.035 C 
ENDBRANCH  22  30
ENDBRANCH   1  22
TORSDOF 3
