REMARK  Name = ZINC41108319
REMARK  8 active torsions:
REMARK  status: ('A' for Active; 'I' for Inactive)
REMARK    1  A    between atoms: C_1  and  C_2
REMARK    2  A    between atoms: C_5  and  C_34
REMARK    3  A    between atoms: C_6  and  N_8
REMARK    4  A    between atoms: C_12  and  C_13
REMARK    5  A    between atoms: C_23  and  C_25
REMARK    6  A    between atoms: C_25  and  O_26
REMARK    7  A    between atoms: O_26  and  C_27
REMARK    8  A    between atoms: C_32  and  C_33
REMARK                            x       y       z     vdW  Elec       q    Type
REMARK                         _______ _______ _______ _____ _____    ______ ____
ROOT
ATOM      1  C   UNL     1       2.256  -4.064   2.208  0.00  0.00    +0.042 C 
ATOM      2  C   UNL     1       2.614  -3.449   1.020  0.00  0.00    +0.082 C 
ATOM      3  C   UNL     1       3.804  -3.885   0.240  0.00  0.00    +0.153 C 
ATOM      4  N   UNL     1       4.213  -5.126   0.189  0.00  0.00    -0.283 NA
ATOM      5  N   UNL     1       4.446  -2.829  -0.440  0.00  0.00    -0.152 N 
ATOM      6  C   UNL     1       3.696  -1.708  -0.726  0.00  0.00    +0.181 C 
ATOM      7  N   UNL     1       2.466  -1.456  -0.357  0.00  0.00    -0.152 NA
ATOM      8  C   UNL     1       1.829  -2.327   0.455  0.00  0.00    +0.273 C 
ATOM      9  O   UNL     1       0.645  -2.193   0.719  0.00  0.00    -0.268 OA
ATOM     10  S   UNL     1       4.833  -0.733  -1.676  0.00  0.00    -0.035 S 
ATOM     11  C   UNL     1       6.244  -1.824  -1.544  0.00  0.00    +0.137 C 
ATOM     12  N   UNL     1       5.760  -2.819  -0.858  0.00  0.00    -0.166 NA
ATOM     13  H   UNL     1       4.996  -5.358  -0.335  0.00  0.00    +0.188 HD
ENDROOT
BRANCH   1  18
ATOM     14  N   UNL     1      -0.157  -3.722   2.714  0.00  0.00    -0.316 N 
ATOM     15  C   UNL     1      -0.865  -3.083   3.680  0.00  0.00    +0.092 A 
ATOM     16  C   UNL     1      -0.001  -2.502   4.550  0.00  0.00    +0.020 A 
ATOM     17  C   UNL     1       1.297  -2.781   4.121  0.00  0.00    +0.027 A 
ATOM     18  C   UNL     1       1.190  -3.552   2.971  0.00  0.00    +0.047 A 
BRANCH  14  24
ATOM     19  C   UNL     1      -2.749  -3.768  -1.464  0.00  0.00    +0.044 C 
ATOM     20  C   UNL     1      -1.961  -4.486  -0.399  0.00  0.00    -0.048 A 
ATOM     21  C   UNL     1      -1.773  -5.853  -0.482  0.00  0.00    +0.004 A 
ATOM     22  C   UNL     1      -1.051  -6.515   0.493  0.00  0.00    +0.005 A 
ATOM     23  C   UNL     1      -0.513  -5.812   1.554  0.00  0.00    -0.027 A 
ATOM     24  C   UNL     1      -0.700  -4.439   1.639  0.00  0.00    +0.050 A 
ATOM     25  C   UNL     1      -1.421  -3.776   0.655  0.00  0.00    +0.029 A 
ATOM     26  C   UNL     1       0.274  -6.534   2.617  0.00  0.00    +0.046 C 
ENDBRANCH  14  24
ENDBRANCH   1  18
BRANCH  11  27
ATOM     27  C   UNL     1       7.637  -1.639  -2.088  0.00  0.00    +0.293 C 
BRANCH  27  28
ATOM     28  O   UNL     1       8.438  -2.770  -1.741  0.00  0.00    -0.485 OA
BRANCH  28  29
ATOM     29  C   UNL     1       9.731  -2.761  -2.159  0.00  0.00    +0.124 A 
ATOM     30  C   UNL     1      10.220  -1.684  -2.884  0.00  0.00    +0.046 A 
ATOM     31  C   UNL     1      11.535  -1.678  -3.307  0.00  0.00    +0.004 A 
ATOM     32  C   UNL     1      12.364  -2.744  -3.009  0.00  0.00    +0.000 A 
ATOM     33  C   UNL     1      11.878  -3.819  -2.287  0.00  0.00    +0.007 A 
ATOM     34  C   UNL     1      10.566  -3.828  -1.857  0.00  0.00    -0.009 A 
ATOM     35  C   UNL     1      10.039  -4.996  -1.064  0.00  0.00    +0.047 C 
ENDBRANCH  28  29
ENDBRANCH  27  28
ENDBRANCH  11  27
TORSDOF 5
