REMARK  Name = ZINC09155643
REMARK  4 active torsions:
REMARK  status: ('A' for Active; 'I' for Inactive)
REMARK    1  A    between atoms: C_3  and  N_9
REMARK    2  A    between atoms: N_9  and  S_10
REMARK    3  A    between atoms: S_10  and  C_13
REMARK    4  A    between atoms: C_18  and  N_19
REMARK                            x       y       z     vdW  Elec       q    Type
REMARK                         _______ _______ _______ _____ _____    ______ ____
ROOT
ATOM      1  S   UNL     1      -2.810   0.891   0.101  0.00  0.00    +0.094 S 
ATOM      2  O   UNL     1      -3.639   1.246  -0.998  0.00  0.00    -0.148 OA
ATOM      3  O   UNL     1      -2.195  -0.385   0.209  0.00  0.00    -0.148 OA
ENDROOT
BRANCH   1   4
ATOM      4  C   UNL     1      -1.512   2.082   0.157  0.00  0.00    +0.141 A 
ATOM      5  C   UNL     1      -1.431   3.062  -0.815  0.00  0.00    +0.034 A 
ATOM      6  C   UNL     1      -0.417   4.000  -0.768  0.00  0.00    +0.040 A 
ATOM      7  C   UNL     1       0.521   3.954   0.249  0.00  0.00    +0.126 A 
ATOM      8  C   UNL     1       0.442   2.969   1.219  0.00  0.00    +0.073 A 
ATOM      9  C   UNL     1      -0.573   2.032   1.170  0.00  0.00    +0.155 A 
ATOM     10  F   UNL     1       1.513   4.870   0.295  0.00  0.00    -0.205 F 
BRANCH   9  11
ATOM     11  N   UNL     1      -0.658   0.979   2.207  0.00  0.00    +0.058 N 
ATOM     12  O   UNL     1       0.228   0.867   3.035  0.00  0.00    -0.126 OA
ATOM     13  O   UNL     1      -1.614   0.224   2.231  0.00  0.00    -0.126 OA
ENDBRANCH   9  11
ENDBRANCH   1   4
BRANCH   1  14
ATOM     14  N   UNL     1      -3.722   1.095   1.468  0.00  0.00    -0.096 NA
BRANCH  14  17
ATOM     15  C   UNL     1      -5.487   4.270   0.898  0.00  0.00    +0.040 A 
ATOM     16  C   UNL     1      -4.864   3.061   0.655  0.00  0.00    +0.031 A 
ATOM     17  C   UNL     1      -4.352   2.320   1.711  0.00  0.00    +0.093 A 
ATOM     18  C   UNL     1      -4.473   2.795   3.012  0.00  0.00    +0.068 A 
ATOM     19  C   UNL     1      -5.092   4.007   3.250  0.00  0.00    +0.060 A 
ATOM     20  C   UNL     1      -5.601   4.744   2.194  0.00  0.00    +0.125 A 
ATOM     21  F   UNL     1      -6.211   5.926   2.429  0.00  0.00    -0.205 F 
ATOM     22 CL   UNL     1      -3.840   1.868   4.337  0.00  0.00    -0.081 Cl
ENDBRANCH  14  17
ENDBRANCH   1  14
TORSDOF 4
