REMARK  Name = ZINC01808743
REMARK  13 active torsions:
REMARK  status: ('A' for Active; 'I' for Inactive)
REMARK    1  A    between atoms: C_1  and  C_2
REMARK    2  A    between atoms: C_6  and  N_8
REMARK    3  A    between atoms: N_8  and  C_9
REMARK    4  A    between atoms: N_8  and  S_28
REMARK    5  A    between atoms: C_9  and  C_10
REMARK    6  A    between atoms: C_10  and  C_12
REMARK    7  A    between atoms: C_10  and  O_27
REMARK    8  A    between atoms: C_12  and  N_68
REMARK    9  A    between atoms: C_13  and  C_14
REMARK   10  A    between atoms: C_13  and  N_68
REMARK   11  A    between atoms: C_20  and  C_21
REMARK   12  A    between atoms: C_20  and  N_68
REMARK   13  A    between atoms: S_28  and  C_31
REMARK                            x       y       z     vdW  Elec       q    Type
REMARK                         _______ _______ _______ _____ _____    ______ ____
ROOT
ATOM      1  C   UNL     1       6.502  -0.804  -2.812  0.00  0.00    +0.117 C 
ENDROOT
BRANCH   1   2
ATOM      2  O   UNL     1       6.577  -1.931  -3.686  0.00  0.00    -0.392 OA
ATOM      3  H   UNL     1       6.488  -1.709  -4.623  0.00  0.00    +0.210 HD
ENDBRANCH   1   2
BRANCH   1   4
ATOM      4  C   UNL     1       5.104  -0.187  -2.893  0.00  0.00    +0.161 C 
BRANCH   4   5
ATOM      5  N   UNL     1       4.117  -1.145  -2.387  0.00  0.00    -0.201 N 
BRANCH   5  11
ATOM      6  C   UNL     1       3.484  -5.911  -3.404  0.00  0.00    +0.044 C 
ATOM      7  C   UNL     1       3.289  -4.457  -3.747  0.00  0.00    -0.049 A 
ATOM      8  C   UNL     1       2.607  -4.104  -4.897  0.00  0.00    +0.003 A 
ATOM      9  C   UNL     1       2.426  -2.771  -5.216  0.00  0.00    +0.002 A 
ATOM     10  C   UNL     1       2.922  -1.786  -4.383  0.00  0.00    +0.025 A 
ATOM     11  C   UNL     1       3.611  -2.137  -3.229  0.00  0.00    +0.052 A 
ATOM     12  C   UNL     1       3.791  -3.478  -2.912  0.00  0.00    +0.028 A 
ENDBRANCH   5  11
BRANCH   5  13
ATOM     13  S   UNL     1       3.603  -1.050  -0.816  0.00  0.00    +0.075 S 
ATOM     14  O   UNL     1       4.575  -0.286  -0.115  0.00  0.00    -0.150 OA
ATOM     15  O   UNL     1       3.244  -2.369  -0.426  0.00  0.00    -0.150 OA
BRANCH  13  16
ATOM     16  C   UNL     1       2.117  -0.102  -0.810  0.00  0.00    +0.109 A 
ATOM     17  C   UNL     1       0.904  -0.717  -1.060  0.00  0.00    +0.029 A 
ATOM     18  C   UNL     1      -0.261   0.027  -1.055  0.00  0.00    +0.002 A 
ATOM     19  C   UNL     1      -0.213   1.385  -0.802  0.00  0.00    +0.000 A 
ATOM     20  C   UNL     1       1.000   2.000  -0.552  0.00  0.00    +0.002 A 
ATOM     21  C   UNL     1       2.165   1.256  -0.556  0.00  0.00    +0.029 A 
ENDBRANCH  13  16
ENDBRANCH   5  13
ENDBRANCH   4   5
ENDBRANCH   1   4
BRANCH   1  22
ATOM     22  C   UNL     1       7.543   0.236  -3.229  0.00  0.00    -0.045 C 
BRANCH  22  23
ATOM     23  N   UNL     1       8.885  -0.380  -3.166  0.00  0.00    +0.387 N 
ATOM     24  H   UNL     1       8.873  -1.260  -3.694  0.00  0.00    -0.081 HD
BRANCH  23  25
ATOM     25  C   UNL     1       9.886   0.526  -3.765  0.00  0.00    -0.042 C 
BRANCH  25  26
ATOM     26  C   UNL     1      11.146  -0.256  -4.037  0.00  0.00    -0.064 A 
ATOM     27  C   UNL     1      12.111  -0.374  -3.055  0.00  0.00    +0.002 A 
ATOM     28  C   UNL     1      13.264  -1.095  -3.303  0.00  0.00    +0.000 A 
ATOM     29  C   UNL     1      13.456  -1.690  -4.536  0.00  0.00    +0.000 A 
ATOM     30  C   UNL     1      12.493  -1.567  -5.520  0.00  0.00    +0.000 A 
ATOM     31  C   UNL     1      11.338  -0.850  -5.271  0.00  0.00    +0.002 A 
ENDBRANCH  25  26
ENDBRANCH  23  25
BRANCH  23  32
ATOM     32  C   UNL     1       9.242  -0.668  -1.761  0.00  0.00    -0.042 C 
BRANCH  32  33
ATOM     33  C   UNL     1       9.067   0.562  -0.908  0.00  0.00    -0.064 A 
ATOM     34  C   UNL     1      10.087   1.490  -0.815  0.00  0.00    +0.002 A 
ATOM     35  C   UNL     1       9.924   2.620  -0.037  0.00  0.00    +0.000 A 
ATOM     36  C   UNL     1       8.745   2.818   0.657  0.00  0.00    +0.000 A 
ATOM     37  C   UNL     1       7.727   1.887   0.569  0.00  0.00    +0.000 A 
ATOM     38  C   UNL     1       7.888   0.759  -0.214  0.00  0.00    +0.002 A 
ENDBRANCH  32  33
ENDBRANCH  23  32
ENDBRANCH  22  23
ENDBRANCH   1  22
TORSDOF 12
