REMARK  Name = ZINC32104146
REMARK  4 active torsions:
REMARK  status: ('A' for Active; 'I' for Inactive)
REMARK    1  A    between atoms: C_4  and  C_7
REMARK    2  A    between atoms: C_11  and  C_12
REMARK    3  A    between atoms: N_26  and  C_29
REMARK    4  A    between atoms: C_29  and  C_30
REMARK                            x       y       z     vdW  Elec       q    Type
REMARK                         _______ _______ _______ _____ _____    ______ ____
ROOT
ATOM      1  C   UNL     1       3.697  -0.686  -0.038  0.00  0.00    +0.025 A 
ATOM      2  C   UNL     1       4.091  -1.471  -1.120  0.00  0.00    +0.054 A 
ATOM      3  C   UNL     1       5.310  -2.092  -1.022  0.00  0.00    +0.032 A 
ATOM      4  S   UNL     1       5.934  -1.652   0.457  0.00  0.00    -0.083 S 
ATOM      5  C   UNL     1       4.601  -0.614   1.029  0.00  0.00    +0.110 A 
ATOM      6  C   UNL     1       5.895  -2.977  -2.075  0.00  0.00    +0.115 C 
ATOM      7  C   UNL     1       4.763  -3.634  -2.865  0.00  0.00    +0.122 C 
ATOM      8  C   UNL     1       3.671  -2.644  -3.155  0.00  0.00    +0.219 C 
ATOM      9  O   UNL     1       3.075  -2.733  -4.207  0.00  0.00    -0.275 OA
ATOM     10  N   UNL     1       3.322  -1.664  -2.303  0.00  0.00    -0.284 N 
ATOM     11  C   UNL     1       6.814  -2.223  -2.983  0.00  0.00    -0.006 A 
ATOM     12  C   UNL     1       6.596  -1.148  -3.818  0.00  0.00    +0.007 A 
ATOM     13  C   UNL     1       7.687  -0.678  -4.541  0.00  0.00    +0.000 A 
ATOM     14  C   UNL     1       8.931  -1.264  -4.425  0.00  0.00    +0.002 A 
ATOM     15  C   UNL     1       9.159  -2.345  -3.588  0.00  0.00    +0.024 A 
ATOM     16  C   UNL     1       8.071  -2.826  -2.857  0.00  0.00    +0.041 A 
ATOM     17  N   UNL     1       8.013  -3.877  -1.959  0.00  0.00    -0.261 N 
ATOM     18  C   UNL     1       6.773  -4.040  -1.450  0.00  0.00    +0.236 C 
ATOM     19  O   UNL     1       6.429  -4.878  -0.644  0.00  0.00    -0.274 OA
ATOM     20  H   UNL     1       2.557  -1.098  -2.491  0.00  0.00    +0.155 HD
ENDROOT
BRANCH   1  24
ATOM     21  C   UNL     1      -0.017   1.379   0.010  0.00  0.00    +0.000 A 
ATOM     22  C   UNL     1       1.169   2.093   0.002  0.00  0.00    +0.001 A 
ATOM     23  C   UNL     1       2.377   1.428  -0.013  0.00  0.00    +0.008 A 
ATOM     24  C   UNL     1       2.403   0.034  -0.021  0.00  0.00    -0.015 A 
ATOM     25  C   UNL     1       1.204  -0.680  -0.013  0.00  0.00    +0.008 A 
ATOM     26  C   UNL     1       0.002  -0.004   0.002  0.00  0.00    +0.001 A 
ENDBRANCH   1  24
BRANCH   5  27
ATOM     27  C   UNL     1       4.486   0.097   2.246  0.00  0.00    +0.394 C 
ATOM     28  O   UNL     1       3.485   0.766   2.472  0.00  0.00    -0.240 OA
ATOM     29  O   UNL     1       5.388   0.043   3.074  0.00  0.00    -0.240 OA
ENDBRANCH   5  27
BRANCH  17  30
ATOM     30  C   UNL     1       9.160  -4.715  -1.603  0.00  0.00    +0.209 C 
BRANCH  30  31
ATOM     31  C   UNL     1       9.873  -4.113  -0.419  0.00  0.00    +0.228 C 
ATOM     32  O   UNL     1       9.463  -3.086   0.078  0.00  0.00    -0.274 OA
ATOM     33  N   UNL     1      10.967  -4.717   0.087  0.00  0.00    -0.328 N 
ATOM     34  H   UNL     1      11.295  -5.539  -0.310  0.00  0.00    +0.145 HD
ATOM     35  H   UNL     1      11.426  -4.330   0.849  0.00  0.00    +0.145 HD
ENDBRANCH  30  31
ENDBRANCH  17  30
TORSDOF 4
