REMARK  Name = ZINC09462289
REMARK  14 active torsions:
REMARK  status: ('A' for Active; 'I' for Inactive)
REMARK    1  A    between atoms: C_1  and  C_2
REMARK    2  A    between atoms: C_2  and  N_3
REMARK    3  A    between atoms: N_3  and  C_4
REMARK    4  A    between atoms: N_3  and  C_16
REMARK    5  A    between atoms: C_4  and  C_5
REMARK    6  A    between atoms: N_7  and  C_8
REMARK    7  A    between atoms: C_8  and  C_9
REMARK    8  A    between atoms: C_16  and  C_17
REMARK    9  A    between atoms: N_19  and  C_20
REMARK   10  A    between atoms: C_22  and  S_27
REMARK   11  A    between atoms: C_25  and  C_26
REMARK   12  A    between atoms: S_27  and  N_30
REMARK   13  A    between atoms: N_30  and  C_31
REMARK   14  A    between atoms: N_30  and  C_32
REMARK                            x       y       z     vdW  Elec       q    Type
REMARK                         _______ _______ _______ _____ _____    ______ ____
ROOT
ATOM      1  C   UNL     1      -1.358  -2.258   0.579  0.00  0.00    +0.020 C 
ENDROOT
BRANCH   1   2
ATOM      2  C   UNL     1      -0.771  -2.481   1.949  0.00  0.00    +0.201 C 
ATOM      3  O   UNL     1      -0.486  -1.532   2.649  0.00  0.00    -0.278 OA
ATOM      4  N   UNL     1      -0.563  -3.735   2.396  0.00  0.00    -0.287 N 
ATOM      5  H   UNL     1      -0.726  -4.492   1.812  0.00  0.00    +0.155 HD
BRANCH   4   6
ATOM      6  C   UNL     1      -0.111  -3.945   3.704  0.00  0.00    +0.038 A 
ATOM      7  C   UNL     1       0.632  -2.966   4.349  0.00  0.00    +0.052 A 
ATOM      8  C   UNL     1       1.076  -3.176   5.640  0.00  0.00    +0.107 A 
ATOM      9  C   UNL     1       0.782  -4.361   6.289  0.00  0.00    +0.029 A 
ATOM     10  C   UNL     1       0.043  -5.339   5.649  0.00  0.00    +0.007 A 
ATOM     11  C   UNL     1      -0.410  -5.131   4.361  0.00  0.00    -0.029 A 
ATOM     12  C   UNL     1      -1.222  -6.194   3.667  0.00  0.00    +0.045 C 
BRANCH   8  13
ATOM     13  S   UNL     1       2.019  -1.934   6.460  0.00  0.00    +0.060 S 
ATOM     14  O   UNL     1       2.779  -2.596   7.462  0.00  0.00    -0.153 OA
ATOM     15  O   UNL     1       2.622  -1.145   5.443  0.00  0.00    -0.153 OA
BRANCH  13  16
ATOM     16  N   UNL     1       0.949  -0.949   7.251  0.00  0.00    -0.183 NA
ATOM     17  C   UNL     1       0.555  -1.252   8.629  0.00  0.00    +0.131 C 
ATOM     18  C   UNL     1       0.395   0.226   6.572  0.00  0.00    +0.131 C 
ENDBRANCH  13  16
ENDBRANCH   8  13
ENDBRANCH   4   6
ENDBRANCH   1   2
BRANCH   1  19
ATOM     19  N   UNL     1      -1.485  -0.815   0.330  0.00  0.00    +0.391 N 
ATOM     20  H   UNL     1      -2.022  -0.392   1.071  0.00  0.00    -0.080 HD
BRANCH  19  22
ATOM     21  C   UNL     1      -0.283   1.312   0.157  0.00  0.00    -0.017 C 
ATOM     22  C   UNL     1      -0.148  -0.207   0.284  0.00  0.00    -0.081 C 
ENDBRANCH  19  22
BRANCH  19  23
ATOM     23  C   UNL     1      -2.166  -0.598  -0.954  0.00  0.00    +0.019 C 
BRANCH  23  24
ATOM     24  C   UNL     1      -3.598  -1.054  -0.846  0.00  0.00    +0.197 C 
ATOM     25  O   UNL     1      -3.996  -1.564   0.180  0.00  0.00    -0.278 OA
ATOM     26  N   UNL     1      -4.436  -0.896  -1.890  0.00  0.00    -0.313 N 
ATOM     27  H   UNL     1      -4.117  -0.488  -2.710  0.00  0.00    +0.149 HD
BRANCH  26  28
ATOM     28  C   UNL     1      -5.828  -1.340  -1.785  0.00  0.00    +0.139 C 
BRANCH  28  29
ATOM     29  C   UNL     1      -6.546  -1.051  -3.078  0.00  0.00    -0.030 A 
ATOM     30  C   UNL     1      -7.183   0.163  -3.258  0.00  0.00    +0.008 A 
ATOM     31  C   UNL     1      -7.841   0.430  -4.443  0.00  0.00    +0.038 A 
ATOM     32  C   UNL     1      -7.863  -0.520  -5.451  0.00  0.00    +0.123 A 
ATOM     33  C   UNL     1      -7.225  -1.735  -5.270  0.00  0.00    +0.038 A 
ATOM     34  C   UNL     1      -6.563  -1.997  -4.085  0.00  0.00    +0.008 A 
ATOM     35  F   UNL     1      -8.507  -0.260  -6.610  0.00  0.00    -0.205 F 
ENDBRANCH  28  29
ENDBRANCH  26  28
ENDBRANCH  23  24
ENDBRANCH  19  23
ENDBRANCH   1  19
TORSDOF 10
