REMARK  Name = ZINC14470618
REMARK  3 active torsions:
REMARK  status: ('A' for Active; 'I' for Inactive)
REMARK    1  A    between atoms: C_4  and  N_26
REMARK    2  A    between atoms: C_6  and  C_7
REMARK    3  A    between atoms: C_18  and  C_23
REMARK                            x       y       z     vdW  Elec       q    Type
REMARK                         _______ _______ _______ _____ _____    ______ ____
ROOT
ATOM      1  C   UNL     1      -1.777   0.707   1.661  0.00  0.00    +0.105 C 
ATOM      2  C   UNL     1      -0.506   1.530   1.557  0.00  0.00    +0.029 C 
ATOM      3  C   UNL     1       0.655   1.144   2.483  0.00  0.00    +0.033 C 
ATOM      4  C   UNL     1       1.867   1.572   1.653  0.00  0.00    -0.030 C 
ATOM      5  C   UNL     1       1.560   1.561   0.362  0.00  0.00    -0.023 C 
ATOM      6  C   UNL     1       0.156   1.101   0.213  0.00  0.00    +0.049 C 
ATOM      7  C   UNL     1      -0.718   1.585  -0.878  0.00  0.00    -0.019 A 
ATOM      8  C   UNL     1      -0.220   2.009  -2.085  0.00  0.00    +0.019 A 
ATOM      9  C   UNL     1      -1.089   2.441  -3.091  0.00  0.00    +0.037 A 
ATOM     10  C   UNL     1      -2.468   2.440  -2.863  0.00  0.00    +0.015 A 
ATOM     11  C   UNL     1      -2.952   1.972  -1.693  0.00  0.00    +0.024 A 
ATOM     12  C   UNL     1      -2.096   1.563  -0.671  0.00  0.00    +0.031 A 
ATOM     13  N   UNL     1      -2.639   1.162   0.548  0.00  0.00    -0.336 N 
ATOM     14  H   UNL     1      -3.601   1.181   0.670  0.00  0.00    +0.147 HD
ENDROOT
BRANCH   1  20
ATOM     15  C   UNL     1      -1.139  -1.514   2.621  0.00  0.00    +0.007 A 
ATOM     16  C   UNL     1      -0.850  -2.858   2.483  0.00  0.00    +0.022 A 
ATOM     17  C   UNL     1      -0.884  -3.449   1.233  0.00  0.00    +0.071 A 
ATOM     18  C   UNL     1      -1.209  -2.692   0.120  0.00  0.00    +0.145 A 
ATOM     19  C   UNL     1      -1.503  -1.349   0.260  0.00  0.00    +0.039 A 
ATOM     20  C   UNL     1      -1.462  -0.759   1.510  0.00  0.00    -0.025 A 
ATOM     21 CL   UNL     1      -0.522  -5.137   1.059  0.00  0.00    -0.081 Cl
BRANCH  18  22
ATOM     22  N   UNL     1      -1.247  -3.323  -1.218  0.00  0.00    +0.058 N 
ATOM     23  O   UNL     1      -1.532  -2.657  -2.197  0.00  0.00    -0.126 OA
ATOM     24  O   UNL     1      -0.993  -4.508  -1.340  0.00  0.00    -0.126 OA
ENDBRANCH  18  22
ENDBRANCH   1  20
BRANCH   9  25
ATOM     25  C   UNL     1      -0.553   2.897  -4.388  0.00  0.00    +0.242 C 
ATOM     26  O   UNL     1       0.647   2.897  -4.584  0.00  0.00    -0.270 OA
ATOM     27  N   UNL     1      -1.393   3.313  -5.356  0.00  0.00    -0.325 N 
ATOM     28  H   UNL     1      -2.351   3.313  -5.200  0.00  0.00    +0.145 HD
ATOM     29  H   UNL     1      -1.041   3.612  -6.209  0.00  0.00    +0.145 HD
ENDBRANCH   9  25
TORSDOF 3
