REMARK  Name = ZINC35037198
REMARK  9 active torsions:
REMARK  status: ('A' for Active; 'I' for Inactive)
REMARK    1  A    between atoms: C_1  and  C_2
REMARK    2  A    between atoms: C_2  and  C_3
REMARK    3  A    between atoms: C_3  and  N_4
REMARK    4  A    between atoms: N_4  and  C_5
REMARK    5  A    between atoms: C_5  and  C_7
REMARK    6  A    between atoms: C_5  and  C_8
REMARK    7  A    between atoms: N_18  and  C_19
REMARK    8  A    between atoms: N_27  and  C_28
REMARK    9  A    between atoms: C_31  and  C_34
REMARK                            x       y       z     vdW  Elec       q    Type
REMARK                         _______ _______ _______ _____ _____    ______ ____
ROOT
ATOM      1  C   UNL     1      -1.878  -2.704   0.500  0.00  0.00    +0.141 C 
ATOM      2  C   UNL     1      -0.505  -2.142   0.874  0.00  0.00    +0.036 C 
ENDROOT
BRANCH   1   3
ATOM      3  C   UNL     1      -2.912  -2.189   1.469  0.00  0.00    +0.138 A 
ATOM      4  N   UNL     1      -3.014  -0.906   1.637  0.00  0.00    -0.231 NA
ATOM      5  C   UNL     1      -3.921  -0.370   2.492  0.00  0.00    +0.078 A 
ATOM      6  C   UNL     1      -4.031   1.010   2.673  0.00  0.00    +0.028 A 
ATOM      7  C   UNL     1      -4.966   1.510   3.550  0.00  0.00    +0.002 A 
ATOM      8  C   UNL     1      -5.804   0.659   4.260  0.00  0.00    +0.001 A 
ATOM      9  C   UNL     1      -5.714  -0.706   4.098  0.00  0.00    +0.015 A 
ATOM     10  C   UNL     1      -4.775  -1.233   3.214  0.00  0.00    +0.065 A 
ATOM     11  C   UNL     1      -4.635  -2.681   3.001  0.00  0.00    +0.266 A 
ATOM     12  O   UNL     1      -5.339  -3.478   3.592  0.00  0.00    -0.267 OA
ATOM     13  N   UNL     1      -3.696  -3.093   2.118  0.00  0.00    -0.263 N 
BRANCH  13  14
ATOM     14  C   UNL     1      -3.525  -4.461   1.873  0.00  0.00    +0.051 A 
ATOM     15  C   UNL     1      -2.544  -5.172   2.553  0.00  0.00    +0.026 A 
ATOM     16  C   UNL     1      -2.378  -6.521   2.310  0.00  0.00    +0.002 A 
ATOM     17  C   UNL     1      -3.188  -7.165   1.392  0.00  0.00    +0.000 A 
ATOM     18  C   UNL     1      -4.165  -6.460   0.714  0.00  0.00    +0.002 A 
ATOM     19  C   UNL     1      -4.340  -5.111   0.956  0.00  0.00    +0.026 A 
ENDBRANCH  13  14
ENDBRANCH   1   3
BRANCH   1  20
ATOM     20  N   UNL     1      -2.227  -2.279  -0.858  0.00  0.00    -0.276 N 
ATOM     21  C   UNL     1      -2.453  -3.200  -1.815  0.00  0.00    +0.307 C 
ATOM     22  O   UNL     1      -2.367  -4.384  -1.551  0.00  0.00    -0.252 OA
ATOM     23  N   UNL     1      -2.773  -2.809  -3.064  0.00  0.00    -0.269 N 
ATOM     24  H   UNL     1      -2.896  -1.868  -3.261  0.00  0.00    +0.156 HD
BRANCH  23  25
ATOM     25  C   UNL     1      -2.929  -3.763  -4.077  0.00  0.00    +0.035 A 
ATOM     26  C   UNL     1      -2.541  -3.466  -5.377  0.00  0.00    +0.023 A 
ATOM     27  C   UNL     1      -2.695  -4.409  -6.375  0.00  0.00    +0.005 A 
ATOM     28  C   UNL     1      -3.235  -5.647  -6.080  0.00  0.00    -0.050 A 
ATOM     29  C   UNL     1      -3.623  -5.945  -4.787  0.00  0.00    +0.005 A 
ATOM     30  C   UNL     1      -3.466  -5.009  -3.784  0.00  0.00    +0.023 A 
ATOM     31  C   UNL     1      -3.402  -6.673  -7.171  0.00  0.00    +0.044 C 
ENDBRANCH  23  25
BRANCH  20  32
ATOM     32  C   UNL     1      -2.330  -0.852  -1.175  0.00  0.00    +0.110 C 
BRANCH  32  34
ATOM     33  C   UNL     1      -1.075   1.157  -1.969  0.00  0.00    +0.005 C 
ATOM     34  C   UNL     1      -0.967  -0.333  -1.637  0.00  0.00    +0.016 C 
ENDBRANCH  32  34
ENDBRANCH  20  32
ENDBRANCH   1  20
TORSDOF 6
