REMARK  Name = ZINC00729501
REMARK  10 active torsions:
REMARK  status: ('A' for Active; 'I' for Inactive)
REMARK    1  A    between atoms: C_1  and  C_2
REMARK    2  A    between atoms: C_2  and  O_3
REMARK    3  A    between atoms: O_3  and  C_4
REMARK    4  A    between atoms: C_7  and  C_12
REMARK    5  A    between atoms: C_9  and  O_10
REMARK    6  A    between atoms: O_10  and  C_11
REMARK    7  A    between atoms: C_17  and  C_27
REMARK    8  A    between atoms: C_29  and  O_35
REMARK    9  A    between atoms: C_30  and  O_34
REMARK   10  A    between atoms: O_35  and  C_36
REMARK                            x       y       z     vdW  Elec       q    Type
REMARK                         _______ _______ _______ _____ _____    ______ ____
ROOT
ATOM      1  C   UNL     1      -0.123  -0.038  -0.337  0.00  0.00    +0.032 C 
ATOM      2  C   UNL     1       0.656  -0.423   0.919  0.00  0.00    +0.059 C 
ATOM      3  C   UNL     1       0.733  -1.937   1.036  0.00  0.00    +0.017 C 
ATOM      4  C   UNL     1       0.797  -2.700  -0.067  0.00  0.00    +0.036 C 
ATOM      5  C   UNL     1       0.899  -4.207  -0.097  0.00  0.00    +0.136 C 
ATOM      6  N   UNL     1       0.662  -4.849   1.178  0.00  0.00    -0.331 N 
ATOM      7  C   UNL     1       1.519  -4.645   2.258  0.00  0.00    +0.049 A 
ATOM      8  C   UNL     1       2.319  -5.664   2.749  0.00  0.00    +0.025 A 
ATOM      9  C   UNL     1       3.234  -5.389   3.750  0.00  0.00    +0.002 A 
ATOM     10  C   UNL     1       3.350  -4.108   4.260  0.00  0.00    +0.002 A 
ATOM     11  C   UNL     1       2.537  -3.092   3.787  0.00  0.00    +0.025 A 
ATOM     12  C   UNL     1       1.610  -3.370   2.797  0.00  0.00    +0.052 A 
ATOM     13  N   UNL     1       0.733  -2.408   2.309  0.00  0.00    -0.316 N 
ATOM     14  C   UNL     1       0.756  -2.104  -1.350  0.00  0.00    +0.163 C 
ATOM     15  O   UNL     1       0.836  -2.819  -2.330  0.00  0.00    -0.292 OA
ATOM     16  C   UNL     1       0.618  -0.625  -1.544  0.00  0.00    +0.088 C 
ATOM     17  H   UNL     1      -0.107  -5.431   1.283  0.00  0.00    +0.147 HD
ATOM     18  H   UNL     1       0.074  -2.047   2.922  0.00  0.00    +0.152 HD
ENDROOT
BRANCH   5  19
ATOM     19  C   UNL     1       2.280  -4.580  -0.570  0.00  0.00    -0.018 A 
ATOM     20  C   UNL     1       2.442  -5.246  -1.771  0.00  0.00    +0.055 A 
ATOM     21  C   UNL     1       3.712  -5.585  -2.211  0.00  0.00    +0.163 A 
ATOM     22  C   UNL     1       4.822  -5.263  -1.436  0.00  0.00    +0.177 A 
ATOM     23  C   UNL     1       4.653  -4.600  -0.230  0.00  0.00    +0.086 A 
ATOM     24  C   UNL     1       3.383  -4.260   0.200  0.00  0.00    +0.029 A 
ATOM     25 CL   UNL     1       6.035  -4.197   0.740  0.00  0.00    -0.080 Cl
BRANCH  22  26
ATOM     26  O   UNL     1       6.070  -5.598  -1.861  0.00  0.00    -0.502 OA
ATOM     27  H   UNL     1       6.365  -6.470  -1.566  0.00  0.00    +0.292 HD
ENDBRANCH  22  26
BRANCH  21  28
ATOM     28  O   UNL     1       3.872  -6.235  -3.394  0.00  0.00    -0.491 OA
ATOM     29  C   UNL     1       2.688  -6.533  -4.136  0.00  0.00    +0.277 C 
ENDBRANCH  21  28
ENDBRANCH   5  19
BRANCH   1  33
ATOM     30  C   UNL     1      -0.305   4.221  -0.679  0.00  0.00    +0.162 A 
ATOM     31  C   UNL     1       0.921   3.575  -0.665  0.00  0.00    +0.050 A 
ATOM     32  C   UNL     1       0.977   2.199  -0.554  0.00  0.00    +0.008 A 
ATOM     33  C   UNL     1      -0.189   1.462  -0.457  0.00  0.00    -0.040 A 
ATOM     34  C   UNL     1      -1.416   2.099  -0.476  0.00  0.00    +0.053 A 
ATOM     35  C   UNL     1      -1.479   3.479  -0.582  0.00  0.00    +0.162 A 
BRANCH  35  36
ATOM     36  O   UNL     1      -2.684   4.108  -0.596  0.00  0.00    -0.491 OA
ATOM     37  C   UNL     1      -3.847   3.284  -0.492  0.00  0.00    +0.277 C 
ENDBRANCH  35  36
BRANCH  30  38
ATOM     38  O   UNL     1      -0.361   5.575  -0.789  0.00  0.00    -0.489 OA
BRANCH  38  40
ATOM     39  C   UNL     1       0.621   7.773  -1.000  0.00  0.00    +0.048 C 
ATOM     40  C   UNL     1       0.883   6.270  -0.885  0.00  0.00    +0.226 C 
ENDBRANCH  38  40
ENDBRANCH  30  38
ENDBRANCH   1  33
TORSDOF 7
