REMARK  Name = ZINC21254271
REMARK  9 active torsions:
REMARK  status: ('A' for Active; 'I' for Inactive)
REMARK    1  A    between atoms: C_1  and  C_2
REMARK    2  A    between atoms: C_2  and  O_4
REMARK    3  A    between atoms: O_4  and  C_5
REMARK    4  A    between atoms: C_8  and  C_13
REMARK    5  A    between atoms: C_10  and  O_11
REMARK    6  A    between atoms: O_11  and  C_12
REMARK    7  A    between atoms: C_18  and  C_23
REMARK    8  A    between atoms: C_28  and  O_29
REMARK    9  A    between atoms: O_29  and  C_30
REMARK                            x       y       z     vdW  Elec       q    Type
REMARK                         _______ _______ _______ _____ _____    ______ ____
ROOT
ATOM      1  C   UNL     1       4.975   3.957  -0.036  0.00  0.00    +0.136 C 
ATOM      2  C   UNL     1       5.383   4.183  -1.472  0.00  0.00    +0.036 C 
ATOM      3  C   UNL     1       6.380   3.554  -2.117  0.00  0.00    +0.017 C 
ATOM      4  C   UNL     1       6.691   3.884  -3.567  0.00  0.00    +0.060 C 
ATOM      5  C   UNL     1       5.410   4.283  -4.298  0.00  0.00    +0.035 C 
ATOM      6  C   UNL     1       4.827   5.508  -3.582  0.00  0.00    +0.088 C 
ATOM      7  C   UNL     1       4.602   5.154  -2.142  0.00  0.00    +0.163 C 
ATOM      8  O   UNL     1       3.719   5.722  -1.530  0.00  0.00    -0.292 OA
ATOM      9  N   UNL     1       7.187   2.614  -1.563  0.00  0.00    -0.316 N 
ATOM     10  C   UNL     1       6.748   1.542  -0.796  0.00  0.00    +0.052 A 
ATOM     11  C   UNL     1       6.892   0.228  -1.207  0.00  0.00    +0.025 A 
ATOM     12  C   UNL     1       6.474  -0.794  -0.372  0.00  0.00    +0.002 A 
ATOM     13  C   UNL     1       5.921  -0.505   0.863  0.00  0.00    +0.002 A 
ATOM     14  C   UNL     1       5.760   0.809   1.268  0.00  0.00    +0.025 A 
ATOM     15  C   UNL     1       6.157   1.834   0.424  0.00  0.00    +0.049 A 
ATOM     16  N   UNL     1       5.911   3.169   0.738  0.00  0.00    -0.331 N 
ATOM     17  H   UNL     1       8.276   2.668  -1.708  0.00  0.00    +0.152 HD
ATOM     18  H   UNL     1       6.440   3.624   1.589  0.00  0.00    +0.147 HD
ENDROOT
BRANCH   1  22
ATOM     19  C   UNL     1       1.187   1.971  -0.004  0.00  0.00    +0.173 A 
ATOM     20  C   UNL     1       2.295   1.349  -0.557  0.00  0.00    +0.050 A 
ATOM     21  C   UNL     1       3.517   1.993  -0.567  0.00  0.00    +0.009 A 
ATOM     22  C   UNL     1       3.639   3.259  -0.024  0.00  0.00    -0.019 A 
ATOM     23  C   UNL     1       2.539   3.885   0.531  0.00  0.00    +0.055 A 
ATOM     24  C   UNL     1       1.309   3.247   0.538  0.00  0.00    +0.163 A 
BRANCH  24  25
ATOM     25  O   UNL     1       0.225   3.865   1.078  0.00  0.00    -0.491 OA
ATOM     26  C   UNL     1       0.424   5.174   1.615  0.00  0.00    +0.277 C 
ENDBRANCH  24  25
BRANCH  19  27
ATOM     27  O   UNL     1      -0.017   1.339   0.006  0.00  0.00    -0.422 OA
BRANCH  27  29
ATOM     28  C   UNL     1      -2.156   0.859  -1.129  0.00  0.00    +0.136 C 
ATOM     29  C   UNL     1      -0.853   1.606  -1.010  0.00  0.00    +0.309 C 
ATOM     30  O   UNL     1      -0.561   2.446  -1.828  0.00  0.00    -0.251 OA
ENDBRANCH  27  29
ENDBRANCH  19  27
ENDBRANCH   1  22
BRANCH   5  31
ATOM     31  C   UNL     1       5.726   4.630  -5.730  0.00  0.00    -0.002 A 
ATOM     32  C   UNL     1       6.597   5.664  -6.015  0.00  0.00    +0.007 A 
ATOM     33  C   UNL     1       6.891   5.980  -7.329  0.00  0.00    +0.001 A 
ATOM     34  C   UNL     1       6.306   5.269  -8.361  0.00  0.00    +0.004 A 
ATOM     35  C   UNL     1       5.431   4.237  -8.081  0.00  0.00    +0.046 A 
ATOM     36  C   UNL     1       5.138   3.915  -6.764  0.00  0.00    +0.124 A 
BRANCH  36  37
ATOM     37  O   UNL     1       4.277   2.901  -6.486  0.00  0.00    -0.495 OA
ATOM     38  C   UNL     1       3.710   2.209  -7.600  0.00  0.00    +0.277 C 
ENDBRANCH  36  37
ENDBRANCH   5  31
TORSDOF 6
