REMARK  Name = ZINC00140620
REMARK  12 active torsions:
REMARK  status: ('A' for Active; 'I' for Inactive)
REMARK    1  A    between atoms: C_1  and  C_2
REMARK    2  A    between atoms: C_2  and  C_3
REMARK    3  A    between atoms: C_2  and  C_4
REMARK    4  A    between atoms: C_2  and  C_5
REMARK    5  A    between atoms: C_5  and  C_7
REMARK    6  A    between atoms: C_8  and  N_22
REMARK    7  A    between atoms: C_10  and  N_21
REMARK    8  A    between atoms: C_11  and  C_15
REMARK    9  A    between atoms: C_15  and  C_17
REMARK   10  A    between atoms: C_17  and  C_18
REMARK   11  A    between atoms: C_17  and  C_19
REMARK   12  A    between atoms: C_17  and  C_20
REMARK                            x       y       z     vdW  Elec       q    Type
REMARK                         _______ _______ _______ _____ _____    ______ ____
ROOT
ATOM      1  C   UNL     1      -3.942  -0.740  -0.850  0.00  0.00    +0.077 A 
ATOM      2  C   UNL     1      -2.740  -0.471  -0.215  0.00  0.00    +0.053 A 
ATOM      3  C   UNL     1      -2.561   0.762   0.477  0.00  0.00    +0.039 A 
ATOM      4  C   UNL     1      -1.470   1.316   1.208  0.00  0.00    +0.053 A 
ATOM      5  C   UNL     1      -1.591   2.567   1.790  0.00  0.00    +0.077 A 
ATOM      6  S   UNL     1      -3.248   3.049   1.335  0.00  0.00    -0.076 S 
ATOM      7  C   UNL     1      -3.691   1.605   0.428  0.00  0.00    +0.061 A 
ATOM      8  S   UNL     1      -4.897   0.729  -0.512  0.00  0.00    -0.076 S 
ENDROOT
BRANCH   4   9
ATOM      9  N   UNL     1      -0.293   0.601   1.341  0.00  0.00    -0.356 N 
ATOM     10  H   UNL     1       0.541   1.067   1.512  0.00  0.00    +0.142 HD
ATOM     11  H   UNL     1      -0.301  -0.366   1.268  0.00  0.00    +0.142 HD
ENDBRANCH   4   9
BRANCH   2  12
ATOM     12  N   UNL     1      -1.715  -1.399  -0.252  0.00  0.00    -0.356 N 
ATOM     13  H   UNL     1      -0.797  -1.114  -0.120  0.00  0.00    +0.142 HD
ATOM     14  H   UNL     1      -1.913  -2.335  -0.410  0.00  0.00    +0.142 HD
ENDBRANCH   2  12
BRANCH   1  15
ATOM     15  C   UNL     1      -4.313  -1.878  -1.574  0.00  0.00    +0.177 C 
ATOM     16  O   UNL     1      -3.528  -2.797  -1.707  0.00  0.00    -0.291 OA
BRANCH  15  18
ATOM     17  C   UNL     1      -5.835  -3.301  -2.919  0.00  0.00    +0.019 C 
ATOM     18  C   UNL     1      -5.686  -1.965  -2.189  0.00  0.00    +0.026 C 
ATOM     19  C   UNL     1      -6.745  -1.864  -1.089  0.00  0.00    +0.019 C 
ATOM     20  C   UNL     1      -5.873  -0.817  -3.183  0.00  0.00    +0.019 C 
ENDBRANCH  15  18
ENDBRANCH   1  15
BRANCH   5  21
ATOM     21  C   UNL     1      -0.650   3.276   2.544  0.00  0.00    +0.177 C 
ATOM     22  O   UNL     1       0.445   2.793   2.760  0.00  0.00    -0.291 OA
BRANCH  21  23
ATOM     23  C   UNL     1      -0.993   4.639   3.089  0.00  0.00    +0.026 C 
ATOM     24  C   UNL     1       0.201   5.191   3.870  0.00  0.00    +0.019 C 
ATOM     25  C   UNL     1      -1.325   5.582   1.932  0.00  0.00    +0.019 C 
ATOM     26  C   UNL     1      -2.203   4.526   4.019  0.00  0.00    +0.019 C 
ENDBRANCH  21  23
ENDBRANCH   5  21
TORSDOF 6
