REMARK  Name = ZINC08741553
REMARK  8 active torsions:
REMARK  status: ('A' for Active; 'I' for Inactive)
REMARK    1  A    between atoms: C_1  and  C_2
REMARK    2  A    between atoms: C_2  and  O_3
REMARK    3  A    between atoms: O_3  and  C_4
REMARK    4  A    between atoms: C_4  and  C_6
REMARK    5  A    between atoms: C_10  and  N_11
REMARK    6  A    between atoms: C_16  and  C_30
REMARK    7  A    between atoms: N_18  and  C_24
REMARK    8  A    between atoms: C_33  and  C_36
REMARK                            x       y       z     vdW  Elec       q    Type
REMARK                         _______ _______ _______ _____ _____    ______ ____
ROOT
ATOM      1  N   UNL     1      -2.598  -2.750   2.744  0.00  0.00    -0.201 N 
ATOM      2  C   UNL     1      -3.268  -3.037   3.866  0.00  0.00    +0.235 C 
ATOM      3  O   UNL     1      -4.271  -3.715   3.929  0.00  0.00    -0.274 OA
ATOM      4  C   UNL     1      -2.579  -2.385   5.042  0.00  0.00    +0.145 C 
ATOM      5  C   UNL     1      -3.480  -1.263   5.606  0.00  0.00    +0.157 C 
ATOM      6  N   UNL     1      -2.541  -0.122   5.732  0.00  0.00    -0.244 N 
ATOM      7  O   UNL     1      -1.706  -0.215   4.577  0.00  0.00    -0.257 OA
ATOM      8  C   UNL     1      -1.391  -1.626   4.389  0.00  0.00    +0.249 C 
ATOM      9  C   UNL     1      -1.521  -1.976   2.923  0.00  0.00    +0.259 C 
ATOM     10  O   UNL     1      -0.767  -1.611   2.046  0.00  0.00    -0.272 OA
ENDROOT
BRANCH   1  15
ATOM     11  C   UNL     1      -2.606  -4.400   0.874  0.00  0.00    +0.091 A 
ATOM     12  C   UNL     1      -3.161  -4.667  -0.442  0.00  0.00    -0.021 A 
ATOM     13  C   UNL     1      -3.990  -3.702  -0.897  0.00  0.00    -0.004 A 
ATOM     14  S   UNL     1      -4.020  -2.491   0.391  0.00  0.00    -0.077 S 
ATOM     15  C   UNL     1      -2.986  -3.221   1.495  0.00  0.00    +0.096 A 
ATOM     16  C   UNL     1      -4.713  -3.683  -2.208  0.00  0.00    +0.043 C 
ATOM     17  C   UNL     1      -4.081  -4.742  -3.123  0.00  0.00    +0.005 C 
ATOM     18  C   UNL     1      -3.944  -6.053  -2.343  0.00  0.00    +0.005 C 
ATOM     19  C   UNL     1      -2.864  -5.909  -1.268  0.00  0.00    +0.037 C 
BRANCH  11  20
ATOM     20  C   UNL     1      -1.688  -5.342   1.519  0.00  0.00    +0.342 C 
ATOM     21  O   UNL     1      -2.124  -6.228   2.229  0.00  0.00    -0.245 OA
BRANCH  20  22
ATOM     22  O   UNL     1      -0.358  -5.226   1.327  0.00  0.00    -0.461 OA
BRANCH  22  24
ATOM     23  C   UNL     1       1.944  -5.889   1.653  0.00  0.00    +0.048 C 
ATOM     24  C   UNL     1       0.479  -6.178   1.987  0.00  0.00    +0.229 C 
ENDBRANCH  22  24
ENDBRANCH  20  22
ENDBRANCH  11  20
ENDBRANCH   1  15
BRANCH   5  25
ATOM     25  C   UNL     1      -4.038  -1.651   6.951  0.00  0.00    -0.022 A 
ATOM     26  C   UNL     1      -3.213  -1.679   8.060  0.00  0.00    +0.006 A 
ATOM     27  C   UNL     1      -3.725  -2.035   9.294  0.00  0.00    +0.004 A 
ATOM     28  C   UNL     1      -5.062  -2.364   9.419  0.00  0.00    -0.050 A 
ATOM     29  C   UNL     1      -5.887  -2.335   8.310  0.00  0.00    +0.004 A 
ATOM     30  C   UNL     1      -5.376  -1.975   7.077  0.00  0.00    +0.006 A 
ATOM     31  C   UNL     1      -5.619  -2.753  10.764  0.00  0.00    +0.044 C 
ENDBRANCH   5  25
BRANCH   6  32
ATOM     32  C   UNL     1      -2.485   0.831   6.752  0.00  0.00    +0.065 A 
ATOM     33  C   UNL     1      -1.302   1.034   7.450  0.00  0.00    +0.028 A 
ATOM     34  C   UNL     1      -1.250   1.977   8.458  0.00  0.00    +0.002 A 
ATOM     35  C   UNL     1      -2.375   2.718   8.772  0.00  0.00    +0.000 A 
ATOM     36  C   UNL     1      -3.554   2.518   8.079  0.00  0.00    +0.002 A 
ATOM     37  C   UNL     1      -3.611   1.581   7.066  0.00  0.00    +0.028 A 
ENDBRANCH   6  32
TORSDOF 6
