REMARK  Name = ZINC09463574
REMARK  7 active torsions:
REMARK  status: ('A' for Active; 'I' for Inactive)
REMARK    1  A    between atoms: C_1  and  C_2
REMARK    2  A    between atoms: C_2  and  C_3
REMARK    3  A    between atoms: C_2  and  C_4
REMARK    4  A    between atoms: C_2  and  C_5
REMARK    5  A    between atoms: C_5  and  C_7
REMARK    6  A    between atoms: C_9  and  C_32
REMARK    7  A    between atoms: C_32  and  C_34
REMARK                            x       y       z     vdW  Elec       q    Type
REMARK                         _______ _______ _______ _____ _____    ______ ____
ROOT
ATOM      1  C   UNL     1       3.307   1.137   0.535  0.00  0.00    +0.153 C 
ATOM      2  C   UNL     1       1.826   1.526   0.807  0.00  0.00    +0.109 C 
ATOM      3  C   UNL     1       1.221   1.755  -0.593  0.00  0.00    +0.108 C 
ATOM      4  C   UNL     1       0.707   3.145  -0.749  0.00  0.00    -0.008 A 
ATOM      5  C   UNL     1       1.330   4.372  -0.669  0.00  0.00    +0.006 A 
ATOM      6  C   UNL     1       0.539   5.497  -0.873  0.00  0.00    +0.000 A 
ATOM      7  C   UNL     1      -0.810   5.389  -1.142  0.00  0.00    +0.002 A 
ATOM      8  C   UNL     1      -1.444   4.159  -1.225  0.00  0.00    +0.023 A 
ATOM      9  C   UNL     1      -0.662   3.021  -1.023  0.00  0.00    +0.038 A 
ATOM     10  N   UNL     1      -1.029   1.687  -1.053  0.00  0.00    -0.284 N 
ATOM     11  C   UNL     1       0.018   0.869  -0.804  0.00  0.00    +0.231 C 
ATOM     12  O   UNL     1      -0.004  -0.343  -0.764  0.00  0.00    -0.274 OA
ATOM     13  C   UNL     1       2.344   1.428  -1.566  0.00  0.00    +0.117 C 
ATOM     14  N   UNL     1       3.576   1.723  -0.784  0.00  0.00    -0.311 N 
ATOM     15  C   UNL     1       4.679   1.301  -1.486  0.00  0.00    +0.038 A 
ATOM     16  C   UNL     1       5.737   0.623  -0.915  0.00  0.00    +0.024 A 
ATOM     17  C   UNL     1       6.808   0.230  -1.698  0.00  0.00    +0.002 A 
ATOM     18  C   UNL     1       6.827   0.511  -3.054  0.00  0.00    +0.001 A 
ATOM     19  C   UNL     1       5.778   1.190  -3.642  0.00  0.00    +0.010 A 
ATOM     20  C   UNL     1       4.698   1.592  -2.868  0.00  0.00    -0.004 A 
ATOM     21  C   UNL     1       3.553   2.328  -3.455  0.00  0.00    +0.007 C 
ATOM     22  C   UNL     1       2.372   2.254  -2.815  0.00  0.00    -0.003 C 
ATOM     23  H   UNL     1      -1.930   1.375  -1.229  0.00  0.00    +0.155 HD
ENDROOT
BRANCH   1  24
ATOM     24  C   UNL     1       3.465  -0.361   0.496  0.00  0.00    +0.160 C 
ATOM     25  O   UNL     1       3.433  -0.944  -0.561  0.00  0.00    -0.295 OA
BRANCH  24  27
ATOM     26  C   UNL     1       3.675  -2.631   1.472  0.00  0.00    +0.018 C 
ATOM     27  C   UNL     1       3.661  -1.131   1.776  0.00  0.00    +0.022 C 
ATOM     28  C   UNL     1       4.991  -0.728   2.415  0.00  0.00    +0.018 C 
ATOM     29  C   UNL     1       2.516  -0.818   2.741  0.00  0.00    +0.018 C 
ENDBRANCH  24  27
ENDBRANCH   1  24
BRANCH   2  30
ATOM     30  C   UNL     1       1.756   2.791   1.623  0.00  0.00    +0.171 C 
ATOM     31  O   UNL     1       2.705   3.546   1.654  0.00  0.00    -0.292 OA
BRANCH  30  32
ATOM     32  C   UNL     1       0.538   3.110   2.382  0.00  0.00    +0.036 A 
ATOM     33  C   UNL     1      -0.519   2.194   2.435  0.00  0.00    +0.013 A 
ATOM     34  C   UNL     1      -1.657   2.501   3.148  0.00  0.00    +0.001 A 
ATOM     35  C   UNL     1      -1.758   3.711   3.813  0.00  0.00    +0.001 A 
ATOM     36  C   UNL     1      -0.719   4.623   3.768  0.00  0.00    +0.021 A 
ATOM     37  C   UNL     1       0.431   4.330   3.062  0.00  0.00    +0.051 A 
ATOM     38 CL   UNL     1       1.737   5.472   3.011  0.00  0.00    -0.083 Cl
ENDBRANCH  30  32
ENDBRANCH   2  30
TORSDOF 4
