REMARK  Name = ZINC67022860
REMARK  5 active torsions:
REMARK  status: ('A' for Active; 'I' for Inactive)
REMARK    1  A    between atoms: C_3  and  C_6
REMARK    2  A    between atoms: C_6  and  N_7
REMARK    3  A    between atoms: C_8  and  C_10
REMARK    4  A    between atoms: C_11  and  S_15
REMARK    5  A    between atoms: S_15  and  N_18
REMARK                            x       y       z     vdW  Elec       q    Type
REMARK                         _______ _______ _______ _____ _____    ______ ____
ROOT
ATOM      1  C   UNL     1       5.916   2.756   2.946  0.00  0.00    +0.100 A 
ATOM      2  C   UNL     1       7.194   3.022   3.413  0.00  0.00    +0.125 A 
ATOM      3  C   UNL     1       7.337   3.050   4.779  0.00  0.00    +0.037 A 
ATOM      4  C   UNL     1       6.252   2.822   5.560  0.00  0.00    +0.048 A 
ATOM      5  S   UNL     1       5.003   2.572   4.466  0.00  0.00    -0.090 S 
ENDROOT
BRANCH   1   7
ATOM      6  N   UNL     1       4.163   2.300   1.315  0.00  0.00    -0.306 N 
ATOM      7  C   UNL     1       5.439   2.659   1.564  0.00  0.00    +0.253 C 
ATOM      8  O   UNL     1       6.194   2.902   0.641  0.00  0.00    -0.270 OA
ATOM      9  H   UNL     1       3.562   2.106   2.050  0.00  0.00    +0.149 HD
BRANCH   6  10
ATOM     10  C   UNL     1       3.687   2.203  -0.067  0.00  0.00    +0.147 C 
BRANCH  10  13
ATOM     11  C   UNL     1      -0.115   1.956  -0.053  0.00  0.00    +0.008 A 
ATOM     12  C   UNL     1       1.127   2.563  -0.043  0.00  0.00    +0.013 A 
ATOM     13  C   UNL     1       2.238   1.787  -0.070  0.00  0.00    +0.007 A 
ATOM     14  S   UNL     1       1.540   0.144  -0.111  0.00  0.00    -0.100 S 
ATOM     15  C   UNL     1      -0.185   0.603  -0.089  0.00  0.00    +0.045 A 
ENDBRANCH  10  13
ENDBRANCH   6  10
ENDBRANCH   1   7
BRANCH   2  16
ATOM     16  S   UNL     1       8.549   3.306   2.323  0.00  0.00    +0.062 S 
ATOM     17  O   UNL     1       8.991   2.029   1.883  0.00  0.00    -0.153 OA
ATOM     18  O   UNL     1       8.138   4.323   1.419  0.00  0.00    -0.153 OA
BRANCH  16  19
ATOM     19  N   UNL     1       9.779   3.947   3.228  0.00  0.00    -0.175 NA
ATOM     20  C   UNL     1       9.789   5.381   3.522  0.00  0.00    +0.120 C 
ATOM     21  C   UNL     1       9.602   5.594   5.029  0.00  0.00    +0.086 C 
ATOM     22  S   UNL     1      10.918   4.701   5.910  0.00  0.00    -0.158 S 
ATOM     23  C   UNL     1      10.782   3.011   5.254  0.00  0.00    +0.086 C 
ATOM     24  C   UNL     1      10.841   3.072   3.728  0.00  0.00    +0.120 C 
ENDBRANCH  16  19
ENDBRANCH   2  16
TORSDOF 5
