REMARK  Name = ZINC13303873
REMARK  11 active torsions:
REMARK  status: ('A' for Active; 'I' for Inactive)
REMARK    1  A    between atoms: C_1  and  C_2
REMARK    2  A    between atoms: C_5  and  N_8
REMARK    3  A    between atoms: C_9  and  C_11
REMARK    4  A    between atoms: C_12  and  C_41
REMARK    5  A    between atoms: C_16  and  C_31
REMARK    6  A    between atoms: C_23  and  C_25
REMARK    7  A    between atoms: C_28  and  C_30
REMARK    8  A    between atoms: C_34  and  O_39
REMARK    9  A    between atoms: C_35  and  O_37
REMARK   10  A    between atoms: O_37  and  C_38
REMARK   11  A    between atoms: O_39  and  C_40
REMARK                            x       y       z     vdW  Elec       q    Type
REMARK                         _______ _______ _______ _____ _____    ______ ____
ROOT
ATOM      1  C   UNL     1       0.287  -6.305   1.122  0.00  0.00    +0.047 C 
ATOM      2  C   UNL     1       0.318  -7.005   2.275  0.00  0.00    +0.047 C 
ATOM      3  N   UNL     1       0.413  -8.337   2.353  0.00  0.00    -0.260 NA
ATOM      4  C   UNL     1       0.533  -9.134   1.352  0.00  0.00    +0.031 C 
ATOM      5  C   UNL     1       0.522 -10.633   1.521  0.00  0.00    +0.060 C 
ATOM      6  C   UNL     1      -0.648 -11.204   0.713  0.00  0.00    +0.032 C 
ATOM      7  C   UNL     1      -0.522 -10.786  -0.754  0.00  0.00    +0.083 C 
ATOM      8  C   UNL     1      -0.446  -9.277  -0.844  0.00  0.00    +0.143 C 
ATOM      9  O   UNL     1      -1.225  -8.653  -1.524  0.00  0.00    -0.297 OA
ATOM     10  C   UNL     1       0.635  -8.575  -0.057  0.00  0.00    +0.114 C 
ATOM     11  C   UNL     1       0.405  -7.057  -0.192  0.00  0.00    +0.107 C 
ATOM     12  C   UNL     1       0.239  -6.232   3.566  0.00  0.00    +0.066 C 
ENDROOT
BRANCH  11  13
ATOM     13  C   UNL     1       1.555  -6.474  -0.971  0.00  0.00    +0.114 A 
ATOM     14  C   UNL     1       1.473  -5.902  -2.186  0.00  0.00    +0.045 A 
ATOM     15  C   UNL     1       2.781  -5.497  -2.537  0.00  0.00    +0.044 A 
ATOM     16  C   UNL     1       3.585  -5.846  -1.516  0.00  0.00    +0.102 A 
ATOM     17  O   UNL     1       2.836  -6.432  -0.568  0.00  0.00    -0.464 OA
ATOM     18  C   UNL     1       5.072  -5.613  -1.446  0.00  0.00    +0.086 C 
ENDBRANCH  11  13
BRANCH   6  19
ATOM     19  C   UNL     1      -0.633 -12.709   0.805  0.00  0.00    -0.040 A 
ATOM     20  C   UNL     1       0.468 -13.416   0.358  0.00  0.00    +0.008 A 
ATOM     21  C   UNL     1       0.487 -14.796   0.440  0.00  0.00    +0.049 A 
ATOM     22  C   UNL     1      -0.598 -15.473   0.972  0.00  0.00    +0.161 A 
ATOM     23  C   UNL     1      -1.706 -14.761   1.423  0.00  0.00    +0.162 A 
ATOM     24  C   UNL     1      -1.717 -13.378   1.342  0.00  0.00    +0.053 A 
BRANCH  23  25
ATOM     25  O   UNL     1      -2.774 -15.421   1.946  0.00  0.00    -0.491 OA
ATOM     26  C   UNL     1      -3.875 -14.626   2.388  0.00  0.00    +0.277 C 
ENDBRANCH  23  25
BRANCH  22  27
ATOM     27  O   UNL     1      -0.581 -16.830   1.054  0.00  0.00    -0.491 OA
ATOM     28  C   UNL     1       0.589 -17.495   0.571  0.00  0.00    +0.277 C 
ENDBRANCH  22  27
ENDBRANCH   6  19
BRANCH   1  30
ATOM     29  N   UNL     1       0.228  -4.152  -0.011  0.00  0.00    -0.282 N 
ATOM     30  C   UNL     1       0.136  -4.851   1.138  0.00  0.00    +0.247 C 
ATOM     31  O   UNL     1      -0.072  -4.271   2.188  0.00  0.00    -0.270 OA
ATOM     32  H   UNL     1       0.315  -4.618  -0.857  0.00  0.00    +0.155 HD
BRANCH  29  37
ATOM     33  C   UNL     1       0.110   1.518   0.103  0.00  0.00    +0.044 C 
ATOM     34  C   UNL     1       0.141   0.012   0.073  0.00  0.00    -0.050 A 
ATOM     35  C   UNL     1      -0.409  -0.668  -0.999  0.00  0.00    +0.005 A 
ATOM     36  C   UNL     1      -0.381  -2.049  -1.030  0.00  0.00    +0.023 A 
ATOM     37  C   UNL     1       0.199  -2.754   0.017  0.00  0.00    +0.034 A 
ATOM     38  C   UNL     1       0.750  -2.068   1.091  0.00  0.00    +0.023 A 
ATOM     39  C   UNL     1       0.724  -0.687   1.114  0.00  0.00    +0.005 A 
ENDBRANCH  29  37
ENDBRANCH   1  30
TORSDOF 6
