REMARK  Name = ZINC09782270
REMARK  7 active torsions:
REMARK  status: ('A' for Active; 'I' for Inactive)
REMARK    1  A    between atoms: C_1  and  C_2
REMARK    2  A    between atoms: C_2  and  C_4
REMARK    3  A    between atoms: C_2  and  N_58
REMARK    4  A    between atoms: C_17  and  C_18
REMARK    5  A    between atoms: C_17  and  N_58
REMARK    6  A    between atoms: C_18  and  C_20
REMARK    7  A    between atoms: C_18  and  C_26
REMARK                            x       y       z     vdW  Elec       q    Type
REMARK                         _______ _______ _______ _____ _____    ______ ____
ROOT
ATOM      1  N   UNL     1       5.307   4.210   1.698  0.00  0.00    +0.387 N 
ATOM      2  H   UNL     1       5.316   3.203   1.897  0.00  0.00    -0.085 HD
ATOM      3  H   UNL     1       5.471   4.362   0.696  0.00  0.00    -0.085 HD
ENDROOT
BRANCH   1   5
ATOM      4  C   UNL     1       6.795   6.161   1.767  0.00  0.00    -0.004 C 
ATOM      5  C   UNL     1       6.376   4.869   2.472  0.00  0.00    +0.013 C 
BRANCH   5   6
ATOM      6  C   UNL     1       7.561   3.942   2.567  0.00  0.00    +0.206 C 
ATOM      7  O   UNL     1       7.617   2.955   1.864  0.00  0.00    -0.277 OA
ATOM      8  N   UNL     1       8.558   4.210   3.433  0.00  0.00    -0.262 N 
ATOM      9  C   UNL     1       8.463   5.335   4.376  0.00  0.00    +0.209 C 
ATOM     10  C   UNL     1       9.788   6.042   4.439  0.00  0.00    +0.235 C 
ATOM     11  O   UNL     1       9.822   7.226   4.698  0.00  0.00    -0.274 OA
ATOM     12  N   UNL     1      10.936   5.378   4.207  0.00  0.00    -0.283 N 
ATOM     13  C   UNL     1      10.921   4.023   3.858  0.00  0.00    +0.055 A 
ATOM     14  C   UNL     1       9.723   3.427   3.461  0.00  0.00    +0.058 A 
ATOM     15  C   UNL     1       9.694   2.091   3.106  0.00  0.00    +0.025 A 
ATOM     16  C   UNL     1      10.859   1.345   3.148  0.00  0.00    +0.002 A 
ATOM     17  C   UNL     1      12.047   1.932   3.543  0.00  0.00    +0.002 A 
ATOM     18  C   UNL     1      12.082   3.268   3.898  0.00  0.00    +0.025 A 
ATOM     19  H   UNL     1      11.783   5.844   4.284  0.00  0.00    +0.155 HD
ENDBRANCH   5   6
ENDBRANCH   1   5
BRANCH   1  20
ATOM     20  C   UNL     1       3.991   4.766   2.066  0.00  0.00    -0.069 C 
BRANCH  20  21
ATOM     21  C   UNL     1       2.904   4.065   1.249  0.00  0.00    +0.034 C 
BRANCH  21  22
ATOM     22  C   UNL     1       1.548   4.539   1.706  0.00  0.00    -0.017 A 
ATOM     23  C   UNL     1       1.094   5.802   1.681  0.00  0.00    +0.087 A 
ATOM     24  N   UNL     1      -0.181   5.848   2.175  0.00  0.00    -0.360 N 
ATOM     25  H   UNL     1      -0.718   6.652   2.257  0.00  0.00    +0.165 HD
ATOM     26  C   UNL     1      -0.589   4.585   2.539  0.00  0.00    +0.047 A 
ATOM     27  C   UNL     1       0.477   3.709   2.261  0.00  0.00    +0.003 A 
ATOM     28  C   UNL     1       0.346   2.345   2.531  0.00  0.00    +0.010 A 
ATOM     29  C   UNL     1      -0.817   1.868   3.066  0.00  0.00    +0.001 A 
ATOM     30  C   UNL     1      -1.873   2.727   3.337  0.00  0.00    +0.002 A 
ATOM     31  C   UNL     1      -1.764   4.077   3.083  0.00  0.00    +0.026 A 
ENDBRANCH  21  22
BRANCH  21  32
ATOM     32  C   UNL     1       3.085   4.390  -0.211  0.00  0.00    -0.042 A 
ATOM     33  C   UNL     1       3.023   5.703  -0.639  0.00  0.00    +0.004 A 
ATOM     34  C   UNL     1       3.193   6.002  -1.978  0.00  0.00    +0.000 A 
ATOM     35  C   UNL     1       3.415   4.988  -2.890  0.00  0.00    +0.000 A 
ATOM     36  C   UNL     1       3.472   3.674  -2.463  0.00  0.00    +0.000 A 
ATOM     37  C   UNL     1       3.306   3.376  -1.123  0.00  0.00    +0.004 A 
ENDBRANCH  21  32
ENDBRANCH  20  21
ENDBRANCH   1  20
TORSDOF 6
