REMARK  Name = ZINC38903253
REMARK  9 active torsions:
REMARK  status: ('A' for Active; 'I' for Inactive)
REMARK    1  A    between atoms: C_1  and  C_2
REMARK    2  A    between atoms: C_12  and  C_14
REMARK    3  A    between atoms: N_19  and  C_21
REMARK    4  A    between atoms: C_21  and  C_22
REMARK    5  A    between atoms: C_24  and  C_27
REMARK    6  A    between atoms: C_30  and  C_33
REMARK    7  A    between atoms: C_33  and  C_34
REMARK    8  A    between atoms: C_33  and  C_35
REMARK    9  A    between atoms: C_33  and  C_36
REMARK                            x       y       z     vdW  Elec       q    Type
REMARK                         _______ _______ _______ _____ _____    ______ ____
ROOT
ATOM      1  C   UNL     1       2.515  -0.746   2.840  0.00  0.00    +0.059 C 
ATOM      2  C   UNL     1       2.522  -2.277   2.859  0.00  0.00    +0.009 C 
ATOM      3  C   UNL     1       3.156  -2.758   4.168  0.00  0.00    -0.018 C 
ATOM      4  C   UNL     1       4.564  -2.170   4.292  0.00  0.00    -0.078 C 
ATOM      5  N   UNL     1       4.487  -0.704   4.293  0.00  0.00    +0.386 N 
ATOM      6  C   UNL     1       3.946  -0.232   3.014  0.00  0.00    -0.065 C 
ATOM      7  H   UNL     1       3.886  -0.401   5.044  0.00  0.00    -0.081 HD
ENDROOT
BRANCH   1  18
ATOM      8  C   UNL     1       0.351   1.856  -0.003  0.00  0.00    +0.029 C 
ATOM      9  C   UNL     1      -0.022   0.381   0.155  0.00  0.00    +0.083 C 
ATOM     10  C   UNL     1      -1.530   0.238   0.418  0.00  0.00    +0.059 C 
ATOM     11  C   UNL     1      -1.620  -0.419   1.777  0.00  0.00    -0.024 A 
ATOM     12  C   UNL     1      -2.715  -0.795   2.531  0.00  0.00    +0.005 A 
ATOM     13  C   UNL     1      -2.537  -1.389   3.766  0.00  0.00    +0.000 A 
ATOM     14  C   UNL     1      -1.258  -1.607   4.246  0.00  0.00    +0.002 A 
ATOM     15  C   UNL     1      -0.163  -1.234   3.497  0.00  0.00    +0.024 A 
ATOM     16  C   UNL     1      -0.335  -0.633   2.248  0.00  0.00    +0.040 A 
ATOM     17  N   UNL     1       0.631  -0.185   1.339  0.00  0.00    -0.268 N 
ATOM     18  C   UNL     1       1.964  -0.262   1.523  0.00  0.00    +0.221 C 
ATOM     19  O   UNL     1       2.719   0.058   0.630  0.00  0.00    -0.275 OA
ENDBRANCH   1  18
BRANCH   5  20
ATOM     20  C   UNL     1       5.832  -0.146   4.491  0.00  0.00    +0.022 C 
BRANCH  20  21
ATOM     21  C   UNL     1       6.335  -0.521   5.861  0.00  0.00    +0.211 A 
ATOM     22  N   UNL     1       7.019  -1.590   6.154  0.00  0.00    -0.193 NA
ATOM     23  C   UNL     1       7.304  -1.608   7.469  0.00  0.00    +0.202 A 
ATOM     24  N   UNL     1       6.794  -0.536   8.023  0.00  0.00    -0.056 NA
ATOM     25  O   UNL     1       6.160   0.192   6.981  0.00  0.00    -0.340 OA
BRANCH  23  26
ATOM     26  C   UNL     1       8.067  -2.668   8.175  0.00  0.00    +0.022 A 
ATOM     27  C   UNL     1       8.562  -3.761   7.468  0.00  0.00    +0.012 A 
ATOM     28  C   UNL     1       9.271  -4.744   8.129  0.00  0.00    +0.005 A 
ATOM     29  C   UNL     1       9.490  -4.644   9.491  0.00  0.00    -0.042 A 
ATOM     30  C   UNL     1       9.000  -3.561  10.198  0.00  0.00    +0.005 A 
ATOM     31  C   UNL     1       8.295  -2.569   9.545  0.00  0.00    +0.012 A 
BRANCH  29  32
ATOM     32  C   UNL     1      10.264  -5.720  10.208  0.00  0.00    -0.013 C 
ATOM     33  C   UNL     1      11.670  -5.820   9.612  0.00  0.00    +0.015 C 
ATOM     34  C   UNL     1      10.363  -5.373  11.694  0.00  0.00    +0.015 C 
ATOM     35  C   UNL     1       9.545  -7.061  10.044  0.00  0.00    +0.015 C 
ENDBRANCH  29  32
ENDBRANCH  23  26
ENDBRANCH  20  21
ENDBRANCH   5  20
TORSDOF 5
