REMARK  Name = ZINC40914117
REMARK  7 active torsions:
REMARK  status: ('A' for Active; 'I' for Inactive)
REMARK    1  A    between atoms: C_1  and  C_2
REMARK    2  A    between atoms: C_6  and  C_8
REMARK    3  A    between atoms: C_8  and  O_9
REMARK    4  A    between atoms: O_9  and  C_10
REMARK    5  A    between atoms: C_11  and  O_32
REMARK    6  A    between atoms: C_13  and  C_17
REMARK    7  A    between atoms: O_32  and  C_33
REMARK                            x       y       z     vdW  Elec       q    Type
REMARK                         _______ _______ _______ _____ _____    ______ ____
ROOT
ATOM      1  C   UNL     1       1.599  -3.746   4.056  0.00  0.00    +0.176 A 
ATOM      2  C   UNL     1       1.682  -3.054   5.261  0.00  0.00    +0.163 A 
ATOM      3  C   UNL     1       1.879  -3.749   6.443  0.00  0.00    +0.055 A 
ATOM      4  C   UNL     1       1.992  -5.128   6.424  0.00  0.00    -0.014 A 
ATOM      5  C   UNL     1       1.910  -5.815   5.228  0.00  0.00    +0.025 A 
ATOM      6  C   UNL     1       1.708  -5.127   4.045  0.00  0.00    +0.063 A 
ATOM      7 BR   UNL     1       1.588  -6.072   2.411  0.00  0.00    -0.046 Br
ENDROOT
BRANCH   4   8
ATOM      8  C   UNL     1       2.206  -5.882   7.711  0.00  0.00    +0.176 C 
ATOM      9  C   UNL     1       1.060  -6.847   7.924  0.00  0.00    +0.041 C 
ATOM     10  C   UNL     1       1.201  -8.178   7.748  0.00  0.00    +0.020 C 
ATOM     11  C   UNL     1       0.034  -9.115   7.952  0.00  0.00    +0.052 C 
ATOM     12  C   UNL     1      -0.897  -8.552   9.027  0.00  0.00    +0.014 C 
ATOM     13  C   UNL     1      -1.373  -7.167   8.575  0.00  0.00    +0.080 C 
ATOM     14  C   UNL     1      -0.173  -6.298   8.319  0.00  0.00    +0.163 C 
ATOM     15  O   UNL     1      -0.271  -5.094   8.456  0.00  0.00    -0.292 OA
ATOM     16  N   UNL     1       2.403  -8.738   7.386  0.00  0.00    -0.287 N 
ATOM     17  C   UNL     1       3.542  -7.956   7.483  0.00  0.00    +0.218 A 
ATOM     18  N   UNL     1       3.464  -6.613   7.640  0.00  0.00    -0.221 N 
ATOM     19  N   UNL     1       4.777  -6.149   7.708  0.00  0.00    -0.156 NA
ATOM     20  C   UNL     1       5.555  -7.197   7.587  0.00  0.00    +0.247 A 
ATOM     21  N   UNL     1       4.803  -8.287   7.450  0.00  0.00    -0.201 NA
ATOM     22  H   UNL     1       2.452  -9.654   7.071  0.00  0.00    +0.155 HD
ENDBRANCH   4   8
BRANCH   2  23
ATOM     23  O   UNL     1       1.571  -1.699   5.278  0.00  0.00    -0.491 OA
ATOM     24  C   UNL     1       1.665  -1.056   6.551  0.00  0.00    +0.277 C 
ENDBRANCH   2  23
BRANCH   1  25
ATOM     25  O   UNL     1       1.406  -3.067   2.893  0.00  0.00    -0.483 OA
BRANCH  25  26
ATOM     26  C   UNL     1       0.054  -2.845   2.489  0.00  0.00    +0.264 C 
BRANCH  26  32
ATOM     27  C   UNL     1      -0.018   1.503   0.010  0.00  0.00    +0.044 C 
ATOM     28  C   UNL     1       0.002  -0.004   0.002  0.00  0.00    -0.050 A 
ATOM     29  C   UNL     1       0.006  -0.689  -1.199  0.00  0.00    +0.003 A 
ATOM     30  C   UNL     1       0.025  -2.071  -1.207  0.00  0.00    +0.001 A 
ATOM     31  C   UNL     1       0.040  -2.768  -0.013  0.00  0.00    +0.007 A 
ATOM     32  C   UNL     1       0.037  -2.084   1.188  0.00  0.00    -0.010 A 
ATOM     33  C   UNL     1       0.023  -0.702   1.195  0.00  0.00    +0.010 A 
ENDBRANCH  26  32
ENDBRANCH  25  26
ENDBRANCH   1  25
TORSDOF 5
