REMARK  Name = ZINC13148587
REMARK  5 active torsions:
REMARK  status: ('A' for Active; 'I' for Inactive)
REMARK    1  A    between atoms: C_1  and  C_2
REMARK    2  A    between atoms: C_7  and  N_8
REMARK    3  A    between atoms: C_17  and  S_18
REMARK    4  A    between atoms: S_18  and  C_19
REMARK    5  A    between atoms: C_19  and  C_20
REMARK                            x       y       z     vdW  Elec       q    Type
REMARK                         _______ _______ _______ _____ _____    ______ ____
ROOT
ATOM      1  N   UNL     1       4.524   4.992   1.355  0.00  0.00    -0.255 N 
ATOM      2  C   UNL     1       3.589   4.157   0.863  0.00  0.00    +0.268 A 
ATOM      3  O   UNL     1       3.299   4.182  -0.320  0.00  0.00    -0.267 OA
ATOM      4  C   UNL     1       2.941   3.241   1.751  0.00  0.00    +0.076 A 
ATOM      5  C   UNL     1       1.905   2.253   1.430  0.00  0.00    -0.023 A 
ATOM      6  C   UNL     1       1.439   1.509   2.453  0.00  0.00    -0.004 A 
ATOM      7  S   UNL     1       2.350   2.054   3.875  0.00  0.00    -0.073 S 
ATOM      8  C   UNL     1       3.348   3.295   3.093  0.00  0.00    +0.117 A 
ATOM      9  N   UNL     1       4.279   4.142   3.516  0.00  0.00    -0.215 NA
ATOM     10  C   UNL     1       4.862   4.977   2.679  0.00  0.00    +0.178 A 
ATOM     11  C   UNL     1       0.382   0.449   2.412  0.00  0.00    +0.043 C 
ATOM     12  C   UNL     1       0.684  -0.523   1.264  0.00  0.00    +0.005 C 
ATOM     13  C   UNL     1       0.002  -0.004   0.002  0.00  0.00    +0.001 C 
ATOM     14  C   UNL     1      -0.019   1.523   0.010  0.00  0.00    +0.005 C 
ATOM     15  C   UNL     1       1.401   2.078  -0.000  0.00  0.00    +0.037 C 
ENDROOT
BRANCH   1  22
ATOM     16  C   UNL     1       6.911   4.149   0.054  0.00  0.00    +0.046 C 
ATOM     17  C   UNL     1       6.329   5.522  -0.162  0.00  0.00    -0.026 A 
ATOM     18  C   UNL     1       6.956   6.413  -1.012  0.00  0.00    +0.005 A 
ATOM     19  C   UNL     1       6.422   7.673  -1.210  0.00  0.00    +0.000 A 
ATOM     20  C   UNL     1       5.260   8.046  -0.560  0.00  0.00    +0.002 A 
ATOM     21  C   UNL     1       4.626   7.158   0.286  0.00  0.00    +0.026 A 
ATOM     22  C   UNL     1       5.162   5.893   0.492  0.00  0.00    +0.055 A 
ENDBRANCH   1  22
BRANCH  10  23
ATOM     23  S   UNL     1       6.092   6.089   3.275  0.00  0.00    -0.079 S 
BRANCH  23  24
ATOM     24  C   UNL     1       6.112   5.627   5.025  0.00  0.00    +0.153 C 
BRANCH  24  25
ATOM     25  C   UNL     1       7.122   6.473   5.756  0.00  0.00    +0.146 A 
ATOM     26  N   UNL     1       8.372   6.059   5.865  0.00  0.00    -0.199 NA
ATOM     27  C   UNL     1       9.268   6.806   6.507  0.00  0.00    +0.217 A 
ATOM     28  N   UNL     1       8.902   7.963   7.046  0.00  0.00    -0.181 NA
ATOM     29  C   UNL     1       7.643   8.373   6.939  0.00  0.00    +0.217 A 
ATOM     30  N   UNL     1       6.753   7.623   6.292  0.00  0.00    -0.199 NA
ATOM     31  N   UNL     1       7.257   9.574   7.498  0.00  0.00    -0.327 N 
ATOM     32  N   UNL     1      10.575   6.376   6.616  0.00  0.00    -0.327 N 
ATOM     33  H   UNL     1       6.337   9.873   7.420  0.00  0.00    +0.145 HD
ATOM     34  H   UNL     1       7.905  10.120   7.970  0.00  0.00    +0.145 HD
ATOM     35  H   UNL     1      11.227   6.919   7.086  0.00  0.00    +0.145 HD
ATOM     36  H   UNL     1      10.842   5.531   6.221  0.00  0.00    +0.145 HD
ENDBRANCH  24  25
ENDBRANCH  23  24
ENDBRANCH  10  23
TORSDOF 4
