REMARK  Name = ZINC33122345
REMARK  13 active torsions:
REMARK  status: ('A' for Active; 'I' for Inactive)
REMARK    1  A    between atoms: C_1  and  C_2
REMARK    2  A    between atoms: C_2  and  C_3
REMARK    3  A    between atoms: C_3  and  C_4
REMARK    4  A    between atoms: C_5  and  C_34
REMARK    5  A    between atoms: C_12  and  S_13
REMARK    6  A    between atoms: S_13  and  C_14
REMARK    7  A    between atoms: C_17  and  N_20
REMARK    8  A    between atoms: N_20  and  S_21
REMARK    9  A    between atoms: S_21  and  C_24
REMARK   10  A    between atoms: C_27  and  O_32
REMARK   11  A    between atoms: C_28  and  O_30
REMARK   12  A    between atoms: O_30  and  C_31
REMARK   13  A    between atoms: O_32  and  C_33
REMARK                            x       y       z     vdW  Elec       q    Type
REMARK                         _______ _______ _______ _____ _____    ______ ____
ROOT
ATOM      1  C   UNL     1       1.281  -0.676  -0.087  0.00  0.00    +0.014 A 
ATOM      2  C   UNL     1       0.058  -0.017  -0.121  0.00  0.00    +0.017 A 
ATOM      3  C   UNL     1       0.016   1.362  -0.089  0.00  0.00    +0.025 A 
ATOM      4  C   UNL     1       1.197   2.091  -0.023  0.00  0.00    +0.048 A 
ATOM      5  C   UNL     1       2.419   1.433   0.011  0.00  0.00    +0.025 A 
ATOM      6  C   UNL     1       2.461   0.053  -0.021  0.00  0.00    +0.017 A 
ENDROOT
BRANCH   4   7
ATOM      7  N   UNL     1       1.154   3.490   0.009  0.00  0.00    -0.216 N 
ATOM      8  H   UNL     1       0.507   4.037  -0.692  0.00  0.00    +0.174 HD
BRANCH   7   9
ATOM      9  S   UNL     1       2.078   4.321   1.104  0.00  0.00    +0.072 S 
ATOM     10  O   UNL     1       3.409   3.844   0.957  0.00  0.00    -0.150 OA
ATOM     11  O   UNL     1       1.741   5.694   0.960  0.00  0.00    -0.150 OA
BRANCH   9  12
ATOM     12  C   UNL     1       1.544   3.837   2.711  0.00  0.00    +0.112 A 
ATOM     13  C   UNL     1       0.466   4.472   3.300  0.00  0.00    +0.032 A 
ATOM     14  C   UNL     1       0.039   4.092   4.559  0.00  0.00    +0.051 A 
ATOM     15  C   UNL     1       0.699   3.080   5.238  0.00  0.00    +0.162 A 
ATOM     16  C   UNL     1       1.787   2.445   4.648  0.00  0.00    +0.163 A 
ATOM     17  C   UNL     1       2.206   2.827   3.384  0.00  0.00    +0.078 A 
BRANCH  16  18
ATOM     18  O   UNL     1       2.438   1.452   5.310  0.00  0.00    -0.491 OA
ATOM     19  C   UNL     1       3.546   0.845   4.643  0.00  0.00    +0.277 C 
ENDBRANCH  16  18
BRANCH  15  20
ATOM     20  O   UNL     1       0.284   2.709   6.479  0.00  0.00    -0.491 OA
ATOM     21  C   UNL     1      -0.840   3.405   7.022  0.00  0.00    +0.277 C 
ENDBRANCH  15  20
ENDBRANCH   9  12
ENDBRANCH   7   9
ENDBRANCH   4   7
BRANCH   1  22
ATOM     22  S   UNL     1       1.334  -2.437  -0.128  0.00  0.00    -0.069 S 
BRANCH  22  31
ATOM     23  C   UNL     1       3.711  -2.925   1.143  0.00  0.00    +0.006 A 
ATOM     24  C   UNL     1       5.088  -3.122   1.154  0.00  0.00    +0.048 A 
ATOM     25  N   UNL     1       5.777  -3.087   0.032  0.00  0.00    -0.216 NA
ATOM     26  C   UNL     1       5.178  -2.863  -1.143  0.00  0.00    +0.254 A 
ATOM     27  N   UNL     1       5.642  -2.782  -2.385  0.00  0.00    -0.197 NA
ATOM     28  C   UNL     1       4.642  -2.540  -3.224  0.00  0.00    +0.247 A 
ATOM     29  N   UNL     1       3.518  -2.459  -2.555  0.00  0.00    -0.151 NA
ATOM     30  N   UNL     1       3.826  -2.668  -1.205  0.00  0.00    -0.190 N 
ATOM     31  C   UNL     1       3.076  -2.692  -0.064  0.00  0.00    +0.112 A 
ATOM     32  C   UNL     1       5.797  -3.378   2.459  0.00  0.00    +0.066 C 
BRANCH  23  33
ATOM     33  C   UNL     1       2.922  -2.964   2.426  0.00  0.00    +0.039 C 
BRANCH  33  35
ATOM     34  C   UNL     1       1.652  -4.436   3.996  0.00  0.00    +0.004 C 
ATOM     35  C   UNL     1       2.453  -4.396   2.693  0.00  0.00    +0.001 C 
ENDBRANCH  33  35
ENDBRANCH  23  33
ENDBRANCH  22  31
ENDBRANCH   1  22
TORSDOF 9
