REMARK  Name = ZINC09541636
REMARK  9 active torsions:
REMARK  status: ('A' for Active; 'I' for Inactive)
REMARK    1  A    between atoms: C_1  and  C_2
REMARK    2  A    between atoms: C_2  and  C_3
REMARK    3  A    between atoms: C_6  and  C_9
REMARK    4  A    between atoms: C_11  and  C_26
REMARK    5  A    between atoms: C_13  and  C_16
REMARK    6  A    between atoms: C_20  and  O_23
REMARK    7  A    between atoms: C_21  and  O_22
REMARK    8  A    between atoms: O_23  and  C_24
REMARK    9  A    between atoms: C_24  and  C_25
REMARK                            x       y       z     vdW  Elec       q    Type
REMARK                         _______ _______ _______ _____ _____    ______ ____
ROOT
ATOM      1  C   UNL     1      -0.209   2.529  -4.320  0.00  0.00    +0.040 C 
ATOM      2  N   UNL     1       0.363   1.734  -5.143  0.00  0.00    -0.299 NA
ATOM      3  C   UNL     1       1.496   0.882  -4.805  0.00  0.00    +0.081 C 
ATOM      4  C   UNL     1       1.147   1.523  -2.506  0.00  0.00    -0.028 C 
ATOM      5  C   UNL     1       0.233   2.689  -2.892  0.00  0.00    +0.044 C 
ATOM      6  N   UNL     1       2.151   1.349  -3.574  0.00  0.00    +0.401 N 
ATOM      7  H   UNL     1       2.615   2.248  -3.754  0.00  0.00    -0.081 HD
ATOM      8  H   UNL     1       2.849   0.658  -3.276  0.00  0.00    -0.081 HD
ENDROOT
BRANCH   3   9
ATOM      9  C   UNL     1       1.013  -0.531  -4.606  0.00  0.00    -0.040 A 
ATOM     10  C   UNL     1       1.690  -1.379  -3.749  0.00  0.00    +0.005 A 
ATOM     11  C   UNL     1       1.244  -2.674  -3.563  0.00  0.00    +0.015 A 
ATOM     12  C   UNL     1       0.127  -3.125  -4.242  0.00  0.00    +0.018 A 
ATOM     13  C   UNL     1      -0.548  -2.278  -5.103  0.00  0.00    +0.015 A 
ATOM     14  C   UNL     1      -0.104  -0.982  -5.284  0.00  0.00    +0.005 A 
ATOM     15 BR   UNL     1      -0.479  -4.899  -3.993  0.00  0.00    -0.050 Br
ENDBRANCH   3   9
BRANCH   1  19
ATOM     16  C   UNL     1      -3.508   4.826  -5.686  0.00  0.00    -0.048 A 
ATOM     17  C   UNL     1      -2.868   3.957  -6.552  0.00  0.00    +0.004 A 
ATOM     18  C   UNL     1      -1.795   3.208  -6.115  0.00  0.00    +0.010 A 
ATOM     19  C   UNL     1      -1.356   3.328  -4.795  0.00  0.00    -0.004 A 
ATOM     20  C   UNL     1      -2.010   4.203  -3.925  0.00  0.00    +0.010 A 
ATOM     21  C   UNL     1      -3.077   4.950  -4.377  0.00  0.00    +0.004 A 
BRANCH  16  23
ATOM     22  C   UNL     1      -5.974   4.860  -5.939  0.00  0.00    +0.009 C 
ATOM     23  C   UNL     1      -4.679   5.641  -6.171  0.00  0.00    +0.032 C 
ENDBRANCH  16  23
ENDBRANCH   1  19
BRANCH   4  24
ATOM     24  C   UNL     1       1.842   1.830  -1.204  0.00  0.00    -0.016 A 
ATOM     25  C   UNL     1       3.098   2.410  -1.212  0.00  0.00    +0.006 A 
ATOM     26  C   UNL     1       3.738   2.693  -0.020  0.00  0.00    +0.004 A 
ATOM     27  C   UNL     1       3.126   2.399   1.184  0.00  0.00    +0.049 A 
ATOM     28  C   UNL     1       1.866   1.824   1.199  0.00  0.00    +0.162 A 
ATOM     29  C   UNL     1       1.224   1.533  -0.001  0.00  0.00    +0.160 A 
BRANCH  29  30
ATOM     30  O   UNL     1      -0.011   0.963   0.007  0.00  0.00    -0.503 OA
ATOM     31  H   UNL     1       0.002  -0.004   0.002  0.00  0.00    +0.292 HD
ENDBRANCH  29  30
BRANCH  28  32
ATOM     32  O   UNL     1       1.260   1.539   2.382  0.00  0.00    -0.489 OA
BRANCH  32  33
ATOM     33  C   UNL     1       1.979   1.865   3.574  0.00  0.00    +0.226 C 
ATOM     34  C   UNL     1       1.145   1.475   4.795  0.00  0.00    +0.048 C 
ENDBRANCH  32  33
ENDBRANCH  28  32
ENDBRANCH   4  24
TORSDOF 7
