REMARK  Name = ZINC13030905
REMARK  13 active torsions:
REMARK  status: ('A' for Active; 'I' for Inactive)
REMARK    1  A    between atoms: C_1  and  C_2
REMARK    2  A    between atoms: C_2  and  C_3
REMARK    3  A    between atoms: C_2  and  C_4
REMARK    4  A    between atoms: C_4  and  C_5
REMARK    5  A    between atoms: C_5  and  N_6
REMARK    6  A    between atoms: C_7  and  C_9
REMARK    7  A    between atoms: C_9  and  C_11
REMARK    8  A    between atoms: C_9  and  N_17
REMARK    9  A    between atoms: N_17  and  C_18
REMARK   10  A    between atoms: C_23  and  O_24
REMARK   11  A    between atoms: O_24  and  C_25
REMARK   12  A    between atoms: C_27  and  C_29
REMARK   13  A    between atoms: C_29  and  N_30
REMARK                            x       y       z     vdW  Elec       q    Type
REMARK                         _______ _______ _______ _____ _____    ______ ____
ROOT
ATOM      1  N   UNL     1       0.006   0.053  -0.007  0.00  0.00    -0.250 N 
ATOM      2  C   UNL     1       0.019   1.353  -0.364  0.00  0.00    +0.242 C 
ATOM      3  O   UNL     1       1.073   1.913  -0.576  0.00  0.00    -0.273 OA
ENDROOT
BRANCH   1   4
ATOM      4  C   UNL     1      -1.212  -0.595   0.238  0.00  0.00    +0.081 A 
ATOM      5  C   UNL     1      -1.896  -1.205  -0.803  0.00  0.00    +0.047 A 
ATOM      6  C   UNL     1      -3.098  -1.844  -0.559  0.00  0.00    +0.043 A 
ATOM      7  C   UNL     1      -3.621  -1.875   0.722  0.00  0.00    +0.024 A 
ATOM      8  C   UNL     1      -2.943  -1.269   1.764  0.00  0.00    +0.049 A 
ATOM      9  C   UNL     1      -1.736  -0.632   1.528  0.00  0.00    +0.142 A 
ATOM     10 CL   UNL     1      -3.954  -2.607  -1.863  0.00  0.00    -0.083 Cl
BRANCH   9  11
ATOM     11  O   UNL     1      -1.066  -0.041   2.553  0.00  0.00    -0.493 OA
ATOM     12  C   UNL     1      -1.663  -0.118   3.849  0.00  0.00    +0.277 C 
ENDBRANCH   9  11
ENDBRANCH   1   4
BRANCH   1  13
ATOM     13  C   UNL     1       1.266  -0.682   0.124  0.00  0.00    +0.199 C 
BRANCH  13  14
ATOM     14  C   UNL     1       1.327  -1.337   1.481  0.00  0.00    +0.000 A 
ATOM     15  C   UNL     1       0.452  -2.362   1.805  0.00  0.00    +0.009 A 
ATOM     16  C   UNL     1       0.544  -2.934   3.065  0.00  0.00    +0.020 A 
ATOM     17  C   UNL     1       1.498  -2.467   3.949  0.00  0.00    +0.111 A 
ATOM     18  N   UNL     1       2.315  -1.490   3.605  0.00  0.00    -0.263 NA
ATOM     19  C   UNL     1       2.259  -0.926   2.414  0.00  0.00    +0.116 A 
ENDBRANCH  13  14
BRANCH  13  21
ATOM     20  N   UNL     1       2.424  -2.544  -1.022  0.00  0.00    -0.313 N 
ATOM     21  C   UNL     1       1.345  -1.739  -0.947  0.00  0.00    +0.238 C 
ATOM     22  O   UNL     1       0.438  -1.866  -1.742  0.00  0.00    -0.273 OA
ATOM     23  H   UNL     1       3.149  -2.443  -0.386  0.00  0.00    +0.149 HD
BRANCH  20  24
ATOM     24  C   UNL     1       2.501  -3.571  -2.063  0.00  0.00    +0.104 C 
BRANCH  24  25
ATOM     25  C   UNL     1       3.817  -4.340  -1.926  0.00  0.00    +0.022 C 
BRANCH  25  27
ATOM     26  C   UNL     1       5.264  -6.097  -2.955  0.00  0.00    +0.007 C 
ATOM     27  C   UNL     1       3.897  -5.412  -3.014  0.00  0.00    -0.016 C 
ATOM     28  C   UNL     1       2.797  -6.451  -2.788  0.00  0.00    +0.007 C 
ENDBRANCH  25  27
ENDBRANCH  24  25
ENDBRANCH  20  24
ENDBRANCH  13  21
ENDBRANCH   1  13
BRANCH   2  29
ATOM     29  C   UNL     1      -1.278   2.108  -0.505  0.00  0.00    +0.242 C 
BRANCH  29  30
ATOM     30  N   UNL     1      -0.997   3.491  -0.898  0.00  0.00    -0.235 N 
ATOM     31  C   UNL     1      -0.792   4.559  -0.057  0.00  0.00    +0.090 A 
ATOM     32  C   UNL     1      -0.761   4.709   1.325  0.00  0.00    +0.029 A 
ATOM     33  C   UNL     1      -0.515   5.938   1.869  0.00  0.00    +0.002 A 
ATOM     34  C   UNL     1      -0.290   7.040   1.054  0.00  0.00    +0.002 A 
ATOM     35  C   UNL     1      -0.309   6.918  -0.304  0.00  0.00    +0.032 A 
ATOM     36  C   UNL     1      -0.558   5.669  -0.888  0.00  0.00    +0.113 A 
ATOM     37  N   UNL     1      -0.638   5.247  -2.166  0.00  0.00    -0.129 NA
ATOM     38  N   UNL     1      -0.892   3.987  -2.206  0.00  0.00    -0.064 NA
ENDBRANCH  29  30
ENDBRANCH   2  29
TORSDOF 10
