REMARK  Name = ZINC38890451
REMARK  7 active torsions:
REMARK  status: ('A' for Active; 'I' for Inactive)
REMARK    1  A    between atoms: C_1  and  C_2
REMARK    2  A    between atoms: C_5  and  C_8
REMARK    3  A    between atoms: C_10  and  C_13
REMARK    4  A    between atoms: C_13  and  N_14
REMARK    5  A    between atoms: C_18  and  C_21
REMARK    6  A    between atoms: N_26  and  C_29
REMARK    7  A    between atoms: C_34  and  C_35
REMARK                            x       y       z     vdW  Elec       q    Type
REMARK                         _______ _______ _______ _____ _____    ______ ____
ROOT
ATOM      1  N   UNL     1      -1.265  -7.885   1.953  0.00  0.00    +0.386 N 
ATOM      2  C   UNL     1      -1.927  -8.344   0.727  0.00  0.00    -0.078 C 
ATOM      3  C   UNL     1      -3.391  -8.676   1.026  0.00  0.00    -0.018 C 
ATOM      4  C   UNL     1      -3.451  -9.780   2.085  0.00  0.00    +0.009 C 
ATOM      5  C   UNL     1      -2.694  -9.319   3.334  0.00  0.00    +0.059 C 
ATOM      6  C   UNL     1      -1.256  -8.964   2.949  0.00  0.00    -0.065 C 
ATOM      7  H   UNL     1      -1.763  -7.090   2.325  0.00  0.00    -0.081 HD
ENDROOT
BRANCH   5   8
ATOM      8  C   UNL     1      -2.682 -10.428   4.354  0.00  0.00    +0.217 C 
ATOM      9  O   UNL     1      -1.830 -11.290   4.304  0.00  0.00    -0.275 OA
ATOM     10  N   UNL     1      -3.620 -10.463   5.322  0.00  0.00    -0.298 N 
ATOM     11  C   UNL     1      -4.730  -9.501   5.322  0.00  0.00    +0.126 C 
ATOM     12  C   UNL     1      -6.052 -10.278   5.355  0.00  0.00    +0.124 C 
ATOM     13  N   UNL     1      -5.982 -11.279   6.428  0.00  0.00    -0.327 N 
ATOM     14  C   UNL     1      -4.872 -12.242   6.428  0.00  0.00    +0.124 C 
ATOM     15  C   UNL     1      -3.553 -11.468   6.392  0.00  0.00    +0.126 C 
BRANCH  13  16
ATOM     16  C   UNL     1      -6.953 -11.315   7.431  0.00  0.00    +0.034 A 
ATOM     17  C   UNL     1      -8.092 -12.095   7.270  0.00  0.00    +0.043 A 
ATOM     18  C   UNL     1      -9.051 -12.128   8.265  0.00  0.00    +0.043 A 
ATOM     19  C   UNL     1      -8.877 -11.385   9.420  0.00  0.00    +0.020 A 
ATOM     20  C   UNL     1      -7.745 -10.609   9.583  0.00  0.00    +0.006 A 
ATOM     21  C   UNL     1      -6.780 -10.576   8.595  0.00  0.00    -0.029 A 
ATOM     22  C   UNL     1      -5.543  -9.734   8.776  0.00  0.00    +0.045 C 
ATOM     23 CL   UNL     1     -10.474 -13.101   8.065  0.00  0.00    -0.083 Cl
ENDBRANCH  13  16
ENDBRANCH   5   8
BRANCH   1  24
ATOM     24  C   UNL     1       0.117  -7.494   1.645  0.00  0.00    +0.022 C 
BRANCH  24  27
ATOM     25  C   UNL     1       0.097  -4.259  -0.001  0.00  0.00    +0.202 A 
ATOM     26  N   UNL     1       0.105  -5.055   1.083  0.00  0.00    -0.193 NA
ATOM     27  C   UNL     1       0.108  -6.306   0.718  0.00  0.00    +0.211 A 
ATOM     28  O   UNL     1       0.102  -6.357  -0.621  0.00  0.00    -0.340 OA
ATOM     29  N   UNL     1       0.090  -5.012  -1.074  0.00  0.00    -0.056 NA
BRANCH  25  34
ATOM     30  C   UNL     1       0.073   1.500   0.060  0.00  0.00    +0.044 C 
ATOM     31  C   UNL     1       0.080  -0.007   0.044  0.00  0.00    -0.050 A 
ATOM     32  C   UNL     1       0.072  -0.683  -1.163  0.00  0.00    +0.004 A 
ATOM     33  C   UNL     1       0.077  -2.063  -1.183  0.00  0.00    +0.012 A 
ATOM     34  C   UNL     1       0.091  -2.775   0.015  0.00  0.00    +0.022 A 
ATOM     35  C   UNL     1       0.099  -2.089   1.227  0.00  0.00    +0.012 A 
ATOM     36  C   UNL     1       0.099  -0.709   1.236  0.00  0.00    +0.004 A 
ENDBRANCH  25  34
ENDBRANCH  24  27
ENDBRANCH   1  24
TORSDOF 5
