REMARK  Name = ZINC39012093
REMARK  8 active torsions:
REMARK  status: ('A' for Active; 'I' for Inactive)
REMARK    1  A    between atoms: C_1  and  C_2
REMARK    2  A    between atoms: C_7  and  N_8
REMARK    3  A    between atoms: C_9  and  C_11
REMARK    4  A    between atoms: C_11  and  S_12
REMARK    5  A    between atoms: S_12  and  C_13
REMARK    6  A    between atoms: C_17  and  C_21
REMARK    7  A    between atoms: N_19  and  N_20
REMARK    8  A    between atoms: C_24  and  C_27
REMARK                            x       y       z     vdW  Elec       q    Type
REMARK                         _______ _______ _______ _____ _____    ______ ____
ROOT
ATOM      1  C   UNL     1       0.563   0.240   7.485  0.00  0.00    +0.214 C 
ATOM      2  N   UNL     1       1.831   1.003   7.348  0.00  0.00    -0.228 NA
ATOM      3  N   UNL     1       1.566   2.230   8.117  0.00  0.00    -0.234 NA
ATOM      4  C   UNL     1       0.148   2.546   7.829  0.00  0.00    +0.185 C 
ATOM      5  N   UNL     1      -0.495   1.275   7.429  0.00  0.00    -0.197 NA
ATOM      6  H   UNL     1       2.023   1.217   6.381  0.00  0.00    +0.143 HD
ATOM      7  H   UNL     1       2.171   2.980   7.820  0.00  0.00    +0.143 HD
ENDROOT
BRANCH   4   8
ATOM      8  C   UNL     1      -0.529   3.103   9.082  0.00  0.00    +0.187 C 
ATOM      9  C   UNL     1       0.099   4.424   9.490  0.00  0.00    +0.034 C 
ATOM     10  C   UNL     1       0.597   4.179  10.717  0.00  0.00    +0.091 C 
ATOM     11  N   UNL     1       0.345   2.895  11.084  0.00  0.00    -0.154 NA
ATOM     12  N   UNL     1      -0.273   2.233  10.242  0.00  0.00    -0.176 NA
BRANCH  10  13
ATOM     13  C   UNL     1       1.319   5.172  11.552  0.00  0.00    +0.002 A 
ATOM     14  C   UNL     1       1.519   6.468  11.080  0.00  0.00    +0.013 A 
ATOM     15  C   UNL     1       2.190   7.387  11.859  0.00  0.00    +0.039 A 
ATOM     16  C   UNL     1       2.666   7.024  13.108  0.00  0.00    +0.123 A 
ATOM     17  C   UNL     1       2.469   5.736  13.581  0.00  0.00    +0.039 A 
ATOM     18  C   UNL     1       1.794   4.812  12.812  0.00  0.00    +0.013 A 
ATOM     19  F   UNL     1       3.323   7.927  13.868  0.00  0.00    -0.205 F 
ENDBRANCH  10  13
ENDBRANCH   4   8
BRANCH   5  20
ATOM     20  N   UNL     1      -1.057   1.375   6.091  0.00  0.00    -0.264 NA
ATOM     21  H   UNL     1      -1.552   0.531   5.844  0.00  0.00    +0.137 HD
ATOM     22  H   UNL     1      -1.655   2.183   6.010  0.00  0.00    +0.137 HD
ENDBRANCH   5  20
BRANCH   1  23
ATOM     23  S   UNL     1       0.377  -0.932   6.113  0.00  0.00    -0.115 S 
BRANCH  23  24
ATOM     24  C   UNL     1       1.415  -2.340   6.596  0.00  0.00    +0.168 C 
BRANCH  24  26
ATOM     25  N   UNL     1       2.161  -4.482   5.610  0.00  0.00    -0.285 N 
ATOM     26  C   UNL     1       1.447  -3.347   5.475  0.00  0.00    +0.227 C 
ATOM     27  O   UNL     1       0.831  -3.136   4.452  0.00  0.00    -0.275 OA
ATOM     28  H   UNL     1       2.597  -4.684   6.453  0.00  0.00    +0.155 HD
BRANCH  25  35
ATOM     29  C   UNL     1       4.587  -5.940   5.318  0.00  0.00    +0.045 C 
ATOM     30  C   UNL     1       3.440  -6.102   4.355  0.00  0.00    -0.029 A 
ATOM     31  C   UNL     1       3.545  -6.982   3.296  0.00  0.00    +0.005 A 
ATOM     32  C   UNL     1       2.493  -7.131   2.411  0.00  0.00    +0.000 A 
ATOM     33  C   UNL     1       1.331  -6.400   2.585  0.00  0.00    +0.002 A 
ATOM     34  C   UNL     1       1.219  -5.519   3.642  0.00  0.00    +0.023 A 
ATOM     35  C   UNL     1       2.273  -5.370   4.535  0.00  0.00    +0.036 A 
ENDBRANCH  25  35
ENDBRANCH  24  26
ENDBRANCH  23  24
ENDBRANCH   1  23
TORSDOF 7
