REMARK  Name = ZINC55911373
REMARK  6 active torsions:
REMARK  status: ('A' for Active; 'I' for Inactive)
REMARK    1  A    between atoms: C_1  and  C_2
REMARK    2  A    between atoms: C_2  and  C_3
REMARK    3  A    between atoms: C_13  and  C_15
REMARK    4  A    between atoms: C_15  and  N_16
REMARK    5  A    between atoms: C_19  and  C_22
REMARK    6  A    between atoms: N_24  and  C_25
REMARK                            x       y       z     vdW  Elec       q    Type
REMARK                         _______ _______ _______ _____ _____    ______ ____
ROOT
ATOM      1  C   UNL     1       0.742  -0.511   1.242  0.00  0.00    -0.006 C 
ATOM      2  C   UNL     1       0.868  -2.036   1.177  0.00  0.00    +0.010 C 
ATOM      3  C   UNL     1       1.811  -2.534   2.274  0.00  0.00    +0.056 C 
ATOM      4  C   UNL     1       1.347  -1.969   3.609  0.00  0.00    +0.054 A 
ATOM      5  C   UNL     1       0.516  -0.896   3.654  0.00  0.00    +0.015 A 
ATOM      6  S   UNL     1       0.291  -0.653   5.393  0.00  0.00    -0.057 S 
ATOM      7  C   UNL     1       1.264  -1.925   5.919  0.00  0.00    +0.165 A 
ATOM      8  N   UNL     1       1.698  -2.454   4.796  0.00  0.00    -0.229 NA
ATOM      9  N   UNL     1       1.542  -2.319   7.223  0.00  0.00    -0.266 N 
ATOM     10  C   UNL     1       2.352  -3.371   7.452  0.00  0.00    +0.202 C 
ATOM     11  O   UNL     1       2.839  -3.975   6.519  0.00  0.00    -0.277 OA
ATOM     12  C   UNL     1      -0.047  -0.129   2.505  0.00  0.00    +0.048 C 
ATOM     13  H   UNL     1       1.152  -1.836   7.969  0.00  0.00    +0.157 HD
ENDROOT
BRANCH   1  15
ATOM     14  C   UNL     1      -0.019   1.526   0.010  0.00  0.00    +0.004 C 
ATOM     15  C   UNL     1       0.002  -0.004   0.002  0.00  0.00    +0.000 C 
ENDBRANCH   1  15
BRANCH  10  16
ATOM     16  C   UNL     1       2.652  -3.798   8.866  0.00  0.00    +0.019 C 
BRANCH  16  17
ATOM     17  N   UNL     1       3.552  -4.959   8.846  0.00  0.00    +0.385 N 
ATOM     18  C   UNL     1       2.864  -6.098   8.225  0.00  0.00    -0.077 C 
ATOM     19  C   UNL     1       3.823  -7.287   8.129  0.00  0.00    -0.006 C 
ATOM     20  C   UNL     1       4.290  -7.674   9.534  0.00  0.00    +0.071 C 
ATOM     21  C   UNL     1       4.939  -6.457  10.200  0.00  0.00    -0.006 C 
ATOM     22  C   UNL     1       3.939  -5.300  10.220  0.00  0.00    -0.077 C 
ATOM     23  H   UNL     1       4.377  -4.735   8.311  0.00  0.00    -0.081 HD
BRANCH  20  24
ATOM     24  C   UNL     1       5.295  -8.793   9.441  0.00  0.00    +0.216 C 
ATOM     25  O   UNL     1       5.609  -9.238   8.357  0.00  0.00    -0.276 OA
ATOM     26  N   UNL     1       5.846  -9.300  10.562  0.00  0.00    -0.312 N 
ATOM     27  H   UNL     1       5.596  -8.944  11.429  0.00  0.00    +0.149 HD
BRANCH  26  28
ATOM     28  C   UNL     1       6.823 -10.388  10.471  0.00  0.00    +0.073 C 
ATOM     29  C   UNL     1       6.687 -11.545  11.463  0.00  0.00    +0.024 C 
ATOM     30  C   UNL     1       7.825 -10.535  11.617  0.00  0.00    +0.024 C 
ENDBRANCH  26  28
ENDBRANCH  20  24
ENDBRANCH  16  17
ENDBRANCH  10  16
TORSDOF 5
