REMARK  Name = ZINC34755504
REMARK  6 active torsions:
REMARK  status: ('A' for Active; 'I' for Inactive)
REMARK    1  A    between atoms: C_1  and  N_2
REMARK    2  A    between atoms: C_12  and  O_14
REMARK    3  A    between atoms: O_14  and  C_15
REMARK    4  A    between atoms: N_23  and  C_26
REMARK    5  A    between atoms: C_26  and  C_27
REMARK    6  A    between atoms: C_30  and  C_33
REMARK                            x       y       z     vdW  Elec       q    Type
REMARK                         _______ _______ _______ _____ _____    ______ ____
ROOT
ATOM      1  C   UNL     1      -1.798   0.069  -0.115  0.00  0.00    -0.096 C 
ATOM      2  N   UNL     1      -1.448  -1.358  -0.122  0.00  0.00    +0.380 N 
ATOM      3  C   UNL     1      -0.647  -1.658  -1.315  0.00  0.00    -0.060 C 
ATOM      4  C   UNL     1      -0.379  -3.165  -1.383  0.00  0.00    +0.089 C 
ATOM      5  N   UNL     1       0.237  -3.587  -0.116  0.00  0.00    -0.303 N 
ATOM      6  C   UNL     1      -0.416  -3.186   1.140  0.00  0.00    +0.089 C 
ATOM      7  C   UNL     1      -0.682  -1.678   1.089  0.00  0.00    -0.060 C 
ATOM      8  C   UNL     1       1.399  -4.340  -0.105  0.00  0.00    +0.221 A 
ATOM      9  N   UNL     1       1.864  -4.793   1.049  0.00  0.00    -0.219 NA
ATOM     10  C   UNL     1       2.974  -5.520   1.100  0.00  0.00    +0.056 A 
ATOM     11  C   UNL     1       3.644  -5.804  -0.068  0.00  0.00    +0.050 A 
ATOM     12  C   UNL     1       3.131  -5.311  -1.270  0.00  0.00    +0.230 A 
ATOM     13  N   UNL     1       2.014  -4.595  -1.250  0.00  0.00    -0.179 NA
ATOM     14  C   UNL     1       4.901  -6.630  -0.088  0.00  0.00    +0.127 C 
ATOM     15  N   UNL     1       5.487  -6.700   1.254  0.00  0.00    -0.293 NA
ATOM     16  C   UNL     1       4.479  -7.141   2.231  0.00  0.00    +0.091 C 
ATOM     17  C   UNL     1       3.470  -6.009   2.435  0.00  0.00    +0.071 C 
ATOM     18  H   UNL     1      -2.293  -1.910  -0.140  0.00  0.00    -0.082 HD
ENDROOT
BRANCH  12  19
ATOM     19  O   UNL     1       3.763  -5.565  -2.442  0.00  0.00    -0.438 OA
BRANCH  19  20
ATOM     20  C   UNL     1       3.246  -5.023  -3.576  0.00  0.00    +0.131 A 
ATOM     21  C   UNL     1       2.454  -3.886  -3.503  0.00  0.00    +0.049 A 
ATOM     22  C   UNL     1       1.930  -3.336  -4.657  0.00  0.00    +0.042 A 
ATOM     23  C   UNL     1       2.195  -3.917  -5.885  0.00  0.00    +0.124 A 
ATOM     24  C   UNL     1       2.986  -5.051  -5.959  0.00  0.00    +0.042 A 
ATOM     25  C   UNL     1       3.516  -5.601  -4.808  0.00  0.00    +0.049 A 
ATOM     26  F   UNL     1       1.681  -3.378  -7.012  0.00  0.00    -0.205 F 
ENDBRANCH  19  20
ENDBRANCH  12  19
BRANCH  15  27
ATOM     27  C   UNL     1       6.659  -7.587   1.271  0.00  0.00    +0.120 C 
BRANCH  27  28
ATOM     28  C   UNL     1       7.756  -6.986   0.431  0.00  0.00    -0.033 A 
ATOM     29  C   UNL     1       7.835  -7.280  -0.917  0.00  0.00    +0.005 A 
ATOM     30  C   UNL     1       8.841  -6.728  -1.687  0.00  0.00    +0.012 A 
ATOM     31  C   UNL     1       9.769  -5.882  -1.109  0.00  0.00    +0.055 A 
ATOM     32  C   UNL     1       9.690  -5.587   0.239  0.00  0.00    +0.012 A 
ATOM     33  C   UNL     1       8.681  -6.135   1.008  0.00  0.00    +0.005 A 
BRANCH  31  34
ATOM     34  C   UNL     1      10.867  -5.281  -1.949  0.00  0.00    +0.417 C 
ATOM     35  F   UNL     1      10.433  -4.062  -2.481  0.00  0.00    -0.166 F 
ATOM     36  F   UNL     1      11.998  -5.067  -1.154  0.00  0.00    -0.166 F 
ATOM     37  F   UNL     1      11.188  -6.157  -2.992  0.00  0.00    -0.166 F 
ENDBRANCH  31  34
ENDBRANCH  27  28
ENDBRANCH  15  27
TORSDOF 5
