REMARK  Name = ZINC21936795
REMARK  6 active torsions:
REMARK  status: ('A' for Active; 'I' for Inactive)
REMARK    1  A    between atoms: C_1  and  C_2
REMARK    2  A    between atoms: C_5  and  C_8
REMARK    3  A    between atoms: C_8  and  N_9
REMARK    4  A    between atoms: C_11  and  C_15
REMARK    5  A    between atoms: C_12  and  C_14
REMARK    6  A    between atoms: N_19  and  C_23
REMARK                            x       y       z     vdW  Elec       q    Type
REMARK                         _______ _______ _______ _____ _____    ______ ____
ROOT
ATOM      1  C   UNL     1      -4.118   3.691  -1.343  0.00  0.00    +0.043 C 
ATOM      2  C   UNL     1      -3.130   3.135  -0.596  0.00  0.00    +0.105 C 
ATOM      3  C   UNL     1      -1.921   2.457  -1.079  0.00  0.00    +0.273 C 
ATOM      4  O   UNL     1      -1.597   2.279  -2.239  0.00  0.00    -0.268 OA
ATOM      5  N   UNL     1      -1.240   2.072   0.019  0.00  0.00    -0.212 N 
ATOM      6  C   UNL     1      -1.910   2.438   1.123  0.00  0.00    +0.157 C 
ATOM      7  S   UNL     1      -1.385   2.130   2.723  0.00  0.00    -0.015 SA
ATOM      8  N   UNL     1      -3.046   3.084   0.804  0.00  0.00    -0.333 N 
ATOM      9  H   UNL     1      -3.708   3.457   1.599  0.00  0.00    +0.168 HD
ENDROOT
BRANCH   1  12
ATOM     10  N   UNL     1      -6.980   4.702   0.639  0.00  0.00    -0.248 N 
ATOM     11  C   UNL     1      -6.044   3.789   0.322  0.00  0.00    +0.135 A 
ATOM     12  C   UNL     1      -5.263   4.332  -0.685  0.00  0.00    +0.036 A 
ATOM     13  C   UNL     1      -5.774   5.623  -0.956  0.00  0.00    +0.069 A 
ATOM     14  N   UNL     1      -6.793   5.829  -0.170  0.00  0.00    -0.174 NA
ATOM     15  C   UNL     1      -5.235   6.592  -1.978  0.00  0.00    +0.068 C 
ATOM     16 CL   UNL     1      -5.850   2.221   1.042  0.00  0.00    -0.062 Cl
BRANCH  10  17
ATOM     17  C   UNL     1      -8.020   4.543   1.658  0.00  0.00    +0.180 C 
BRANCH  17  22
ATOM     18  C   UNL     1      -6.047   6.461   6.739  0.00  0.00    +0.044 C 
ATOM     19  C   UNL     1      -6.562   5.961   5.414  0.00  0.00    -0.050 A 
ATOM     20  C   UNL     1      -7.213   6.825   4.554  0.00  0.00    +0.004 A 
ATOM     21  C   UNL     1      -7.684   6.367   3.339  0.00  0.00    +0.006 A 
ATOM     22  C   UNL     1      -7.506   5.043   2.983  0.00  0.00    -0.026 A 
ATOM     23  C   UNL     1      -6.860   4.177   3.845  0.00  0.00    +0.006 A 
ATOM     24  C   UNL     1      -6.384   4.637   5.059  0.00  0.00    +0.004 A 
ENDBRANCH  17  22
ENDBRANCH  10  17
ENDBRANCH   1  12
BRANCH   5  25
ATOM     25  C   UNL     1      -0.017   1.386   0.010  0.00  0.00    +0.079 A 
ATOM     26  C   UNL     1       1.177   2.093   0.002  0.00  0.00    +0.027 A 
ATOM     27  C   UNL     1       2.381   1.415  -0.014  0.00  0.00    +0.002 A 
ATOM     28  C   UNL     1       2.397   0.032  -0.021  0.00  0.00    +0.003 A 
ATOM     29  C   UNL     1       1.210  -0.677  -0.013  0.00  0.00    +0.040 A 
ATOM     30  C   UNL     1       0.002  -0.004   0.002  0.00  0.00    +0.145 A 
ATOM     31  F   UNL     1      -1.158  -0.697   0.010  0.00  0.00    -0.204 F 
ENDBRANCH   5  25
TORSDOF 4
