REMARK  Name = ZINC12570837
REMARK  8 active torsions:
REMARK  status: ('A' for Active; 'I' for Inactive)
REMARK    1  A    between atoms: C_3  and  N_9
REMARK    2  A    between atoms: C_10  and  C_12
REMARK    3  A    between atoms: C_12  and  C_13
REMARK    4  A    between atoms: C_13  and  C_14
REMARK    5  A    between atoms: N_16  and  N_17
REMARK    6  A    between atoms: N_17  and  C_18
REMARK    7  A    between atoms: C_18  and  N_20
REMARK    8  A    between atoms: C_21  and  C_23
REMARK                            x       y       z     vdW  Elec       q    Type
REMARK                         _______ _______ _______ _____ _____    ______ ____
ROOT
ATOM      1  C   UNL     1       3.751   1.771   0.011  0.00  0.00    +0.230 C 
ATOM      2  O   UNL     1       3.735   2.983   0.022  0.00  0.00    -0.274 OA
ATOM      3  N   UNL     1       4.927   1.112   0.003  0.00  0.00    -0.235 N 
ATOM      4  H   UNL     1       4.940   0.142  -0.005  0.00  0.00    +0.173 HD
ENDROOT
BRANCH   3   5
ATOM      5  N   UNL     1       6.131   1.829   0.006  0.00  0.00    -0.246 N 
ATOM      6  H   UNL     1       6.119   2.799   0.015  0.00  0.00    +0.172 HD
BRANCH   5   7
ATOM      7  C   UNL     1       7.307   1.170  -0.002  0.00  0.00    +0.153 C 
ATOM      8  S   UNL     1       8.778   2.046   0.002  0.00  0.00    -0.017 S 
BRANCH   7   9
ATOM      9  N   UNL     1       7.325  -0.177  -0.014  0.00  0.00    -0.260 N 
ATOM     10  C   UNL     1       8.501  -0.836  -0.022  0.00  0.00    +0.285 C 
ATOM     11  O   UNL     1       9.547  -0.214  -0.019  0.00  0.00    -0.266 OA
ATOM     12  H   UNL     1       6.492  -0.673  -0.016  0.00  0.00    +0.157 HD
BRANCH  10  13
ATOM     13  C   UNL     1       8.520  -2.300  -0.035  0.00  0.00    +0.191 A 
ATOM     14  C   UNL     1       9.637  -3.088  -0.044  0.00  0.00    +0.056 A 
ATOM     15  C   UNL     1       9.192  -4.418  -0.054  0.00  0.00    +0.058 A 
ATOM     16  C   UNL     1       7.839  -4.386  -0.051  0.00  0.00    +0.171 A 
ATOM     17  O   UNL     1       7.439  -3.107  -0.033  0.00  0.00    -0.444 OA
ATOM     18 BR   UNL     1       6.700  -5.896  -0.062  0.00  0.00    -0.008 Br
ENDBRANCH  10  13
ENDBRANCH   7   9
ENDBRANCH   5   7
ENDBRANCH   3   5
BRANCH   1  19
ATOM     19  C   UNL     1       2.456   1.000   0.008  0.00  0.00    +0.106 C 
BRANCH  19  20
ATOM     20  C   UNL     1       1.280   1.979   0.019  0.00  0.00    +0.105 C 
BRANCH  20  22
ATOM     21  N   UNL     1      -1.191   1.867   0.018  0.00  0.00    -0.284 N 
ATOM     22  C   UNL     1      -0.015   1.208   0.015  0.00  0.00    +0.218 C 
ATOM     23  O   UNL     1       0.001  -0.005   0.005  0.00  0.00    -0.275 OA
ATOM     24  H   UNL     1      -1.205   2.834   0.092  0.00  0.00    +0.155 HD
BRANCH  21  27
ATOM     25  C   UNL     1      -3.696  -0.799   0.395  0.00  0.00    +0.022 A 
ATOM     26  C   UNL     1      -2.510  -0.099   0.499  0.00  0.00    +0.026 A 
ATOM     27  C   UNL     1      -2.392   1.155  -0.086  0.00  0.00    +0.052 A 
ATOM     28  C   UNL     1      -3.470   1.704  -0.770  0.00  0.00    +0.064 A 
ATOM     29  C   UNL     1      -4.652   0.997  -0.876  0.00  0.00    +0.041 A 
ATOM     30  C   UNL     1      -4.766  -0.253  -0.291  0.00  0.00    +0.042 A 
ATOM     31 CL   UNL     1      -6.255  -1.137  -0.420  0.00  0.00    -0.083 Cl
ATOM     32 CL   UNL     1      -3.329   3.274  -1.497  0.00  0.00    -0.082 Cl
ENDBRANCH  21  27
ENDBRANCH  20  22
ENDBRANCH  19  20
ENDBRANCH   1  19
TORSDOF 8
