REMARK  Name = ZINC13064986
REMARK  12 active torsions:
REMARK  status: ('A' for Active; 'I' for Inactive)
REMARK    1  A    between atoms: C_1  and  C_2
REMARK    2  A    between atoms: C_2  and  C_3
REMARK    3  A    between atoms: C_3  and  C_5
REMARK    4  A    between atoms: C_3  and  N_72
REMARK    5  A    between atoms: N_9  and  C_10
REMARK    6  A    between atoms: C_10  and  C_11
REMARK    7  A    between atoms: C_11  and  C_12
REMARK    8  A    between atoms: C_18  and  C_19
REMARK    9  A    between atoms: C_18  and  N_72
REMARK   10  A    between atoms: C_22  and  C_32
REMARK   11  A    between atoms: C_24  and  C_31
REMARK   12  A    between atoms: C_33  and  N_72
REMARK                            x       y       z     vdW  Elec       q    Type
REMARK                         _______ _______ _______ _____ _____    ______ ____
ROOT
ATOM      1  N   UNL     1       4.582   4.769  -1.276  0.00  0.00    +0.391 N 
ATOM      2  H   UNL     1       4.664   3.809  -1.633  0.00  0.00    -0.080 HD
ENDROOT
BRANCH   1   3
ATOM      3  C   UNL     1       3.594   5.502  -2.095  0.00  0.00    -0.067 C 
ATOM      4  C   UNL     1       2.337   4.628  -2.282  0.00  0.00    -0.015 C 
ATOM      5  C   UNL     1       1.893   4.909  -3.740  0.00  0.00    -0.002 C 
ATOM      6  C   UNL     1       3.243   5.022  -4.493  0.00  0.00    -0.002 C 
ATOM      7  C   UNL     1       4.170   5.753  -3.500  0.00  0.00    -0.015 C 
ENDBRANCH   1   3
BRANCH   1   8
ATOM      8  C   UNL     1       5.902   5.429  -1.365  0.00  0.00    +0.003 C 
BRANCH   8   9
ATOM      9  C   UNL     1       5.840   6.815  -0.778  0.00  0.00    +0.138 A 
ATOM     10  N   UNL     1       4.942   7.270   0.062  0.00  0.00    -0.115 NA
ATOM     11  N   UNL     1       5.232   8.496   0.329  0.00  0.00    -0.023 NA
ATOM     12  N   UNL     1       6.288   8.838  -0.324  0.00  0.00    -0.044 NA
ATOM     13  N   UNL     1       6.692   7.829  -1.019  0.00  0.00    -0.231 N 
BRANCH  13  14
ATOM     14  C   UNL     1       7.859   7.792  -1.903  0.00  0.00    +0.152 C 
BRANCH  14  15
ATOM     15  C   UNL     1       7.414   8.034  -3.346  0.00  0.00    +0.058 C 
BRANCH  15  16
ATOM     16  C   UNL     1       8.618   8.023  -4.253  0.00  0.00    -0.046 A 
ATOM     17  C   UNL     1       9.296   9.198  -4.515  0.00  0.00    +0.004 A 
ATOM     18  C   UNL     1      10.404   9.187  -5.342  0.00  0.00    +0.000 A 
ATOM     19  C   UNL     1      10.827   8.002  -5.915  0.00  0.00    +0.000 A 
ATOM     20  C   UNL     1      10.145   6.827  -5.657  0.00  0.00    +0.000 A 
ATOM     21  C   UNL     1       9.041   6.838  -4.825  0.00  0.00    +0.004 A 
ENDBRANCH  15  16
ENDBRANCH  14  15
ENDBRANCH  13  14
ENDBRANCH   8   9
BRANCH   8  23
ATOM     22  C   UNL     1       6.991   3.187  -1.192  0.00  0.00    +0.002 C 
ATOM     23  C   UNL     1       6.926   4.594  -0.594  0.00  0.00    -0.011 C 
ENDBRANCH   8  23
ENDBRANCH   1   8
BRANCH   1  24
ATOM     24  C   UNL     1       4.135   4.721   0.132  0.00  0.00    -0.036 C 
BRANCH  24  25
ATOM     25  C   UNL     1       3.083   3.650   0.268  0.00  0.00    +0.001 A 
ATOM     26  C   UNL     1       3.448   2.344   0.290  0.00  0.00    +0.017 A 
ATOM     27  C   UNL     1       2.402   1.328   0.424  0.00  0.00    +0.002 A 
ATOM     28  C   UNL     1       2.716  -0.035   0.453  0.00  0.00    -0.041 A 
ATOM     29  C   UNL     1       1.717  -0.957   0.578  0.00  0.00    +0.007 A 
ATOM     30  C   UNL     1       0.392  -0.555   0.677  0.00  0.00    -0.048 A 
ATOM     31  C   UNL     1       0.059   0.782   0.651  0.00  0.00    +0.029 A 
ATOM     32  C   UNL     1       1.060   1.740   0.525  0.00  0.00    +0.050 A 
ATOM     33  N   UNL     1       0.755   3.084   0.495  0.00  0.00    -0.322 N 
ATOM     34  H   UNL     1      -0.170   3.366   0.565  0.00  0.00    +0.169 HD
ATOM     35  C   UNL     1       1.723   4.010   0.372  0.00  0.00    +0.251 A 
ATOM     36  O   UNL     1       1.417   5.190   0.349  0.00  0.00    -0.268 OA
ATOM     37  C   UNL     1      -0.694  -1.591   0.814  0.00  0.00    +0.044 C 
ATOM     38  C   UNL     1       4.151  -0.483   0.345  0.00  0.00    +0.044 C 
ENDBRANCH  24  25
ENDBRANCH   1  24
TORSDOF 9
