REMARK  Name = ZINC34830042
REMARK  6 active torsions:
REMARK  status: ('A' for Active; 'I' for Inactive)
REMARK    1  A    between atoms: C_4  and  C_7
REMARK    2  A    between atoms: N_16  and  C_17
REMARK    3  A    between atoms: C_17  and  C_18
REMARK    4  A    between atoms: C_18  and  C_19
REMARK    5  A    between atoms: C_28  and  C_30
REMARK    6  A    between atoms: C_33  and  N_36
REMARK                            x       y       z     vdW  Elec       q    Type
REMARK                         _______ _______ _______ _____ _____    ______ ____
ROOT
ATOM      1  C   UNL     1       3.397  -2.202   4.434  0.00  0.00    +0.214 C 
ATOM      2  O   UNL     1       3.510  -1.018   4.669  0.00  0.00    -0.276 OA
ATOM      3  N   UNL     1       3.096  -3.061   5.428  0.00  0.00    -0.300 N 
ATOM      4  C   UNL     1       2.898  -2.613   6.762  0.00  0.00    +0.109 C 
ATOM      5  C   UNL     1       4.211  -2.442   7.594  0.00  0.00    +0.038 C 
ATOM      6  C   UNL     1       5.168  -3.612   7.195  0.00  0.00    +0.109 C 
ATOM      7  N   UNL     1       4.522  -4.857   6.974  0.00  0.00    -0.296 N 
ATOM      8  C   UNL     1       4.184  -5.203   5.570  0.00  0.00    +0.127 C 
ATOM      9  C   UNL     1       2.951  -4.518   5.176  0.00  0.00    +0.126 C 
ATOM     10  C   UNL     1       4.228  -5.689   7.994  0.00  0.00    +0.247 C 
ATOM     11  O   UNL     1       4.518  -5.379   9.133  0.00  0.00    -0.270 OA
ENDROOT
BRANCH  10  12
ATOM     12  C   UNL     1       3.553  -6.977   7.727  0.00  0.00    +0.037 A 
ATOM     13  C   UNL     1       3.782  -8.074   8.558  0.00  0.00    +0.015 A 
ATOM     14  C   UNL     1       3.149  -9.273   8.304  0.00  0.00    +0.033 A 
ATOM     15  C   UNL     1       2.288  -9.389   7.226  0.00  0.00    +0.126 A 
ATOM     16  C   UNL     1       2.057  -8.305   6.398  0.00  0.00    +0.033 A 
ATOM     17  C   UNL     1       2.679  -7.099   6.645  0.00  0.00    +0.015 A 
BRANCH  15  18
ATOM     18  N   UNL     1       1.612 -10.678   6.959  0.00  0.00    +0.056 N 
ATOM     19  O   UNL     1       1.813 -11.627   7.681  0.00  0.00    -0.126 OA
ATOM     20  O   UNL     1       0.860 -10.783   6.018  0.00  0.00    -0.126 OA
ENDBRANCH  15  18
ENDBRANCH  10  12
BRANCH   1  21
ATOM     21  C   UNL     1       3.595  -2.713   3.030  0.00  0.00    +0.077 C 
BRANCH  21  22
ATOM     22  C   UNL     1       3.925  -1.542   2.103  0.00  0.00    -0.068 C 
BRANCH  22  31
ATOM     23  C   UNL     1       4.314  -0.902  -0.171  0.00  0.00    -0.006 C 
ATOM     24  C   UNL     1       4.616  -1.430  -1.570  0.00  0.00    -0.047 A 
ATOM     25  C   UNL     1       4.475  -0.679  -2.734  0.00  0.00    +0.010 A 
ATOM     26  C   UNL     1       4.764  -1.232  -3.936  0.00  0.00    +0.045 A 
ATOM     27  S   UNL     1       5.262  -2.885  -3.471  0.00  0.00    -0.101 S 
ATOM     28  C   UNL     1       5.050  -2.713  -1.722  0.00  0.00    -0.010 A 
ATOM     29  C   UNL     1       5.282  -3.707  -0.631  0.00  0.00    +0.024 C 
ATOM     30  C   UNL     1       5.279  -2.940   0.702  0.00  0.00    -0.072 C 
ATOM     31  N   UNL     1       4.117  -2.040   0.734  0.00  0.00    +0.388 N 
ATOM     32  H   UNL     1       3.295  -2.552   0.449  0.00  0.00    -0.080 HD
BRANCH  23  36
ATOM     33  C   UNL     1       0.769   1.478  -0.275  0.00  0.00    +0.000 A 
ATOM     34  C   UNL     1       2.010   2.087  -0.269  0.00  0.00    +0.000 A 
ATOM     35  C   UNL     1       3.157   1.317  -0.235  0.00  0.00    +0.002 A 
ATOM     36  C   UNL     1       3.063  -0.062  -0.207  0.00  0.00    -0.057 A 
ATOM     37  C   UNL     1       1.822  -0.671  -0.212  0.00  0.00    +0.002 A 
ATOM     38  C   UNL     1       0.675   0.100  -0.247  0.00  0.00    +0.000 A 
ENDBRANCH  23  36
ENDBRANCH  22  31
ENDBRANCH  21  22
ENDBRANCH   1  21
TORSDOF 6
