REMARK  Name = ZINC63439843
REMARK  6 active torsions:
REMARK  status: ('A' for Active; 'I' for Inactive)
REMARK    1  A    between atoms: C_1  and  C_2
REMARK    2  A    between atoms: C_2  and  O_3
REMARK    3  A    between atoms: O_3  and  C_4
REMARK    4  A    between atoms: C_4  and  C_6
REMARK    5  A    between atoms: C_8  and  N_16
REMARK    6  A    between atoms: C_17  and  C_19
REMARK                            x       y       z     vdW  Elec       q    Type
REMARK                         _______ _______ _______ _____ _____    ______ ____
ROOT
ATOM      1  N   UNL     1      -3.558  -1.131   2.230  0.00  0.00    -0.286 N 
ATOM      2  C   UNL     1      -4.122  -1.327   3.438  0.00  0.00    +0.225 C 
ATOM      3  O   UNL     1      -4.345  -2.454   3.827  0.00  0.00    -0.275 OA
ATOM      4  H   UNL     1      -3.278  -0.241   1.964  0.00  0.00    +0.155 HD
ENDROOT
BRANCH   2   5
ATOM      5  C   UNL     1      -4.476  -0.147   4.305  0.00  0.00    +0.119 C 
ATOM      6  C   UNL     1      -3.322   0.827   4.328  0.00  0.00    +0.007 A 
ATOM      7  C   UNL     1      -3.138   1.663   3.240  0.00  0.00    +0.008 A 
ATOM      8  C   UNL     1      -2.093   2.567   3.225  0.00  0.00    +0.001 A 
ATOM      9  C   UNL     1      -1.226   2.638   4.300  0.00  0.00    +0.004 A 
ATOM     10  C   UNL     1      -1.405   1.807   5.386  0.00  0.00    +0.046 A 
ATOM     11  C   UNL     1      -2.457   0.896   5.405  0.00  0.00    +0.125 A 
ATOM     12  O   UNL     1      -2.601   0.098   6.497  0.00  0.00    -0.484 OA
ATOM     13  C   UNL     1      -3.421  -1.062   6.352  0.00  0.00    +0.204 C 
ATOM     14  C   UNL     1      -4.757  -0.625   5.731  0.00  0.00    +0.073 C 
ATOM     15  C   UNL     1      -5.704  -1.794   5.715  0.00  0.00    -0.018 C 
ATOM     16  C   UNL     1      -5.699  -2.656   6.730  0.00  0.00    -0.004 C 
ATOM     17  C   UNL     1      -4.775  -2.448   7.859  0.00  0.00    -0.001 C 
ATOM     18  C   UNL     1      -3.675  -1.702   7.690  0.00  0.00    +0.017 C 
ENDBRANCH   2   5
BRANCH   1  20
ATOM     19  C   UNL     1      -3.901  -3.592   1.554  0.00  0.00    +0.234 C 
ATOM     20  C   UNL     1      -3.380  -2.183   1.382  0.00  0.00    +0.053 C 
ATOM     21  C   UNL     1      -2.684  -2.183   0.185  0.00  0.00    +0.018 A 
ATOM     22  C   UNL     1      -1.978  -1.171  -0.509  0.00  0.00    +0.011 A 
ATOM     23  C   UNL     1      -1.378  -1.461  -1.690  0.00  0.00    +0.001 A 
ATOM     24  C   UNL     1      -1.437  -2.741  -2.248  0.00  0.00    +0.002 A 
ATOM     25  C   UNL     1      -2.095  -3.757  -1.639  0.00  0.00    +0.026 A 
ATOM     26  C   UNL     1      -2.748  -3.533  -0.400  0.00  0.00    +0.045 A 
ATOM     27  N   UNL     1      -3.442  -4.341   0.380  0.00  0.00    -0.367 N 
ATOM     28  H   UNL     1      -3.619  -5.278   0.205  0.00  0.00    +0.161 HD
BRANCH  19  29
ATOM     29  C   UNL     1      -5.407  -3.586   1.609  0.00  0.00    +0.336 C 
ATOM     30  O   UNL     1      -6.048  -3.530   0.586  0.00  0.00    -0.248 OA
BRANCH  29  31
ATOM     31  O   UNL     1      -6.036  -3.641   2.793  0.00  0.00    -0.463 OA
BRANCH  31  33
ATOM     32  C   UNL     1      -8.000  -3.846   4.187  0.00  0.00    +0.048 C 
ATOM     33  C   UNL     1      -7.465  -3.629   2.770  0.00  0.00    +0.229 C 
ENDBRANCH  31  33
ENDBRANCH  29  31
ENDBRANCH  19  29
ENDBRANCH   1  20
TORSDOF 5
