REMARK  Name = ZINC33113628
REMARK  13 active torsions:
REMARK  status: ('A' for Active; 'I' for Inactive)
REMARK    1  A    between atoms: C_1  and  C_2
REMARK    2  A    between atoms: C_2  and  C_3
REMARK    3  A    between atoms: C_3  and  C_5
REMARK    4  A    between atoms: C_3  and  O_18
REMARK    5  A    between atoms: C_14  and  C_17
REMARK    6  A    between atoms: O_18  and  C_19
REMARK    7  A    between atoms: C_20  and  C_37
REMARK    8  A    between atoms: C_26  and  N_33
REMARK    9  A    between atoms: C_27  and  C_28
REMARK   10  A    between atoms: C_28  and  O_30
REMARK   11  A    between atoms: O_30  and  C_31
REMARK   12  A    between atoms: C_31  and  C_32
REMARK   13  A    between atoms: C_34  and  C_36
REMARK                            x       y       z     vdW  Elec       q    Type
REMARK                         _______ _______ _______ _____ _____    ______ ____
ROOT
ATOM      1  C   UNL     1      -3.927   3.341  -2.272  0.00  0.00    +0.139 A 
ATOM      2  C   UNL     1      -3.428   3.339  -3.566  0.00  0.00    -0.008 A 
ATOM      3  C   UNL     1      -2.250   2.661  -3.840  0.00  0.00    +0.007 A 
ATOM      4  C   UNL     1      -1.569   1.991  -2.856  0.00  0.00    +0.010 A 
ATOM      5  C   UNL     1      -2.046   1.977  -1.526  0.00  0.00    +0.009 A 
ATOM      6  C   UNL     1      -3.245   2.667  -1.276  0.00  0.00    +0.064 A 
ATOM      7  S   UNL     1      -3.536   2.430   0.458  0.00  0.00    -0.069 S 
ATOM      8  C   UNL     1      -2.114   1.434   0.857  0.00  0.00    +0.087 A 
ATOM      9  C   UNL     1      -1.458   1.314  -0.358  0.00  0.00    +0.095 A 
ATOM     10  C   UNL     1      -4.158   4.069  -4.663  0.00  0.00    +0.047 C 
ENDROOT
BRANCH   8  11
ATOM     11  N   UNL     1      -1.752   0.907   2.082  0.00  0.00    -0.280 N 
ATOM     12  C   UNL     1      -2.522   1.131   3.166  0.00  0.00    +0.214 C 
ATOM     13  O   UNL     1      -3.532   1.794   3.065  0.00  0.00    -0.276 OA
ATOM     14  C   UNL     1      -2.127   0.557   4.502  0.00  0.00    +0.109 C 
ATOM     15  H   UNL     1      -0.835   0.306   2.173  0.00  0.00    +0.155 HD
ENDBRANCH   8  11
BRANCH   9  16
ATOM     16  C   UNL     1      -0.252   0.578  -0.467  0.00  0.00    +0.342 C 
ATOM     17  O   UNL     1      -0.285  -0.611  -0.726  0.00  0.00    -0.245 OA
BRANCH  16  18
ATOM     18  O   UNL     1       0.934   1.196  -0.288  0.00  0.00    -0.461 OA
BRANCH  18  19
ATOM     19  C   UNL     1       2.110   0.395  -0.419  0.00  0.00    +0.229 C 
ATOM     20  C   UNL     1       3.348   1.263  -0.185  0.00  0.00    +0.048 C 
ENDBRANCH  18  19
ENDBRANCH  16  18
ENDBRANCH   9  16
BRANCH   1  21
ATOM     21  O   UNL     1      -5.080   4.000  -1.986  0.00  0.00    -0.478 OA
BRANCH  21  22
ATOM     22  C   UNL     1      -4.979   5.402  -1.728  0.00  0.00    +0.259 C 
BRANCH  22  23
ATOM     23  C   UNL     1      -6.258   6.082  -2.143  0.00  0.00    +0.261 C 
ATOM     24  O   UNL     1      -7.242   5.421  -2.399  0.00  0.00    -0.271 OA
ATOM     25  N   UNL     1      -6.308   7.426  -2.231  0.00  0.00    -0.262 N 
ATOM     26  C   UNL     1      -5.104   8.249  -2.023  0.00  0.00    +0.155 C 
ATOM     27  C   UNL     1      -5.514   9.464  -1.179  0.00  0.00    +0.248 C 
ATOM     28  O   UNL     1      -6.543  10.178  -1.867  0.00  0.00    -0.489 OA
ATOM     29  C   UNL     1      -7.604   9.467  -2.331  0.00  0.00    +0.142 A 
ATOM     30  C   UNL     1      -7.510   8.091  -2.530  0.00  0.00    +0.079 A 
ATOM     31  C   UNL     1      -8.600   7.380  -3.003  0.00  0.00    +0.030 A 
ATOM     32  C   UNL     1      -9.782   8.039  -3.288  0.00  0.00    -0.048 A 
ATOM     33  C   UNL     1      -9.878   9.404  -3.094  0.00  0.00    +0.007 A 
ATOM     34  C   UNL     1      -8.794  10.119  -2.618  0.00  0.00    +0.048 A 
ATOM     35  C   UNL     1     -10.966   7.268  -3.810  0.00  0.00    +0.044 C 
ENDBRANCH  22  23
BRANCH  22  37
ATOM     36  C   UNL     1      -5.918   5.058   0.562  0.00  0.00    +0.008 C 
ATOM     37  C   UNL     1      -4.743   5.630  -0.233  0.00  0.00    +0.051 C 
ENDBRANCH  22  37
ENDBRANCH  21  22
ENDBRANCH   1  21
TORSDOF 8
