REMARK  Name = ZINC49678932
REMARK  2 active torsions:
REMARK  status: ('A' for Active; 'I' for Inactive)
REMARK    1  A    between atoms: C_4  and  N_6
REMARK    2  A    between atoms: C_7  and  C_9
REMARK                            x       y       z     vdW  Elec       q    Type
REMARK                         _______ _______ _______ _____ _____    ______ ____
ROOT
ATOM      1  N   UNL     1       1.692  -1.613   0.817  0.00  0.00    -0.307 N 
ATOM      2  C   UNL     1       1.587  -2.842   0.273  0.00  0.00    +0.265 C 
ATOM      3  O   UNL     1       1.322  -2.964  -0.907  0.00  0.00    -0.268 OA
ATOM      4  H   UNL     1       1.903  -1.516   1.758  0.00  0.00    +0.149 HD
ENDROOT
BRANCH   2   5
ATOM      5  C   UNL     1       1.794  -4.041   1.111  0.00  0.00    +0.150 A 
ATOM      6  C   UNL     1       1.724  -5.388   0.687  0.00  0.00    +0.005 A 
ATOM      7  C   UNL     1       1.981  -6.132   1.784  0.00  0.00    +0.040 A 
ATOM      8  N   UNL     1       2.192  -5.272   2.807  0.00  0.00    -0.281 N 
ATOM      9  H   UNL     1       2.398  -5.534   3.717  0.00  0.00    +0.189 HD
ATOM     10  N   UNL     1       2.085  -4.060   2.397  0.00  0.00    -0.169 NA
ATOM     11  C   UNL     1       1.931  -7.604   1.438  0.00  0.00    +0.055 C 
ATOM     12  C   UNL     1       1.190  -7.673   0.085  0.00  0.00    +0.011 C 
ATOM     13  C   UNL     1       1.474  -6.275  -0.508  0.00  0.00    +0.039 C 
ENDBRANCH   2   5
BRANCH   1  17
ATOM     14  C   UNL     1      -0.019   1.534   0.011  0.00  0.00    +0.002 C 
ATOM     15  C   UNL     1       1.453   1.995  -0.001  0.00  0.00    +0.002 C 
ATOM     16  C   UNL     1       2.232   0.792   0.586  0.00  0.00    +0.022 C 
ATOM     17  C   UNL     1       1.486  -0.425  -0.014  0.00  0.00    +0.073 C 
ATOM     18  C   UNL     1       0.002  -0.004   0.002  0.00  0.00    +0.022 C 
ENDBRANCH   1  17
TORSDOF 2
