REMARK  Name = ZINC41585036
REMARK  7 active torsions:
REMARK  status: ('A' for Active; 'I' for Inactive)
REMARK    1  A    between atoms: C_1  and  C_2
REMARK    2  A    between atoms: C_6  and  C_7
REMARK    3  A    between atoms: C_14  and  O_35
REMARK    4  A    between atoms: C_15  and  C_18
REMARK    5  A    between atoms: C_18  and  N_19
REMARK    6  A    between atoms: N_22  and  C_25
REMARK    7  A    between atoms: C_25  and  C_26
REMARK                            x       y       z     vdW  Elec       q    Type
REMARK                         _______ _______ _______ _____ _____    ______ ____
ROOT
ATOM      1  C   UNL     1       0.030  -0.306   2.517  0.00  0.00    +0.065 C 
ATOM      2  C   UNL     1       0.052  -1.211   3.537  0.00  0.00    +0.177 C 
ATOM      3  C   UNL     1       0.055  -0.900   4.923  0.00  0.00    +0.231 C 
ATOM      4  O   UNL     1       0.039   0.208   5.434  0.00  0.00    -0.283 OA
ATOM      5  C   UNL     1       0.082  -2.202   5.611  0.00  0.00    +0.068 A 
ATOM      6  C   UNL     1       0.098  -2.579   6.954  0.00  0.00    +0.019 A 
ATOM      7  C   UNL     1       0.123  -3.904   7.288  0.00  0.00    +0.046 A 
ATOM      8  C   UNL     1       0.135  -4.878   6.293  0.00  0.00    +0.125 A 
ATOM      9  C   UNL     1       0.119  -4.518   4.955  0.00  0.00    +0.051 A 
ATOM     10  C   UNL     1       0.093  -3.177   4.599  0.00  0.00    +0.147 A 
ATOM     11  O   UNL     1       0.069  -2.558   3.399  0.00  0.00    -0.451 OA
ENDROOT
BRANCH   1  17
ATOM     12  C   UNL     1      -0.018   1.503   0.010  0.00  0.00    +0.045 C 
ATOM     13  C   UNL     1       0.002  -0.004   0.002  0.00  0.00    -0.036 A 
ATOM     14  C   UNL     1       0.007  -0.729  -1.164  0.00  0.00    +0.011 A 
ATOM     15  C   UNL     1       0.026  -2.084  -1.099  0.00  0.00    +0.046 A 
ATOM     16  S   UNL     1       0.038  -2.420   0.547  0.00  0.00    -0.097 S 
ATOM     17  C   UNL     1       0.023  -0.752   1.176  0.00  0.00    +0.019 A 
ENDBRANCH   1  17
BRANCH   8  18
ATOM     18  O   UNL     1       0.161  -6.191   6.637  0.00  0.00    -0.506 OA
ATOM     19  H   UNL     1      -0.715  -6.588   6.742  0.00  0.00    +0.292 HD
ENDBRANCH   8  18
BRANCH   9  20
ATOM     20  C   UNL     1       0.132  -5.582   3.888  0.00  0.00    +0.126 C 
BRANCH  20  21
ATOM     21  N   UNL     1      -1.248  -5.953   3.550  0.00  0.00    -0.301 NA
ATOM     22  C   UNL     1      -1.954  -4.833   2.911  0.00  0.00    +0.066 C 
ATOM     23  C   UNL     1      -3.402  -5.240   2.630  0.00  0.00    -0.063 C 
ATOM     24  N   UNL     1      -3.418  -6.417   1.751  0.00  0.00    +0.384 N 
ATOM     25  C   UNL     1      -2.732  -7.534   2.412  0.00  0.00    -0.063 C 
ATOM     26  C   UNL     1      -1.278  -7.146   2.692  0.00  0.00    +0.066 C 
ATOM     27  H   UNL     1      -2.946  -6.197   0.886  0.00  0.00    -0.081 HD
BRANCH  24  28
ATOM     28  C   UNL     1      -4.809  -6.796   1.466  0.00  0.00    -0.043 C 
BRANCH  28  29
ATOM     29  C   UNL     1      -4.827  -7.925   0.468  0.00  0.00    -0.060 A 
ATOM     30  C   UNL     1      -4.863  -7.647  -0.886  0.00  0.00    +0.005 A 
ATOM     31  C   UNL     1      -4.880  -8.679  -1.806  0.00  0.00    +0.050 A 
ATOM     32  C   UNL     1      -4.861  -9.995  -1.372  0.00  0.00    +0.166 A 
ATOM     33  C   UNL     1      -4.825 -10.274  -0.008  0.00  0.00    +0.166 A 
ATOM     34  C   UNL     1      -4.803  -9.235   0.908  0.00  0.00    +0.051 A 
ATOM     35  O   UNL     1      -4.813 -11.629   0.160  0.00  0.00    -0.453 OA
ATOM     36  C   UNL     1      -5.254 -12.176  -1.097  0.00  0.00    +0.466 C 
ATOM     37  O   UNL     1      -4.872 -11.175  -2.058  0.00  0.00    -0.453 OA
ENDBRANCH  28  29
ENDBRANCH  24  28
ENDBRANCH  20  21
ENDBRANCH   9  20
TORSDOF 6
