REMARK  Name = ZINC37929348
REMARK  4 active torsions:
REMARK  status: ('A' for Active; 'I' for Inactive)
REMARK    1  A    between atoms: C_3  and  N_19
REMARK    2  A    between atoms: C_4  and  S_8
REMARK    3  A    between atoms: S_8  and  N_11
REMARK    4  A    between atoms: N_11  and  C_12
REMARK                            x       y       z     vdW  Elec       q    Type
REMARK                         _______ _______ _______ _____ _____    ______ ____
ROOT
ATOM      1  S   UNL     1       4.559  -0.702  -0.034  0.00  0.00    +0.060 S 
ATOM      2  O   UNL     1       5.641  -0.240   0.762  0.00  0.00    -0.153 OA
ATOM      3  O   UNL     1       4.101  -2.047   0.010  0.00  0.00    -0.153 OA
ENDROOT
BRANCH   1   7
ATOM      4  C   UNL     1       0.998   1.913   0.974  0.00  0.00    +0.017 A 
ATOM      5  C   UNL     1       0.868   0.909   0.034  0.00  0.00    +0.026 A 
ATOM      6  C   UNL     1       1.957   0.106  -0.278  0.00  0.00    +0.051 A 
ATOM      7  C   UNL     1       3.175   0.315   0.357  0.00  0.00    +0.127 A 
ATOM      8  C   UNL     1       3.299   1.319   1.296  0.00  0.00    +0.045 A 
ATOM      9  C   UNL     1       2.211   2.118   1.604  0.00  0.00    +0.020 A 
ATOM     10 BR   UNL     1       2.385   3.494   2.891  0.00  0.00    -0.050 Br
BRANCH   6  11
ATOM     11  N   UNL     1       1.828  -0.911  -1.228  0.00  0.00    -0.356 N 
ATOM     12  H   UNL     1       0.968  -1.081  -1.642  0.00  0.00    +0.142 HD
ATOM     13  H   UNL     1       2.599  -1.446  -1.473  0.00  0.00    +0.142 HD
ENDBRANCH   6  11
ENDBRANCH   1   7
BRANCH   1  14
ATOM     14  N   UNL     1       4.965  -0.392  -1.609  0.00  0.00    -0.187 NA
ATOM     15  H   UNL     1       4.905  -1.097  -2.273  0.00  0.00    +0.148 HD
BRANCH  14  16
ATOM     16  C   UNL     1       5.413   0.946  -2.000  0.00  0.00    +0.077 C 
ATOM     17  C   UNL     1       4.328   1.600  -2.881  0.00  0.00    +0.020 C 
ATOM     18  C   UNL     1       4.527   3.091  -2.856  0.00  0.00    +0.002 C 
ATOM     19  C   UNL     1       5.381   3.592  -4.037  0.00  0.00    +0.000 C 
ATOM     20  C   UNL     1       6.586   2.678  -4.332  0.00  0.00    +0.000 C 
ATOM     21  C   UNL     1       7.272   2.208  -3.078  0.00  0.00    +0.002 C 
ATOM     22  C   UNL     1       6.691   0.833  -2.688  0.00  0.00    +0.020 C 
ENDBRANCH  14  16
ENDBRANCH   1  14
TORSDOF 4
