REMARK  Name = ZINC29969841
REMARK  10 active torsions:
REMARK  status: ('A' for Active; 'I' for Inactive)
REMARK    1  A    between atoms: C_1  and  C_2
REMARK    2  A    between atoms: C_2  and  C_3
REMARK    3  A    between atoms: C_2  and  N_4
REMARK    4  A    between atoms: C_9  and  C_18
REMARK    5  A    between atoms: C_11  and  C_13
REMARK    6  A    between atoms: C_18  and  O_20
REMARK    7  A    between atoms: O_20  and  C_21
REMARK    8  A    between atoms: C_21  and  C_22
REMARK    9  A    between atoms: C_24  and  O_25
REMARK   10  A    between atoms: C_34  and  C_36
REMARK                            x       y       z     vdW  Elec       q    Type
REMARK                         _______ _______ _______ _____ _____    ______ ____
ROOT
ATOM      1  C   UNL     1       1.346  -9.231   0.591  0.00  0.00    +0.340 C 
ATOM      2  O   UNL     1       2.454  -8.732   0.602  0.00  0.00    -0.245 OA
ENDROOT
BRANCH   1   8
ATOM      3  N   UNL     1       3.389 -13.494   0.912  0.00  0.00    -0.244 N 
ATOM      4  C   UNL     1       2.138 -12.939   0.835  0.00  0.00    +0.160 A 
ATOM      5  C   UNL     1       2.327 -11.544   0.760  0.00  0.00    +0.053 A 
ATOM      6  C   UNL     1       3.717 -11.310   0.797  0.00  0.00    +0.145 A 
ATOM      7  N   UNL     1       4.329 -12.457   0.886  0.00  0.00    -0.177 NA
ATOM      8  C   UNL     1       1.195 -10.699   0.670  0.00  0.00    +0.073 A 
ATOM      9  C   UNL     1      -0.062 -11.291   0.664  0.00  0.00    +0.047 A 
ATOM     10  C   UNL     1      -0.162 -12.686   0.737  0.00  0.00    +0.109 A 
ATOM     11  N   UNL     1       0.917 -13.451   0.821  0.00  0.00    -0.224 NA
BRANCH  10  12
ATOM     12  C   UNL     1      -1.496 -13.317   0.726  0.00  0.00    +0.153 A 
ATOM     13  C   UNL     1      -1.749 -14.652   0.788  0.00  0.00    +0.051 A 
ATOM     14  C   UNL     1      -3.148 -14.802   0.751  0.00  0.00    +0.042 A 
ATOM     15  C   UNL     1      -3.676 -13.565   0.660  0.00  0.00    +0.196 A 
ATOM     16  O   UNL     1      -2.676 -12.670   0.645  0.00  0.00    -0.461 OA
ENDBRANCH  10  12
BRANCH   3  18
ATOM     17  C   UNL     1       4.545 -15.346  -0.190  0.00  0.00    +0.032 C 
ATOM     18  C   UNL     1       3.691 -14.925   1.007  0.00  0.00    +0.103 C 
ATOM     19  C   UNL     1       4.456 -15.201   2.302  0.00  0.00    +0.032 C 
ENDBRANCH   3  18
ENDBRANCH   1   8
BRANCH   1  20
ATOM     20  O   UNL     1       0.255  -8.445   0.505  0.00  0.00    -0.456 OA
BRANCH  20  21
ATOM     21  C   UNL     1       0.478  -7.013   0.430  0.00  0.00    +0.269 C 
BRANCH  21  22
ATOM     22  C   UNL     1      -0.848  -6.301   0.341  0.00  0.00    +0.007 A 
ATOM     23  C   UNL     1      -2.014  -6.998   0.339  0.00  0.00    +0.095 A 
ATOM     24  C   UNL     1      -3.242  -6.309   0.254  0.00  0.00    +0.285 A 
ATOM     25  O   UNL     1      -3.295  -4.970   0.176  0.00  0.00    -0.425 OA
ATOM     26  C   UNL     1      -2.173  -4.219   0.173  0.00  0.00    +0.141 A 
ATOM     27  C   UNL     1      -0.913  -4.841   0.254  0.00  0.00    +0.024 A 
ATOM     28  C   UNL     1       0.252  -4.067   0.252  0.00  0.00    +0.014 A 
ATOM     29  C   UNL     1       0.164  -2.708   0.166  0.00  0.00    +0.024 A 
ATOM     30  C   UNL     1      -1.081  -2.085   0.091  0.00  0.00    +0.037 A 
ATOM     31  C   UNL     1      -2.247  -2.837   0.092  0.00  0.00    +0.070 A 
ATOM     32  N   UNL     1      -1.156  -0.694   0.009  0.00  0.00    -0.286 N 
ATOM     33  C   UNL     1      -2.168  -0.037   0.609  0.00  0.00    +0.214 C 
ATOM     34  O   UNL     1      -3.058  -0.658   1.150  0.00  0.00    -0.276 OA
ATOM     35  C   UNL     1      -2.193   1.470   0.609  0.00  0.00    +0.109 C 
ATOM     36  H   UNL     1      -0.388  -0.134  -0.545  0.00  0.00    +0.155 HD
BRANCH  24  37
ATOM     37  O   UNL     1      -4.280  -6.946   0.253  0.00  0.00    -0.480 OA
ATOM     38  H   UNL     1      -5.246  -6.423   0.188  0.00  0.00    +0.295 HD
ENDBRANCH  24  37
ENDBRANCH  21  22
ENDBRANCH  20  21
ENDBRANCH   1  20
TORSDOF 7
