REMARK  Name = ZINC13127840
REMARK  9 active torsions:
REMARK  status: ('A' for Active; 'I' for Inactive)
REMARK    1  A    between atoms: C_1  and  O_2
REMARK    2  A    between atoms: O_2  and  C_3
REMARK    3  A    between atoms: C_6  and  C_11
REMARK    4  A    between atoms: C_8  and  O_9
REMARK    5  A    between atoms: O_9  and  C_10
REMARK    6  A    between atoms: C_14  and  C_32
REMARK    7  A    between atoms: C_18  and  C_21
REMARK    8  A    between atoms: N_23  and  C_24
REMARK    9  A    between atoms: C_28  and  O_30
REMARK                            x       y       z     vdW  Elec       q    Type
REMARK                         _______ _______ _______ _____ _____    ______ ____
ROOT
ATOM      1  C   UNL     1      -4.988  -2.628   0.036  0.00  0.00    +0.104 C 
ATOM      2  C   UNL     1      -5.569  -2.627  -1.383  0.00  0.00    +0.063 C 
ATOM      3  C   UNL     1      -5.683  -1.187  -1.896  0.00  0.00    +0.215 C 
ATOM      4  N   UNL     1      -6.356  -0.373  -0.877  0.00  0.00    -0.238 N 
ATOM      5  C   UNL     1      -6.454  -0.732   0.425  0.00  0.00    +0.130 A 
ATOM      6  C   UNL     1      -7.149   0.267   1.081  0.00  0.00    +0.096 A 
ATOM      7  C   UNL     1      -7.466   1.250   0.110  0.00  0.00    +0.149 A 
ATOM      8  N   UNL     1      -6.990   0.857  -1.040  0.00  0.00    -0.177 NA
ATOM      9  N   UNL     1      -5.920  -1.910   0.928  0.00  0.00    -0.322 N 
ATOM     10  H   UNL     1      -6.145  -2.244   1.810  0.00  0.00    +0.148 HD
ENDROOT
BRANCH   1  14
ATOM     11  C   UNL     1      -1.194  -0.655   0.038  0.00  0.00    +0.162 A 
ATOM     12  C   UNL     1      -2.364   0.087   0.045  0.00  0.00    +0.050 A 
ATOM     13  C   UNL     1      -3.589  -0.554   0.043  0.00  0.00    +0.009 A 
ATOM     14  C   UNL     1      -3.650  -1.935   0.037  0.00  0.00    -0.024 A 
ATOM     15  C   UNL     1      -2.487  -2.682   0.031  0.00  0.00    +0.054 A 
ATOM     16  C   UNL     1      -1.256  -2.046   0.026  0.00  0.00    +0.162 A 
BRANCH  11  18
ATOM     17  C   UNL     1      -0.002   1.402   0.052  0.00  0.00    +0.277 C 
ATOM     18  O   UNL     1       0.012  -0.027   0.039  0.00  0.00    -0.491 OA
ENDBRANCH  11  18
BRANCH  16  19
ATOM     19  O   UNL     1      -0.110  -2.778   0.014  0.00  0.00    -0.491 OA
ATOM     20  C   UNL     1      -0.250  -4.200   0.001  0.00  0.00    +0.277 C 
ENDBRANCH  16  19
ENDBRANCH   1  14
BRANCH   6  21
ATOM     21  C   UNL     1      -7.493   0.301   2.508  0.00  0.00    +0.253 C 
ATOM     22  O   UNL     1      -7.159  -0.614   3.237  0.00  0.00    -0.270 OA
ATOM     23  N   UNL     1      -8.179   1.347   3.010  0.00  0.00    -0.281 N 
ATOM     24  H   UNL     1      -8.387   2.107   2.445  0.00  0.00    +0.155 HD
BRANCH  23  25
ATOM     25  C   UNL     1      -8.591   1.336   4.347  0.00  0.00    +0.037 A 
ATOM     26  C   UNL     1      -9.804   1.911   4.706  0.00  0.00    +0.023 A 
ATOM     27  C   UNL     1     -10.210   1.901   6.026  0.00  0.00    +0.005 A 
ATOM     28  C   UNL     1      -9.412   1.318   6.992  0.00  0.00    +0.045 A 
ATOM     29  C   UNL     1      -8.200   0.743   6.640  0.00  0.00    +0.119 A 
ATOM     30  C   UNL     1      -7.791   0.746   5.315  0.00  0.00    +0.068 A 
BRANCH  29  31
ATOM     31  O   UNL     1      -7.416   0.172   7.592  0.00  0.00    -0.507 OA
ATOM     32  H   UNL     1      -7.595  -0.768   7.736  0.00  0.00    +0.292 HD
ENDBRANCH  29  31
ENDBRANCH  23  25
ENDBRANCH   6  21
BRANCH   3  33
ATOM     33  C   UNL     1      -6.496  -1.167  -3.191  0.00  0.00    +0.412 C 
ATOM     34  F   UNL     1      -7.776  -1.676  -2.946  0.00  0.00    -0.168 F 
ATOM     35  F   UNL     1      -6.599   0.148  -3.657  0.00  0.00    -0.168 F 
ATOM     36  F   UNL     1      -5.858  -1.954  -4.155  0.00  0.00    -0.168 F 
ENDBRANCH   3  33
TORSDOF 7
