REMARK  Name = ZINC36631867
REMARK  9 active torsions:
REMARK  status: ('A' for Active; 'I' for Inactive)
REMARK    1  A    between atoms: C_1  and  C_2
REMARK    2  A    between atoms: C_2  and  N_3
REMARK    3  A    between atoms: N_3  and  C_4
REMARK    4  A    between atoms: N_3  and  C_6
REMARK    5  A    between atoms: C_4  and  C_5
REMARK    6  A    between atoms: C_9  and  C_12
REMARK    7  A    between atoms: C_12  and  N_14
REMARK    8  A    between atoms: N_16  and  C_28
REMARK    9  A    between atoms: C_28  and  C_29
REMARK                            x       y       z     vdW  Elec       q    Type
REMARK                         _______ _______ _______ _____ _____    ______ ____
ROOT
ATOM      1  N   UNL     1      -1.621  -1.869  -7.025  0.00  0.00    -0.152 NA
ATOM      2  C   UNL     1      -2.312  -2.094  -8.137  0.00  0.00    +0.168 A 
ATOM      3  N   UNL     1      -1.847  -2.540  -9.332  0.00  0.00    -0.310 N 
ATOM      4  C   UNL     1      -2.722  -2.718 -10.389  0.00  0.00    +0.059 A 
ATOM      5  C   UNL     1      -2.443  -3.168 -11.699  0.00  0.00    +0.027 A 
ATOM      6  C   UNL     1      -3.416  -3.292 -12.632  0.00  0.00    +0.010 A 
ATOM      7  C   UNL     1      -4.752  -2.975 -12.330  0.00  0.00    -0.017 A 
ATOM      8  C   UNL     1      -5.772  -3.098 -13.286  0.00  0.00    +0.008 A 
ATOM      9  C   UNL     1      -7.053  -2.780 -12.951  0.00  0.00    +0.001 A 
ATOM     10  C   UNL     1      -7.367  -2.333 -11.669  0.00  0.00    +0.001 A 
ATOM     11  C   UNL     1      -6.403  -2.201 -10.717  0.00  0.00    +0.009 A 
ATOM     12  C   UNL     1      -5.071  -2.520 -11.024  0.00  0.00    -0.002 A 
ATOM     13  C   UNL     1      -4.044  -2.402 -10.083  0.00  0.00    +0.047 A 
ATOM     14  S   UNL     1      -3.963  -1.900  -8.385  0.00  0.00    -0.051 S 
ENDROOT
BRANCH   1  15
ATOM     15  C   UNL     1      -2.246  -1.432  -5.926  0.00  0.00    +0.269 C 
ATOM     16  O   UNL     1      -3.450  -1.241  -5.945  0.00  0.00    -0.268 OA
BRANCH  15  20
ATOM     17  C   UNL     1      -0.036  -0.712  -2.368  0.00  0.00    +0.030 A 
ATOM     18  C   UNL     1      -1.410  -0.493  -2.389  0.00  0.00    +0.024 A 
ATOM     19  C   UNL     1      -2.128  -0.725  -3.540  0.00  0.00    +0.015 A 
ATOM     20  C   UNL     1      -1.477  -1.181  -4.688  0.00  0.00    +0.039 A 
ATOM     21  C   UNL     1      -0.098  -1.400  -4.665  0.00  0.00    +0.015 A 
ATOM     22  C   UNL     1       0.617  -1.161  -3.513  0.00  0.00    +0.024 A 
BRANCH  17  23
ATOM     23  N   UNL     1       0.688  -0.476  -1.203  0.00  0.00    -0.330 N 
BRANCH  23  25
ATOM     24  C   UNL     1      -0.019   1.526   0.010  0.00  0.00    +0.024 C 
ATOM     25  C   UNL     1       0.002  -0.004   0.002  0.00  0.00    +0.102 C 
ENDBRANCH  23  25
BRANCH  23  26
ATOM     26  C   UNL     1       2.135  -0.701  -1.182  0.00  0.00    +0.102 C 
ATOM     27  C   UNL     1       2.421  -2.145  -0.763  0.00  0.00    +0.024 C 
ENDBRANCH  23  26
ENDBRANCH  17  23
ENDBRANCH  15  20
ENDBRANCH   1  15
BRANCH   3  28
ATOM     28  C   UNL     1      -0.422  -2.831  -9.504  0.00  0.00    +0.212 C 
BRANCH  28  29
ATOM     29  C   UNL     1      -0.163  -4.238  -9.158  0.00  0.00    -0.084 C 
ATOM     30  C   UNL     1       0.043  -5.361  -8.883  0.00  0.00    +0.005 C 
ENDBRANCH  28  29
ENDBRANCH   3  28
TORSDOF 7
