REMARK  Name = ZINC39523119
REMARK  4 active torsions:
REMARK  status: ('A' for Active; 'I' for Inactive)
REMARK    1  A    between atoms: C_4  and  O_22
REMARK    2  A    between atoms: C_5  and  C_7
REMARK    3  A    between atoms: C_17  and  O_21
REMARK    4  A    between atoms: N_19  and  O_20
REMARK                            x       y       z     vdW  Elec       q    Type
REMARK                         _______ _______ _______ _____ _____    ______ ____
ROOT
ATOM      1  C   UNL     1       1.227  -2.187  -0.022  0.00  0.00    +0.024 C 
ATOM      2  C   UNL     1       0.525  -2.713   1.232  0.00  0.00    +0.008 C 
ATOM      3  C   UNL     1       0.546  -4.243   1.223  0.00  0.00    +0.002 C 
ATOM      4  C   UNL     1      -0.181  -4.756  -0.022  0.00  0.00    +0.025 C 
ATOM      5  C   UNL     1       0.520  -4.229  -1.276  0.00  0.00    +0.050 C 
ATOM      6  C   UNL     1       0.500  -2.699  -1.266  0.00  0.00    +0.033 C 
ATOM      7  C   UNL     1      -0.211  -4.739  -2.520  0.00  0.00    +0.025 C 
ATOM      8  C   UNL     1      -0.171  -6.269  -2.539  0.00  0.00    +0.006 C 
ATOM      9  C   UNL     1       1.288  -6.734  -2.511  0.00  0.00    +0.050 C 
ATOM     10  C   UNL     1       1.975  -6.167  -1.266  0.00  0.00    +0.210 C 
ATOM     11  N   UNL     1       1.910  -4.701  -1.296  0.00  0.00    -0.156 NA
ENDROOT
BRANCH   1  16
ATOM     12  C   UNL     1      -0.017   1.378   0.010  0.00  0.00    +0.001 A 
ATOM     13  C   UNL     1       1.170   2.088   0.002  0.00  0.00    +0.004 A 
ATOM     14  C   UNL     1       2.377   1.417  -0.013  0.00  0.00    +0.046 A 
ATOM     15  C   UNL     1       2.399   0.030  -0.021  0.00  0.00    +0.120 A 
ATOM     16  C   UNL     1       1.207  -0.680  -0.013  0.00  0.00    -0.003 A 
ATOM     17  C   UNL     1       0.002  -0.004   0.002  0.00  0.00    +0.007 A 
BRANCH  15  18
ATOM     18  O   UNL     1       3.586  -0.632  -0.037  0.00  0.00    -0.506 OA
ATOM     19  H   UNL     1       3.938  -0.829   0.842  0.00  0.00    +0.292 HD
ENDBRANCH  15  18
ENDBRANCH   1  16
BRANCH  11  20
ATOM     20  O   UNL     1       2.628  -4.167  -2.453  0.00  0.00    -0.309 OA
ATOM     21  H   UNL     1       3.551  -4.451  -2.509  0.00  0.00    +0.237 HD
ENDBRANCH  11  20
BRANCH  10  22
ATOM     22  O   UNL     1       1.312  -6.649  -0.096  0.00  0.00    -0.375 OA
ATOM     23  H   UNL     1       1.316  -7.613  -0.010  0.00  0.00    +0.212 HD
ENDBRANCH  10  22
TORSDOF 4
