REMARK  Name = ZINC13065136
REMARK  13 active torsions:
REMARK  status: ('A' for Active; 'I' for Inactive)
REMARK    1  A    between atoms: C_1  and  C_2
REMARK    2  A    between atoms: C_2  and  C_3
REMARK    3  A    between atoms: C_3  and  C_5
REMARK    4  A    between atoms: C_3  and  N_71
REMARK    5  A    between atoms: N_9  and  C_10
REMARK    6  A    between atoms: C_10  and  C_11
REMARK    7  A    between atoms: C_11  and  C_12
REMARK    8  A    between atoms: C_18  and  C_19
REMARK    9  A    between atoms: C_18  and  N_71
REMARK   10  A    between atoms: C_25  and  C_26
REMARK   11  A    between atoms: C_25  and  N_71
REMARK   12  A    between atoms: C_31  and  C_39
REMARK   13  A    between atoms: C_32  and  C_38
REMARK                            x       y       z     vdW  Elec       q    Type
REMARK                         _______ _______ _______ _____ _____    ______ ____
ROOT
ATOM      1  N   UNL     1       0.203   0.070  -0.114  0.00  0.00    +0.392 N 
ATOM      2  H   UNL     1       0.454  -0.227  -1.064  0.00  0.00    -0.080 HD
ENDROOT
BRANCH   1   3
ATOM      3  C   UNL     1       1.062   1.208   0.275  0.00  0.00    +0.003 C 
BRANCH   3   4
ATOM      4  C   UNL     1       1.018   1.415   1.767  0.00  0.00    +0.138 A 
ATOM      5  N   UNL     1       1.234   0.510   2.690  0.00  0.00    -0.115 NA
ATOM      6  N   UNL     1       1.108   1.076   3.840  0.00  0.00    -0.023 NA
ATOM      7  N   UNL     1       0.808   2.317   3.676  0.00  0.00    -0.044 NA
ATOM      8  N   UNL     1       0.744   2.565   2.411  0.00  0.00    -0.231 N 
BRANCH   8   9
ATOM      9  C   UNL     1       0.432   3.856   1.793  0.00  0.00    +0.152 C 
BRANCH   9  10
ATOM     10  C   UNL     1      -1.078   4.099   1.855  0.00  0.00    +0.058 C 
BRANCH  10  11
ATOM     11  C   UNL     1      -1.384   5.485   1.350  0.00  0.00    -0.046 A 
ATOM     12  C   UNL     1      -1.258   6.572   2.195  0.00  0.00    +0.004 A 
ATOM     13  C   UNL     1      -1.534   7.845   1.731  0.00  0.00    +0.000 A 
ATOM     14  C   UNL     1      -1.947   8.029   0.425  0.00  0.00    +0.000 A 
ATOM     15  C   UNL     1      -2.079   6.942  -0.419  0.00  0.00    +0.000 A 
ATOM     16  C   UNL     1      -1.797   5.670   0.044  0.00  0.00    +0.004 A 
ENDBRANCH  10  11
ENDBRANCH   9  10
ENDBRANCH   8   9
ENDBRANCH   3   4
BRANCH   3  18
ATOM     17  C   UNL     1       2.555   0.764  -1.678  0.00  0.00    +0.002 C 
ATOM     18  C   UNL     1       2.499   0.908  -0.156  0.00  0.00    -0.011 C 
ENDBRANCH   3  18
ENDBRANCH   1   3
BRANCH   1  19
ATOM     19  C   UNL     1       0.410  -1.061   0.814  0.00  0.00    -0.040 C 
BRANCH  19  20
ATOM     20  C   UNL     1      -0.148  -2.311   0.185  0.00  0.00    -0.046 A 
ATOM     21  C   UNL     1      -1.450  -2.709   0.448  0.00  0.00    +0.005 A 
ATOM     22  C   UNL     1      -1.922  -3.863  -0.156  0.00  0.00    +0.020 A 
ATOM     23  C   UNL     1      -1.083  -4.581  -0.987  0.00  0.00    +0.111 A 
ATOM     24  N   UNL     1       0.152  -4.176  -1.211  0.00  0.00    -0.263 NA
ATOM     25  C   UNL     1       0.634  -3.080  -0.656  0.00  0.00    +0.112 A 
ENDBRANCH  19  20
ENDBRANCH   1  19
BRANCH   1  26
ATOM     26  C   UNL     1      -1.217   0.482  -0.100  0.00  0.00    -0.036 C 
BRANCH  26  27
ATOM     27  C   UNL     1      -1.568   1.042  -1.454  0.00  0.00    +0.001 A 
ATOM     28  C   UNL     1      -2.132   0.240  -2.391  0.00  0.00    +0.017 A 
ATOM     29  C   UNL     1      -2.465   0.817  -3.695  0.00  0.00    -0.001 A 
ATOM     30  C   UNL     1      -3.053   0.041  -4.700  0.00  0.00    +0.010 A 
ATOM     31  C   UNL     1      -3.347   0.608  -5.908  0.00  0.00    +0.004 A 
ATOM     32  C   UNL     1      -3.068   1.946  -6.147  0.00  0.00    -0.046 A 
ATOM     33  C   UNL     1      -2.489   2.730  -5.171  0.00  0.00    -0.024 A 
ATOM     34  C   UNL     1      -2.181   2.175  -3.934  0.00  0.00    +0.052 A 
ATOM     35  N   UNL     1      -1.602   2.935  -2.940  0.00  0.00    -0.322 N 
ATOM     36  H   UNL     1      -1.407   3.870  -3.106  0.00  0.00    +0.169 HD
ATOM     37  C   UNL     1      -1.304   2.398  -1.744  0.00  0.00    +0.251 A 
ATOM     38  O   UNL     1      -0.793   3.100  -0.888  0.00  0.00    -0.268 OA
ATOM     39  C   UNL     1      -2.193   4.182  -5.444  0.00  0.00    +0.046 C 
ATOM     40  C   UNL     1      -3.401   2.550  -7.487  0.00  0.00    +0.044 C 
ENDBRANCH  26  27
ENDBRANCH   1  26
TORSDOF 10
