REMARK  Name = ZINC34707989
REMARK  7 active torsions:
REMARK  status: ('A' for Active; 'I' for Inactive)
REMARK    1  A    between atoms: C_1  and  C_2
REMARK    2  A    between atoms: N_8  and  C_9
REMARK    3  A    between atoms: C_9  and  C_10
REMARK    4  A    between atoms: C_13  and  C_16
REMARK    5  A    between atoms: C_16  and  C_17
REMARK    6  A    between atoms: C_16  and  C_18
REMARK    7  A    between atoms: C_29  and  C_32
REMARK                            x       y       z     vdW  Elec       q    Type
REMARK                         _______ _______ _______ _____ _____    ______ ____
ROOT
ATOM      1  C   UNL     1      -0.508   0.559   1.026  0.00  0.00    -0.012 C 
ATOM      2  C   UNL     1      -1.151  -0.811   0.802  0.00  0.00    -0.054 C 
ATOM      3  C   UNL     1      -0.209  -1.687  -0.030  0.00  0.00    +0.092 C 
ATOM      4  N   UNL     1      -0.787  -3.037  -0.123  0.00  0.00    -0.304 N 
ATOM      5  C   UNL     1      -1.216  -3.693   1.122  0.00  0.00    +0.089 C 
ATOM      6  C   UNL     1      -2.110  -2.723   1.900  0.00  0.00    -0.059 C 
ATOM      7  N   UNL     1      -1.398  -1.454   2.099  0.00  0.00    +0.386 N 
ATOM      8  C   UNL     1      -0.922  -3.665  -1.336  0.00  0.00    +0.206 A 
ATOM      9  N   UNL     1      -1.991  -3.426  -2.050  0.00  0.00    -0.215 NA
ATOM     10  C   UNL     1      -2.197  -4.008  -3.259  0.00  0.00    +0.078 A 
ATOM     11  C   UNL     1      -3.345  -3.739  -4.008  0.00  0.00    +0.028 A 
ATOM     12  C   UNL     1      -3.522  -4.348  -5.231  0.00  0.00    +0.002 A 
ATOM     13  C   UNL     1      -2.572  -5.228  -5.730  0.00  0.00    +0.001 A 
ATOM     14  C   UNL     1      -1.431  -5.509  -5.010  0.00  0.00    +0.014 A 
ATOM     15  C   UNL     1      -1.232  -4.904  -3.771  0.00  0.00    +0.045 A 
ATOM     16  C   UNL     1      -0.038  -5.165  -2.960  0.00  0.00    +0.173 A 
ATOM     17  N   UNL     1       0.069  -4.513  -1.750  0.00  0.00    -0.244 N 
ATOM     18  C   UNL     1       1.262  -4.926  -1.215  0.00  0.00    +0.206 A 
ATOM     19  N   UNL     1       1.805  -5.764  -2.079  0.00  0.00    -0.125 NA
ATOM     20  N   UNL     1       1.034  -5.909  -3.099  0.00  0.00    -0.128 NA
ATOM     21  H   UNL     1      -0.517  -1.633   2.557  0.00  0.00    -0.081 HD
ENDROOT
BRANCH  18  22
ATOM     22  C   UNL     1       1.830  -4.514   0.077  0.00  0.00    +0.172 A 
ATOM     23  C   UNL     1       2.230  -5.349   1.078  0.00  0.00    +0.053 A 
ATOM     24  C   UNL     1       2.705  -4.531   2.121  0.00  0.00    +0.042 A 
ATOM     25  C   UNL     1       2.574  -3.253   1.713  0.00  0.00    +0.196 A 
ATOM     26  O   UNL     1       2.051  -3.246   0.476  0.00  0.00    -0.460 OA
ENDBRANCH  18  22
BRANCH   7  27
ATOM     27  C   UNL     1      -2.211  -0.564   2.938  0.00  0.00    -0.042 C 
BRANCH  27  28
ATOM     28  C   UNL     1      -2.363  -1.167   4.310  0.00  0.00    -0.064 A 
ATOM     29  C   UNL     1      -3.421  -2.016   4.579  0.00  0.00    +0.002 A 
ATOM     30  C   UNL     1      -3.560  -2.569   5.838  0.00  0.00    +0.004 A 
ATOM     31  C   UNL     1      -2.641  -2.275   6.828  0.00  0.00    -0.045 A 
ATOM     32  C   UNL     1      -1.583  -1.427   6.559  0.00  0.00    +0.004 A 
ATOM     33  C   UNL     1      -1.441  -0.877   5.299  0.00  0.00    +0.002 A 
BRANCH  31  34
ATOM     34  C   UNL     1      -2.793  -2.877   8.201  0.00  0.00    +0.013 C 
ATOM     35  C   UNL     1      -1.556  -3.715   8.530  0.00  0.00    +0.012 C 
ATOM     36  C   UNL     1      -2.942  -1.759   9.235  0.00  0.00    +0.012 C 
ENDBRANCH  31  34
ENDBRANCH  27  28
ENDBRANCH   7  27
TORSDOF 4
