REMARK  Name = ZINC07019578
REMARK  4 active torsions:
REMARK  status: ('A' for Active; 'I' for Inactive)
REMARK    1  A    between atoms: C_4  and  C_7
REMARK    2  A    between atoms: C_7  and  C_21
REMARK    3  A    between atoms: N_10  and  C_14
REMARK    4  A    between atoms: C_14  and  C_15
REMARK                            x       y       z     vdW  Elec       q    Type
REMARK                         _______ _______ _______ _____ _____    ______ ____
ROOT
ATOM      1  C   UNL     1       3.913  -0.660  -1.181  0.00  0.00    +0.164 C 
ATOM      2  C   UNL     1       3.024  -1.049  -0.016  0.00  0.00    +0.256 C 
ATOM      3  O   UNL     1       3.087  -2.061   0.648  0.00  0.00    -0.272 OA
ATOM      4  N   UNL     1       2.147  -0.035   0.127  0.00  0.00    -0.223 N 
ATOM      5  C   UNL     1       2.361   0.933  -0.772  0.00  0.00    +0.310 C 
ATOM      6  O   UNL     1       1.700   1.951  -0.838  0.00  0.00    -0.252 OA
ATOM      7  N   UNL     1       3.389   0.653  -1.593  0.00  0.00    -0.278 N 
ATOM      8  H   UNL     1       3.720   1.208  -2.316  0.00  0.00    +0.152 HD
ENDROOT
BRANCH   1  12
ATOM      9  C   UNL     1       3.557  -3.486  -4.365  0.00  0.00    +0.000 A 
ATOM     10  C   UNL     1       3.771  -3.925  -3.071  0.00  0.00    +0.000 A 
ATOM     11  C   UNL     1       3.886  -3.011  -2.041  0.00  0.00    +0.006 A 
ATOM     12  C   UNL     1       3.787  -1.657  -2.304  0.00  0.00    -0.011 A 
ATOM     13  C   UNL     1       3.568  -1.218  -3.597  0.00  0.00    +0.006 A 
ATOM     14  C   UNL     1       3.458  -2.133  -4.628  0.00  0.00    +0.000 A 
ENDBRANCH   1  12
BRANCH   1  15
ATOM     15  C   UNL     1       5.348  -0.543  -0.736  0.00  0.00    -0.011 A 
ATOM     16  C   UNL     1       5.952  -1.591  -0.067  0.00  0.00    +0.006 A 
ATOM     17  C   UNL     1       7.269  -1.486   0.337  0.00  0.00    +0.000 A 
ATOM     18  C   UNL     1       7.980  -0.328   0.082  0.00  0.00    +0.000 A 
ATOM     19  C   UNL     1       7.375   0.722  -0.583  0.00  0.00    +0.000 A 
ATOM     20  C   UNL     1       6.058   0.615  -0.992  0.00  0.00    +0.006 A 
ENDBRANCH   1  15
BRANCH   4  21
ATOM     21  C   UNL     1       1.094   0.004   1.144  0.00  0.00    +0.124 C 
BRANCH  21  22
ATOM     22  C   UNL     1      -0.180  -0.630   0.584  0.00  0.00    +0.045 C 
ATOM     23  C   UNL     1      -1.367  -0.790   1.537  0.00  0.00    +0.047 C 
ATOM     24  C   UNL     1      -1.409   0.268   0.431  0.00  0.00    +0.123 C 
ATOM     25 CL   UNL     1      -1.245   1.995   0.925  0.00  0.00    -0.101 Cl
ATOM     26 CL   UNL     1      -2.495  -0.038  -0.975  0.00  0.00    -0.101 Cl
ENDBRANCH  21  22
ENDBRANCH   4  21
TORSDOF 4
