REMARK  Name = ZINC56549900
REMARK  11 active torsions:
REMARK  status: ('A' for Active; 'I' for Inactive)
REMARK    1  A    between atoms: C_1  and  C_2
REMARK    2  A    between atoms: C_5  and  N_14
REMARK    3  A    between atoms: C_6  and  O_8
REMARK    4  A    between atoms: O_8  and  C_9
REMARK    5  A    between atoms: C_9  and  C_10
REMARK    6  A    between atoms: N_17  and  C_18
REMARK    7  A    between atoms: C_18  and  C_19
REMARK    8  A    between atoms: C_19  and  C_21
REMARK    9  A    between atoms: C_19  and  N_26
REMARK   10  A    between atoms: N_26  and  C_27
REMARK   11  A    between atoms: N_26  and  C_28
REMARK                            x       y       z     vdW  Elec       q    Type
REMARK                         _______ _______ _______ _____ _____    ______ ____
ROOT
ATOM      1  N   UNL     1       0.262  -4.190  -0.069  0.00  0.00    -0.266 N 
ATOM      2  C   UNL     1       0.069  -4.852  -1.227  0.00  0.00    +0.304 C 
ATOM      3  O   UNL     1      -0.018  -4.237  -2.272  0.00  0.00    -0.253 OA
ATOM      4  N   UNL     1      -0.027  -6.197  -1.226  0.00  0.00    -0.300 N 
ATOM      5  H   UNL     1       0.411  -4.684   0.753  0.00  0.00    +0.156 HD
ATOM      6  H   UNL     1       0.042  -6.688  -0.393  0.00  0.00    +0.150 HD
ENDROOT
BRANCH   1  11
ATOM      7  C   UNL     1       0.200   1.488  -0.004  0.00  0.00    +0.044 C 
ATOM      8  C   UNL     1       0.218  -0.019  -0.019  0.00  0.00    -0.047 A 
ATOM      9  C   UNL     1      -0.447  -0.707  -1.017  0.00  0.00    +0.005 A 
ATOM     10  C   UNL     1      -0.434  -2.089  -1.036  0.00  0.00    +0.027 A 
ATOM     11  C   UNL     1       0.248  -2.789  -0.052  0.00  0.00    +0.077 A 
ATOM     12  C   UNL     1       0.918  -2.096   0.953  0.00  0.00    +0.142 A 
ATOM     13  C   UNL     1       0.905  -0.711   0.962  0.00  0.00    +0.051 A 
BRANCH  12  14
ATOM     14  O   UNL     1       1.588  -2.777   1.921  0.00  0.00    -0.481 OA
BRANCH  14  15
ATOM     15  C   UNL     1       2.252  -2.001   2.920  0.00  0.00    +0.342 C 
BRANCH  15  16
ATOM     16  C   UNL     1       2.945  -2.934   3.914  0.00  0.00    +0.424 C 
ATOM     17  F   UNL     1       3.881  -3.724   3.238  0.00  0.00    -0.167 F 
ATOM     18  F   UNL     1       3.595  -2.174   4.892  0.00  0.00    -0.167 F 
ATOM     19  F   UNL     1       1.992  -3.758   4.522  0.00  0.00    -0.167 F 
ENDBRANCH  15  16
ENDBRANCH  14  15
ENDBRANCH  12  14
ENDBRANCH   1  11
BRANCH   4  20
ATOM     20  C   UNL     1      -0.237  -6.916  -2.485  0.00  0.00    +0.098 C 
BRANCH  20  21
ATOM     21  C   UNL     1      -0.437  -8.405  -2.195  0.00  0.00    +0.016 C 
BRANCH  21  22
ATOM     22  C   UNL     1       0.835  -8.982  -1.628  0.00  0.00    +0.093 A 
ATOM     23  C   UNL     1       1.752  -9.687  -2.314  0.00  0.00    +0.043 A 
ATOM     24  C   UNL     1       2.774 -10.029  -1.398  0.00  0.00    +0.041 A 
ATOM     25  C   UNL     1       2.420  -9.512  -0.208  0.00  0.00    +0.195 A 
ATOM     26  O   UNL     1       1.247  -8.874  -0.354  0.00  0.00    -0.469 OA
ENDBRANCH  21  22
BRANCH  21  27
ATOM     27  N   UNL     1      -1.526  -8.572  -1.222  0.00  0.00    +0.384 N 
ATOM     28  C   UNL     1      -2.788  -8.110  -1.817  0.00  0.00    -0.096 C 
ATOM     29  C   UNL     1      -1.645  -9.990  -0.860  0.00  0.00    -0.096 C 
ATOM     30  H   UNL     1      -1.325  -8.029  -0.396  0.00  0.00    -0.082 HD
ENDBRANCH  21  27
ENDBRANCH  20  21
ENDBRANCH   4  20
TORSDOF 8
