REMARK  Name = ZINC65963858
REMARK  8 active torsions:
REMARK  status: ('A' for Active; 'I' for Inactive)
REMARK    1  A    between atoms: C_1  and  C_2
REMARK    2  A    between atoms: C_2  and  C_3
REMARK    3  A    between atoms: C_2  and  C_4
REMARK    4  A    between atoms: C_2  and  N_5
REMARK    5  A    between atoms: C_9  and  C_11
REMARK    6  A    between atoms: C_11  and  N_12
REMARK    7  A    between atoms: C_15  and  N_18
REMARK    8  A    between atoms: C_19  and  C_21
REMARK                            x       y       z     vdW  Elec       q    Type
REMARK                         _______ _______ _______ _____ _____    ______ ____
ROOT
ATOM      1  N   UNL     1       5.970  -0.200  -4.010  0.00  0.00    +0.386 N 
ATOM      2  C   UNL     1       6.710  -0.775  -2.881  0.00  0.00    -0.076 C 
ATOM      3  C   UNL     1       8.122  -0.187  -2.839  0.00  0.00    +0.003 C 
ATOM      4  C   UNL     1       8.846  -0.518  -4.148  0.00  0.00    +0.069 C 
ATOM      5  C   UNL     1       8.026   0.023  -5.324  0.00  0.00    +0.003 C 
ATOM      6  C   UNL     1       6.618  -0.574  -5.273  0.00  0.00    -0.076 C 
ATOM      7  H   UNL     1       5.957   0.805  -3.924  0.00  0.00    -0.081 HD
ENDROOT
BRANCH   4   8
ATOM      8  N   UNL     1      10.171   0.107  -4.147  0.00  0.00    -0.312 N 
ATOM      9  C   UNL     1      11.162  -0.413  -4.898  0.00  0.00    +0.216 C 
ATOM     10  O   UNL     1      10.956  -1.398  -5.575  0.00  0.00    -0.276 OA
ATOM     11  H   UNL     1      10.335   0.895  -3.605  0.00  0.00    +0.149 HD
BRANCH   9  12
ATOM     12  C   UNL     1      12.525   0.230  -4.896  0.00  0.00    +0.075 C 
ATOM     13  C   UNL     1      13.093   0.218  -3.476  0.00  0.00    +0.013 C 
ATOM     14  C   UNL     1      14.477   0.870  -3.474  0.00  0.00    +0.001 C 
ATOM     15  C   UNL     1      15.409   0.090  -4.403  0.00  0.00    +0.000 C 
ATOM     16  C   UNL     1      14.841   0.102  -5.824  0.00  0.00    +0.001 C 
ATOM     17  C   UNL     1      13.457  -0.550  -5.825  0.00  0.00    +0.013 C 
ENDBRANCH   9  12
ENDBRANCH   4   8
BRANCH   1  18
ATOM     18  C   UNL     1       4.591  -0.709  -3.999  0.00  0.00    +0.019 C 
BRANCH  18  23
ATOM     19  N   UNL     1       0.688  -0.476  -1.203  0.00  0.00    -0.294 N 
ATOM     20  C   UNL     1       1.972  -0.132  -1.427  0.00  0.00    +0.306 C 
ATOM     21  O   UNL     1       2.560   0.570  -0.629  0.00  0.00    -0.252 OA
ATOM     22  N   UNL     1       2.602  -0.567  -2.536  0.00  0.00    -0.242 N 
ATOM     23  C   UNL     1       3.886  -0.223  -2.760  0.00  0.00    +0.204 C 
ATOM     24  O   UNL     1       4.473   0.478  -1.963  0.00  0.00    -0.277 OA
ATOM     25  H   UNL     1       0.218  -1.037  -1.840  0.00  0.00    +0.151 HD
ATOM     26  H   UNL     1       2.132  -1.127  -3.173  0.00  0.00    +0.159 HD
BRANCH  19  28
ATOM     27  C   UNL     1      -0.019   1.526   0.010  0.00  0.00    +0.031 C 
ATOM     28  C   UNL     1       0.002  -0.004   0.002  0.00  0.00    +0.028 C 
ATOM     29  C   UNL     1       0.742  -0.511   1.242  0.00  0.00    +0.031 C 
ATOM     30  C   UNL     1      -1.433  -0.534   0.013  0.00  0.00    +0.031 C 
ENDBRANCH  19  28
ENDBRANCH  18  23
ENDBRANCH   1  18
TORSDOF 5
