REMARK  Name = ZINC16588511
REMARK  11 active torsions:
REMARK  status: ('A' for Active; 'I' for Inactive)
REMARK    1  A    between atoms: C_1  and  C_2
REMARK    2  A    between atoms: C_2  and  N_63
REMARK    3  A    between atoms: C_3  and  C_4
REMARK    4  A    between atoms: C_3  and  N_63
REMARK    5  A    between atoms: N_6  and  C_7
REMARK    6  A    between atoms: C_17  and  C_18
REMARK    7  A    between atoms: C_17  and  N_63
REMARK    8  A    between atoms: N_20  and  C_21
REMARK    9  A    between atoms: C_22  and  C_30
REMARK   10  A    between atoms: C_30  and  O_32
REMARK   11  A    between atoms: O_32  and  C_33
REMARK                            x       y       z     vdW  Elec       q    Type
REMARK                         _______ _______ _______ _____ _____    ______ ____
ROOT
ATOM      1  N   UNL     1       4.485  -4.173  -0.129  0.00  0.00    +0.391 N 
ATOM      2  H   UNL     1       3.817  -4.383  -0.880  0.00  0.00    -0.080 HD
ENDROOT
BRANCH   1   4
ATOM      3  C   UNL     1       2.420  -4.174   1.178  0.00  0.00    -0.017 C 
ATOM      4  C   UNL     1       3.895  -4.579   1.164  0.00  0.00    -0.081 C 
ENDBRANCH   1   4
BRANCH   1   5
ATOM      5  C   UNL     1       4.764  -2.722  -0.124  0.00  0.00    +0.020 C 
BRANCH   5   6
ATOM      6  C   UNL     1       4.915  -2.255  -1.549  0.00  0.00    +0.201 C 
ATOM      7  O   UNL     1       4.721  -3.027  -2.464  0.00  0.00    -0.278 OA
ATOM      8  N   UNL     1       5.266  -0.979  -1.806  0.00  0.00    -0.287 N 
ATOM      9  H   UNL     1       5.495  -0.383  -1.077  0.00  0.00    +0.155 HD
BRANCH   8  10
ATOM     10  C   UNL     1       5.301  -0.515  -3.128  0.00  0.00    +0.037 A 
ATOM     11  C   UNL     1       4.932   0.792  -3.415  0.00  0.00    +0.027 A 
ATOM     12  C   UNL     1       4.964   1.250  -4.718  0.00  0.00    +0.051 A 
ATOM     13  C   UNL     1       5.365   0.406  -5.743  0.00  0.00    +0.162 A 
ATOM     14  C   UNL     1       5.738  -0.902  -5.458  0.00  0.00    +0.164 A 
ATOM     15  C   UNL     1       5.704  -1.362  -4.151  0.00  0.00    +0.072 A 
ATOM     16  O   UNL     1       6.143  -1.742  -6.450  0.00  0.00    -0.485 OA
ATOM     17  C   UNL     1       5.809  -1.365  -7.790  0.00  0.00    +0.270 C 
ATOM     18  C   UNL     1       6.149   0.120  -7.970  0.00  0.00    +0.270 C 
ATOM     19  O   UNL     1       5.383   0.873  -7.022  0.00  0.00    -0.485 OA
ENDBRANCH   8  10
ENDBRANCH   5   6
ENDBRANCH   1   5
BRANCH   1  20
ATOM     20  C   UNL     1       5.734  -4.927  -0.373  0.00  0.00    +0.020 C 
BRANCH  20  21
ATOM     21  C   UNL     1       5.391  -6.378  -0.592  0.00  0.00    +0.201 C 
ATOM     22  O   UNL     1       4.236  -6.744  -0.533  0.00  0.00    -0.278 OA
ATOM     23  N   UNL     1       6.367  -7.269  -0.853  0.00  0.00    -0.281 N 
ATOM     24  H   UNL     1       7.291  -6.976  -0.900  0.00  0.00    +0.155 HD
BRANCH  23  25
ATOM     25  C   UNL     1       6.052  -8.604  -1.054  0.00  0.00    +0.086 A 
ATOM     26  C   UNL     1       6.909  -9.659  -1.337  0.00  0.00    +0.091 A 
ATOM     27  C   UNL     1       6.318 -10.977  -1.500  0.00  0.00    -0.021 A 
ATOM     28  C   UNL     1       4.975 -11.027  -1.366  0.00  0.00    -0.004 A 
ATOM     29  S   UNL     1       4.493  -9.358  -1.021  0.00  0.00    -0.077 S 
ATOM     30  C   UNL     1       4.099 -12.235  -1.487  0.00  0.00    +0.043 C 
ATOM     31  C   UNL     1       4.909 -13.355  -2.156  0.00  0.00    +0.005 C 
ATOM     32  C   UNL     1       6.272 -13.459  -1.465  0.00  0.00    +0.005 C 
ATOM     33  C   UNL     1       7.123 -12.235  -1.806  0.00  0.00    +0.037 C 
BRANCH  26  34
ATOM     34  C   UNL     1       8.353  -9.453  -1.463  0.00  0.00    +0.342 C 
ATOM     35  O   UNL     1       9.069  -9.551  -0.484  0.00  0.00    -0.245 OA
BRANCH  34  36
ATOM     36  O   UNL     1       8.890  -9.155  -2.664  0.00  0.00    -0.464 OA
ATOM     37  C   UNL     1      10.329  -8.965  -2.713  0.00  0.00    +0.280 C 
ENDBRANCH  34  36
ENDBRANCH  26  34
ENDBRANCH  23  25
ENDBRANCH  20  21
ENDBRANCH   1  20
TORSDOF 9
