REMARK  Name = ZINC02667942
REMARK  10 active torsions:
REMARK  status: ('A' for Active; 'I' for Inactive)
REMARK    1  A    between atoms: C_1  and  C_2
REMARK    2  A    between atoms: C_3  and  C_33
REMARK    3  A    between atoms: C_5  and  N_25
REMARK    4  A    between atoms: C_6  and  C_7
REMARK    5  A    between atoms: C_7  and  C_9
REMARK    6  A    between atoms: C_7  and  N_61
REMARK    7  A    between atoms: C_12  and  O_15
REMARK    8  A    between atoms: O_15  and  C_16
REMARK    9  A    between atoms: C_21  and  C_24
REMARK   10  A    between atoms: C_26  and  C_28
REMARK                            x       y       z     vdW  Elec       q    Type
REMARK                         _______ _______ _______ _____ _____    ______ ____
ROOT
ATOM      1  C   UNL     1      -0.929  -5.226  -0.245  0.00  0.00    -0.004 C 
ENDROOT
BRANCH   1   8
ATOM      2  C   UNL     1       1.278  -5.504   0.708  0.00  0.00    -0.077 C 
ATOM      3  C   UNL     1       2.280  -4.905   1.698  0.00  0.00    -0.015 C 
ATOM      4  C   UNL     1       1.705  -4.993   3.115  0.00  0.00    -0.018 C 
ATOM      5  C   UNL     1       0.361  -4.260   3.158  0.00  0.00    -0.015 C 
ATOM      6  C   UNL     1      -0.585  -4.878   2.125  0.00  0.00    -0.077 C 
ATOM      7  C   UNL     1       2.675  -4.341   4.102  0.00  0.00    +0.007 C 
ATOM      8  N   UNL     1       0.015  -4.739   0.781  0.00  0.00    +0.387 N 
ATOM      9  H   UNL     1       0.216  -3.748   0.607  0.00  0.00    -0.080 HD
ENDBRANCH   1   8
BRANCH   1  15
ATOM     10  C   UNL     1      -3.489  -6.603  -0.459  0.00  0.00    +0.045 C 
ATOM     11  C   UNL     1      -3.438  -5.115  -0.224  0.00  0.00    -0.037 A 
ATOM     12  C   UNL     1      -4.582  -4.397  -0.114  0.00  0.00    -0.008 A 
ATOM     13  S   UNL     1      -3.961  -2.744   0.150  0.00  0.00    -0.078 S 
ATOM     14  C   UNL     1      -2.216  -3.118   0.097  0.00  0.00    +0.074 A 
ATOM     15  C   UNL     1      -2.223  -4.463  -0.122  0.00  0.00    -0.025 A 
ATOM     16  C   UNL     1      -6.010  -4.873  -0.193  0.00  0.00    +0.052 C 
BRANCH  14  17
ATOM     17  N   UNL     1      -1.128  -2.254   0.237  0.00  0.00    -0.273 N 
ATOM     18  C   UNL     1      -1.330  -0.925   0.334  0.00  0.00    +0.284 C 
ATOM     19  O   UNL     1      -2.461  -0.477   0.300  0.00  0.00    -0.266 OA
ATOM     20  H   UNL     1      -0.226  -2.611   0.264  0.00  0.00    +0.156 HD
BRANCH  18  21
ATOM     21  C   UNL     1      -0.187  -0.019   0.481  0.00  0.00    +0.189 A 
ATOM     22  C   UNL     1      -0.249   1.341   0.589  0.00  0.00    +0.054 A 
ATOM     23  C   UNL     1       1.072   1.798   0.710  0.00  0.00    +0.042 A 
ATOM     24  C   UNL     1       1.874   0.711   0.670  0.00  0.00    +0.196 A 
ATOM     25  O   UNL     1       1.112  -0.382   0.532  0.00  0.00    -0.458 OA
ENDBRANCH  18  21
ENDBRANCH  14  17
ENDBRANCH   1  15
BRANCH   1  26
ATOM     26  C   UNL     1      -0.333  -4.986  -1.609  0.00  0.00    -0.056 A 
ATOM     27  C   UNL     1       0.496  -3.899  -1.818  0.00  0.00    +0.006 A 
ATOM     28  C   UNL     1       1.048  -3.680  -3.065  0.00  0.00    +0.046 A 
ATOM     29  C   UNL     1       0.761  -4.545  -4.111  0.00  0.00    +0.127 A 
ATOM     30  C   UNL     1      -0.075  -5.632  -3.900  0.00  0.00    +0.046 A 
ATOM     31  C   UNL     1      -0.620  -5.850  -2.649  0.00  0.00    +0.006 A 
BRANCH  29  32
ATOM     32  O   UNL     1       1.298  -4.329  -5.340  0.00  0.00    -0.434 OA
BRANCH  32  33
ATOM     33  C   UNL     1       2.151  -3.191  -5.484  0.00  0.00    +0.541 C 
ATOM     34  F   UNL     1       1.433  -2.029  -5.178  0.00  0.00    -0.166 F 
ATOM     35  F   UNL     1       3.239  -3.310  -4.614  0.00  0.00    -0.166 F 
ENDBRANCH  32  33
ENDBRANCH  29  32
ENDBRANCH   1  26
TORSDOF 7
