REMARK  Name = ZINC45794900
REMARK  10 active torsions:
REMARK  status: ('A' for Active; 'I' for Inactive)
REMARK    1  A    between atoms: C_1  and  C_2
REMARK    2  A    between atoms: C_5  and  C_9
REMARK    3  A    between atoms: C_11  and  C_14
REMARK    4  A    between atoms: C_14  and  C_16
REMARK    5  A    between atoms: C_14  and  N_17
REMARK    6  A    between atoms: N_17  and  C_18
REMARK    7  A    between atoms: N_17  and  C_19
REMARK    8  A    between atoms: C_19  and  C_20
REMARK    9  A    between atoms: N_22  and  C_23
REMARK   10  A    between atoms: C_28  and  C_29
REMARK                            x       y       z     vdW  Elec       q    Type
REMARK                         _______ _______ _______ _____ _____    ______ ____
ROOT
ATOM      1  N   UNL     1      -0.873  -8.483   1.177  0.00  0.00    +0.391 N 
ATOM      2  C   UNL     1      -2.222  -7.902   1.150  0.00  0.00    -0.094 C 
ATOM      3  H   UNL     1      -0.616  -8.781   0.248  0.00  0.00    -0.080 HD
ENDROOT
BRANCH   1   4
ATOM      4  C   UNL     1       0.085  -7.474   1.650  0.00  0.00    +0.019 C 
ATOM      5  C   UNL     1       1.490  -8.079   1.679  0.00  0.00    -0.003 C 
BRANCH   4   8
ATOM      6  C   UNL     1       0.032  -4.245  -0.006  0.00  0.00    +0.202 A 
ATOM      7  N   UNL     1       0.041  -5.038   1.081  0.00  0.00    -0.193 NA
ATOM      8  C   UNL     1       0.067  -6.289   0.719  0.00  0.00    +0.214 A 
ATOM      9  O   UNL     1       0.076  -6.345  -0.619  0.00  0.00    -0.339 OA
ATOM     10  N   UNL     1       0.047  -5.001  -1.076  0.00  0.00    -0.056 NA
BRANCH   6  15
ATOM     11  C   UNL     1      -0.078   1.515   0.033  0.00  0.00    +0.047 C 
ATOM     12  C   UNL     1      -0.050   0.008   0.024  0.00  0.00    -0.015 A 
ATOM     13  C   UNL     1      -0.035  -0.674  -1.180  0.00  0.00    +0.007 A 
ATOM     14  C   UNL     1      -0.008  -2.053  -1.195  0.00  0.00    +0.012 A 
ATOM     15  C   UNL     1       0.004  -2.761   0.005  0.00  0.00    +0.025 A 
ATOM     16  C   UNL     1      -0.011  -2.072   1.216  0.00  0.00    +0.050 A 
ATOM     17  C   UNL     1      -0.032  -0.690   1.220  0.00  0.00    +0.127 A 
ATOM     18  F   UNL     1      -0.041  -0.019   2.393  0.00  0.00    -0.205 F 
ENDBRANCH   6  15
ENDBRANCH   4   8
ENDBRANCH   1   4
BRANCH   1  19
ATOM     19  C   UNL     1      -0.856  -9.638   2.085  0.00  0.00    +0.020 C 
BRANCH  19  20
ATOM     20  C   UNL     1      -1.745 -10.723   1.534  0.00  0.00    +0.201 C 
ATOM     21  O   UNL     1      -2.336 -10.550   0.489  0.00  0.00    -0.278 OA
ATOM     22  N   UNL     1      -1.885 -11.884   2.204  0.00  0.00    -0.287 N 
ATOM     23  H   UNL     1      -1.352 -12.054   2.996  0.00  0.00    +0.155 HD
BRANCH  22  24
ATOM     24  C   UNL     1      -2.798 -12.845   1.755  0.00  0.00    +0.036 A 
ATOM     25  C   UNL     1      -3.893 -12.461   0.991  0.00  0.00    +0.024 A 
ATOM     26  C   UNL     1      -4.792 -13.411   0.549  0.00  0.00    +0.017 A 
ATOM     27  C   UNL     1      -4.604 -14.745   0.867  0.00  0.00    +0.018 A 
ATOM     28  C   UNL     1      -3.515 -15.130   1.628  0.00  0.00    +0.020 A 
ATOM     29  C   UNL     1      -2.609 -14.184   2.068  0.00  0.00    -0.028 A 
ATOM     30  C   UNL     1      -1.419 -14.606   2.891  0.00  0.00    +0.046 C 
ATOM     31 BR   UNL     1      -5.838 -16.043   0.261  0.00  0.00    -0.050 Br
ENDBRANCH  22  24
ENDBRANCH  19  20
ENDBRANCH   1  19
TORSDOF 6
