REMARK  Name = ZINC39687328
REMARK  3 active torsions:
REMARK  status: ('A' for Active; 'I' for Inactive)
REMARK    1  A    between atoms: C_10  and  N_13
REMARK    2  A    between atoms: C_14  and  C_16
REMARK    3  A    between atoms: C_27  and  C_29
REMARK                            x       y       z     vdW  Elec       q    Type
REMARK                         _______ _______ _______ _____ _____    ______ ____
ROOT
ATOM      1  C   UNL     1       1.059  -7.796  -3.535  0.00  0.00    +0.100 C 
ATOM      2  C   UNL     1       0.203  -7.033  -4.571  0.00  0.00    +0.121 C 
ATOM      3  N   UNL     1      -0.564  -8.089  -5.273  0.00  0.00    -0.296 N 
ATOM      4  C   UNL     1      -0.936  -9.047  -4.205  0.00  0.00    +0.115 C 
ATOM      5  C   UNL     1       0.308  -9.117  -3.297  0.00  0.00    -0.004 C 
ATOM      6  C   UNL     1      -0.112  -9.230  -1.835  0.00  0.00    -0.010 C 
ATOM      7  C   UNL     1      -0.805 -10.577  -1.611  0.00  0.00    -0.082 C 
ATOM      8  N   UNL     1       0.113 -11.667  -1.963  0.00  0.00    +0.379 N 
ATOM      9  C   UNL     1       0.439 -11.605  -3.393  0.00  0.00    -0.082 C 
ATOM     10  C   UNL     1       1.185 -10.302  -3.693  0.00  0.00    -0.010 C 
ATOM     11  C   UNL     1      -0.856  -8.162  -6.587  0.00  0.00    +0.248 C 
ATOM     12  O   UNL     1      -0.401  -7.339  -7.357  0.00  0.00    -0.270 OA
ATOM     13  H   UNL     1       0.961 -11.579  -1.422  0.00  0.00    -0.086 HD
ATOM     14  H   UNL     1      -0.323 -12.553  -1.757  0.00  0.00    -0.086 HD
ENDROOT
BRANCH  11  15
ATOM     15  C   UNL     1      -1.727  -9.243  -7.091  0.00  0.00    +0.055 A 
ATOM     16  C   UNL     1      -2.792  -9.704  -6.314  0.00  0.00    +0.016 A 
ATOM     17  C   UNL     1      -3.602 -10.713  -6.790  0.00  0.00    +0.021 A 
ATOM     18  C   UNL     1      -3.362 -11.270  -8.036  0.00  0.00    +0.042 A 
ATOM     19  C   UNL     1      -2.309 -10.818  -8.811  0.00  0.00    +0.040 A 
ATOM     20  C   UNL     1      -1.494  -9.804  -8.349  0.00  0.00    +0.054 A 
ATOM     21 CL   UNL     1      -0.177  -9.232  -9.326  0.00  0.00    -0.083 Cl
ATOM     22 CL   UNL     1      -4.387 -12.541  -8.626  0.00  0.00    -0.083 Cl
ENDBRANCH  11  15
BRANCH   1  24
ATOM     23  N   UNL     1       2.250  -7.125  -1.474  0.00  0.00    -0.312 N 
ATOM     24  C   UNL     1       1.157  -7.010  -2.253  0.00  0.00    +0.218 C 
ATOM     25  O   UNL     1       0.251  -6.274  -1.923  0.00  0.00    -0.275 OA
ATOM     26  H   UNL     1       2.975  -7.713  -1.738  0.00  0.00    +0.149 HD
BRANCH  23  36
ATOM     27  C   UNL     1       6.557  -4.399   4.040  0.00  0.00    +0.005 A 
ATOM     28  C   UNL     1       6.941  -3.129   3.629  0.00  0.00    +0.018 A 
ATOM     29  C   UNL     1       6.243  -2.508   2.613  0.00  0.00    +0.084 A 
ATOM     30  N   UNL     1       5.220  -3.104   2.032  0.00  0.00    -0.350 N 
ATOM     31  C   UNL     1       4.823  -4.314   2.396  0.00  0.00    +0.099 A 
ATOM     32  C   UNL     1       5.481  -4.999   3.413  0.00  0.00    +0.042 A 
ATOM     33  N   UNL     1       3.739  -4.905   1.757  0.00  0.00    -0.317 N 
ATOM     34  C   UNL     1       3.361  -6.293   2.053  0.00  0.00    +0.108 C 
ATOM     35  C   UNL     1       3.291  -7.077   0.739  0.00  0.00    +0.041 C 
ATOM     36  C   UNL     1       2.345  -6.360  -0.228  0.00  0.00    +0.076 C 
ATOM     37  C   UNL     1       2.885  -4.960  -0.528  0.00  0.00    +0.041 C 
ATOM     38  C   UNL     1       2.946  -4.151   0.776  0.00  0.00    +0.108 C 
ATOM     39  H   UNL     1       4.746  -2.645   1.321  0.00  0.00    +0.166 HD
ENDBRANCH  23  36
ENDBRANCH   1  24
TORSDOF 3
