REMARK  Name = ZINC40917217
REMARK  12 active torsions:
REMARK  status: ('A' for Active; 'I' for Inactive)
REMARK    1  A    between atoms: C_1  and  C_2
REMARK    2  A    between atoms: C_2  and  O_3
REMARK    3  A    between atoms: O_3  and  C_4
REMARK    4  A    between atoms: C_6  and  C_20
REMARK    5  A    between atoms: C_9  and  O_10
REMARK    6  A    between atoms: O_10  and  C_11
REMARK    7  A    between atoms: C_11  and  C_12
REMARK    8  A    between atoms: C_17  and  C_18
REMARK    9  A    between atoms: C_22  and  C_31
REMARK   10  A    between atoms: C_23  and  C_30
REMARK   11  A    between atoms: C_31  and  O_33
REMARK   12  A    between atoms: O_33  and  C_34
REMARK                            x       y       z     vdW  Elec       q    Type
REMARK                         _______ _______ _______ _____ _____    ______ ____
ROOT
ATOM      1  C   UNL     1       0.610  -1.956   1.716  0.00  0.00    +0.163 A 
ATOM      2  C   UNL     1       0.198  -2.730   0.643  0.00  0.00    +0.055 A 
ATOM      3  C   UNL     1       0.278  -4.108   0.713  0.00  0.00    -0.014 A 
ATOM      4  C   UNL     1       0.768  -4.718   1.852  0.00  0.00    +0.025 A 
ATOM      5  C   UNL     1       1.182  -3.953   2.927  0.00  0.00    +0.063 A 
ATOM      6  C   UNL     1       1.110  -2.570   2.861  0.00  0.00    +0.176 A 
ATOM      7 BR   UNL     1       1.851  -4.791   4.484  0.00  0.00    -0.046 Br
ENDROOT
BRANCH   3   8
ATOM      8  C   UNL     1      -0.172  -4.947  -0.455  0.00  0.00    +0.181 C 
ATOM      9  C   UNL     1       0.984  -5.775  -0.954  0.00  0.00    +0.082 C 
ATOM     10  C   UNL     1       1.068  -7.102  -0.770  0.00  0.00    +0.020 C 
ATOM     11  N   UNL     1       0.093  -7.815  -0.118  0.00  0.00    -0.286 N 
ATOM     12  C   UNL     1      -1.112  -7.172   0.125  0.00  0.00    +0.240 A 
ATOM     13  N   UNL     1      -1.253  -5.830  -0.033  0.00  0.00    -0.201 N 
ATOM     14  N   UNL     1      -2.580  -5.552   0.289  0.00  0.00    -0.042 NA
ATOM     15  N   UNL     1      -3.125  -6.681   0.609  0.00  0.00    -0.021 NA
ATOM     16  N   UNL     1      -2.264  -7.638   0.515  0.00  0.00    -0.092 NA
ATOM     17  C   UNL     1       2.274  -7.834  -1.299  0.00  0.00    +0.061 C 
ATOM     18  H   UNL     1       0.241  -8.732   0.161  0.00  0.00    +0.155 HD
BRANCH   9  19
ATOM     19  C   UNL     1       2.028  -5.124  -1.647  0.00  0.00    +0.339 C 
ATOM     20  O   UNL     1       1.857  -4.747  -2.791  0.00  0.00    -0.245 OA
BRANCH  19  21
ATOM     21  O   UNL     1       3.217  -4.920  -1.040  0.00  0.00    -0.465 OA
ATOM     22  C   UNL     1       4.228  -4.255  -1.801  0.00  0.00    +0.280 C 
ENDBRANCH  19  21
ENDBRANCH   9  19
ENDBRANCH   3   8
BRANCH   1  23
ATOM     23  O   UNL     1       0.532  -0.600   1.649  0.00  0.00    -0.489 OA
BRANCH  23  25
ATOM     24  C   UNL     1      -0.002   1.486   0.553  0.00  0.00    +0.048 C 
ATOM     25  C   UNL     1       0.009  -0.040   0.443  0.00  0.00    +0.226 C 
ENDBRANCH  23  25
ENDBRANCH   1  23
BRANCH   6  26
ATOM     26  O   UNL     1       1.521  -1.814   3.915  0.00  0.00    -0.483 OA
BRANCH  26  27
ATOM     27  C   UNL     1       0.543  -1.498   4.907  0.00  0.00    +0.265 C 
BRANCH  27  28
ATOM     28  C   UNL     1       1.176  -0.662   5.989  0.00  0.00    -0.007 A 
ATOM     29  C   UNL     1       2.513  -0.320   5.904  0.00  0.00    +0.007 A 
ATOM     30  C   UNL     1       3.095   0.447   6.896  0.00  0.00    +0.000 A 
ATOM     31  C   UNL     1       2.339   0.873   7.973  0.00  0.00    +0.000 A 
ATOM     32  C   UNL     1       1.002   0.532   8.057  0.00  0.00    +0.004 A 
ATOM     33  C   UNL     1       0.420  -0.232   7.062  0.00  0.00    -0.044 A 
ATOM     34  C   UNL     1      -1.039  -0.599   7.151  0.00  0.00    +0.044 C 
ENDBRANCH  27  28
ENDBRANCH  26  27
ENDBRANCH   6  26
TORSDOF 8
