REMARK  Name = ZINC36316177
REMARK  17 active torsions:
REMARK  status: ('A' for Active; 'I' for Inactive)
REMARK    1  A    between atoms: C_1  and  C_2
REMARK    2  A    between atoms: C_2  and  C_3
REMARK    3  A    between atoms: C_3  and  C_4
REMARK    4  A    between atoms: C_4  and  C_5
REMARK    5  A    between atoms: C_5  and  C_7
REMARK    6  A    between atoms: C_5  and  O_35
REMARK    7  A    between atoms: C_7  and  N_8
REMARK    8  A    between atoms: N_8  and  C_9
REMARK    9  A    between atoms: N_8  and  C_31
REMARK   10  A    between atoms: C_9  and  C_10
REMARK   11  A    between atoms: C_11  and  C_25
REMARK   12  A    between atoms: N_13  and  C_24
REMARK   13  A    between atoms: C_14  and  O_15
REMARK   14  A    between atoms: O_15  and  C_16
REMARK   15  A    between atoms: C_31  and  C_32
REMARK   16  A    between atoms: C_32  and  C_33
REMARK   17  A    between atoms: C_32  and  C_34
REMARK                            x       y       z     vdW  Elec       q    Type
REMARK                         _______ _______ _______ _____ _____    ______ ____
ROOT
ATOM      1  C   UNL     1      -6.080  -6.198  -0.294  0.00  0.00    +0.025 A 
ATOM      2  C   UNL     1      -6.952  -6.413   0.790  0.00  0.00    +0.098 A 
ATOM      3  N   UNL     1      -8.114  -6.802   0.309  0.00  0.00    -0.168 NA
ATOM      4  N   UNL     1      -8.018  -6.848  -1.088  0.00  0.00    -0.235 N 
ATOM      5  C   UNL     1      -6.762  -6.467  -1.436  0.00  0.00    +0.221 A 
ATOM      6  C   UNL     1      -9.088  -7.233  -2.012  0.00  0.00    +0.176 C 
ENDROOT
BRANCH   2   7
ATOM      7  C   UNL     1      -6.621  -6.231   2.225  0.00  0.00    +0.002 A 
ATOM      8  C   UNL     1      -7.528  -5.608   3.079  0.00  0.00    +0.010 A 
ATOM      9  C   UNL     1      -7.214  -5.442   4.413  0.00  0.00    +0.001 A 
ATOM     10  C   UNL     1      -6.001  -5.893   4.902  0.00  0.00    +0.000 A 
ATOM     11  C   UNL     1      -5.097  -6.511   4.058  0.00  0.00    +0.001 A 
ATOM     12  C   UNL     1      -5.403  -6.689   2.724  0.00  0.00    +0.010 A 
ENDBRANCH   2   7
BRANCH   1  13
ATOM     13  C   UNL     1      -4.646  -5.743  -0.202  0.00  0.00    -0.035 C 
BRANCH  13  14
ATOM     14  N   UNL     1      -4.580  -4.289  -0.397  0.00  0.00    +0.384 N 
ATOM     15  H   UNL     1      -4.969  -4.053  -1.298  0.00  0.00    -0.081 HD
BRANCH  14  16
ATOM     16  C   UNL     1      -3.179  -3.850  -0.339  0.00  0.00    -0.047 C 
BRANCH  16  17
ATOM     17  C   UNL     1      -2.423  -4.393  -1.553  0.00  0.00    +0.098 C 
BRANCH  17  18
ATOM     18  O   UNL     1      -2.311  -5.814  -1.448  0.00  0.00    -0.394 OA
ATOM     19  H   UNL     1      -1.838  -6.114  -0.660  0.00  0.00    +0.210 HD
ENDBRANCH  17  18
BRANCH  17  20
ATOM     20  C   UNL     1      -1.025  -3.773  -1.602  0.00  0.00    +0.029 C 
BRANCH  20  21
ATOM     21  C   UNL     1      -0.314  -4.219  -2.881  0.00  0.00    +0.002 C 
BRANCH  21  23
ATOM     22  C   UNL     1       1.794  -4.045  -4.210  0.00  0.00    +0.004 C 
ATOM     23  C   UNL     1       1.084  -3.599  -2.930  0.00  0.00    -0.003 C 
ENDBRANCH  21  23
ENDBRANCH  20  21
ENDBRANCH  17  20
ENDBRANCH  16  17
ENDBRANCH  14  16
BRANCH  14  24
ATOM     24  C   UNL     1      -5.348  -3.617   0.659  0.00  0.00    -0.075 C 
BRANCH  24  25
ATOM     25  C   UNL     1      -5.411  -2.117   0.369  0.00  0.00    -0.034 C 
ATOM     26  C   UNL     1      -6.182  -1.881  -0.932  0.00  0.00    +0.005 C 
ATOM     27  C   UNL     1      -6.124  -1.404   1.520  0.00  0.00    +0.005 C 
ENDBRANCH  24  25
ENDBRANCH  14  24
ENDBRANCH  13  14
ENDBRANCH   1  13
BRANCH   5  28
ATOM     28  O   UNL     1      -6.275  -6.376  -2.700  0.00  0.00    -0.435 OA
BRANCH  28  29
ATOM     29  C   UNL     1      -5.745  -7.494  -3.263  0.00  0.00    +0.166 A 
ATOM     30  C   UNL     1      -5.809  -8.706  -2.591  0.00  0.00    +0.052 A 
ATOM     31  C   UNL     1      -5.271  -9.842  -3.164  0.00  0.00    +0.042 A 
ATOM     32  C   UNL     1      -4.667  -9.773  -4.408  0.00  0.00    +0.126 A 
ATOM     33  C   UNL     1      -4.602  -8.565  -5.081  0.00  0.00    +0.080 A 
ATOM     34  C   UNL     1      -5.145  -7.426  -4.513  0.00  0.00    +0.168 A 
ATOM     35  F   UNL     1      -5.087  -6.248  -5.172  0.00  0.00    -0.202 F 
ATOM     36  F   UNL     1      -4.141 -10.885  -4.966  0.00  0.00    -0.205 F 
ENDBRANCH  28  29
ENDBRANCH   5  28
TORSDOF 13
