REMARK  Name = ZINC13164213
REMARK  5 active torsions:
REMARK  status: ('A' for Active; 'I' for Inactive)
REMARK    1  A    between atoms: C_1  and  C_2
REMARK    2  A    between atoms: C_2  and  C_24
REMARK    3  A    between atoms: N_5  and  C_9
REMARK    4  A    between atoms: C_9  and  C_10
REMARK    5  A    between atoms: N_12  and  C_13
REMARK                            x       y       z     vdW  Elec       q    Type
REMARK                         _______ _______ _______ _____ _____    ______ ____
ROOT
ATOM      1  C   UNL     1       6.209  -6.924   0.435  0.00  0.00    +0.047 C 
ATOM      2  C   UNL     1       5.906  -5.465   0.089  0.00  0.00    +0.135 C 
ATOM      3  C   UNL     1       4.575  -5.043   0.678  0.00  0.00    +0.251 C 
ATOM      4  O   UNL     1       4.271  -5.010   1.851  0.00  0.00    -0.272 OA
ATOM      5  N   UNL     1       3.800  -4.710  -0.373  0.00  0.00    -0.215 N 
ATOM      6  C   UNL     1       4.448  -4.867  -1.533  0.00  0.00    +0.310 C 
ATOM      7  O   UNL     1       3.955  -4.635  -2.619  0.00  0.00    -0.252 OA
ATOM      8  N   UNL     1       5.708  -5.307  -1.362  0.00  0.00    -0.281 N 
ATOM      9  H   UNL     1       6.358  -5.488  -2.059  0.00  0.00    +0.152 HD
ENDROOT
BRANCH   2  10
ATOM     10  C   UNL     1       7.011  -4.563   0.575  0.00  0.00    -0.015 A 
ATOM     11  C   UNL     1       6.920  -3.966   1.818  0.00  0.00    +0.007 A 
ATOM     12  C   UNL     1       7.936  -3.143   2.267  0.00  0.00    +0.020 A 
ATOM     13  C   UNL     1       9.039  -2.908   1.466  0.00  0.00    +0.041 A 
ATOM     14  C   UNL     1       9.127  -3.501   0.219  0.00  0.00    +0.020 A 
ATOM     15  C   UNL     1       8.114  -4.328  -0.226  0.00  0.00    +0.007 A 
ATOM     16 CL   UNL     1      10.312  -1.869   2.026  0.00  0.00    -0.084 Cl
ENDBRANCH   2  10
BRANCH   5  17
ATOM     17  C   UNL     1       2.417  -4.241  -0.260  0.00  0.00    +0.214 C 
BRANCH  17  18
ATOM     18  C   UNL     1       2.404  -2.739  -0.138  0.00  0.00    +0.235 C 
ATOM     19  O   UNL     1       3.448  -2.121  -0.144  0.00  0.00    -0.274 OA
ATOM     20  N   UNL     1       1.233  -2.082  -0.021  0.00  0.00    -0.284 N 
ATOM     21  H   UNL     1       0.404  -2.579   0.061  0.00  0.00    +0.155 HD
BRANCH  20  22
ATOM     22  C   UNL     1       1.213  -0.681  -0.019  0.00  0.00    +0.037 A 
ATOM     23  C   UNL     1       0.269  -0.002   0.739  0.00  0.00    +0.027 A 
ATOM     24  C   UNL     1       0.248   1.380   0.742  0.00  0.00    +0.051 A 
ATOM     25  C   UNL     1       1.169   2.091  -0.010  0.00  0.00    +0.173 A 
ATOM     26  C   UNL     1       2.117   1.412  -0.771  0.00  0.00    +0.174 A 
ATOM     27  C   UNL     1       2.137   0.028  -0.774  0.00  0.00    +0.073 A 
ATOM     28  O   UNL     1       2.902   2.329  -1.409  0.00  0.00    -0.395 OA
ATOM     29  C   UNL     1       2.164   3.566  -1.360  0.00  0.00    +0.589 C 
ATOM     30  O   UNL     1       1.357   3.434  -0.175  0.00  0.00    -0.395 OA
ATOM     31  F   UNL     1       1.355   3.706  -2.492  0.00  0.00    -0.125 F 
ATOM     32  F   UNL     1       3.035   4.654  -1.242  0.00  0.00    -0.125 F 
ENDBRANCH  20  22
ENDBRANCH  17  18
ENDBRANCH   5  17
TORSDOF 4
