REMARK  Name = ZINC02935534
REMARK  7 active torsions:
REMARK  status: ('A' for Active; 'I' for Inactive)
REMARK    1  A    between atoms: C_1  and  C_2
REMARK    2  A    between atoms: C_2  and  O_3
REMARK    3  A    between atoms: O_3  and  C_4
REMARK    4  A    between atoms: C_8  and  C_11
REMARK    5  A    between atoms: C_9  and  O_10
REMARK    6  A    between atoms: C_14  and  C_26
REMARK    7  A    between atoms: C_16  and  C_18
REMARK                            x       y       z     vdW  Elec       q    Type
REMARK                         _______ _______ _______ _____ _____    ______ ____
ROOT
ATOM      1  C   UNL     1      -2.549  -4.175   0.004  0.00  0.00    -0.028 C 
ATOM      2  C   UNL     1      -2.287  -4.690   1.391  0.00  0.00    +0.044 C 
ATOM      3  C   UNL     1      -2.961  -5.717   1.900  0.00  0.00    +0.040 C 
ATOM      4  N   UNL     1      -3.954  -6.352   1.149  0.00  0.00    -0.299 NA
ATOM      5  C   UNL     1      -4.037  -6.057  -0.289  0.00  0.00    +0.081 C 
ATOM      6  N   UNL     1      -3.881  -4.598  -0.462  0.00  0.00    +0.401 N 
ATOM      7  H   UNL     1      -3.984  -4.360  -1.456  0.00  0.00    -0.081 HD
ATOM      8  H   UNL     1      -4.602  -4.111   0.083  0.00  0.00    -0.081 HD
ENDROOT
BRANCH   5   9
ATOM      9  C   UNL     1      -5.380  -6.487  -0.822  0.00  0.00    -0.039 A 
ATOM     10  C   UNL     1      -5.966  -5.789  -1.862  0.00  0.00    +0.006 A 
ATOM     11  C   UNL     1      -7.195  -6.185  -2.355  0.00  0.00    +0.040 A 
ATOM     12  C   UNL     1      -7.844  -7.274  -1.801  0.00  0.00    +0.137 A 
ATOM     13  C   UNL     1      -7.259  -7.970  -0.756  0.00  0.00    +0.053 A 
ATOM     14  C   UNL     1      -6.026  -7.575  -0.268  0.00  0.00    +0.022 A 
ATOM     15 BR   UNL     1      -8.144  -9.459   0.003  0.00  0.00    -0.047 Br
ATOM     16  F   UNL     1      -9.048  -7.659  -2.279  0.00  0.00    -0.204 F 
ENDBRANCH   5   9
BRANCH   3  17
ATOM     17  C   UNL     1      -2.658  -6.190   3.271  0.00  0.00    -0.004 A 
ATOM     18  C   UNL     1      -1.664  -5.564   4.023  0.00  0.00    +0.011 A 
ATOM     19  C   UNL     1      -1.390  -6.005   5.301  0.00  0.00    +0.020 A 
ATOM     20  C   UNL     1      -2.091  -7.074   5.833  0.00  0.00    +0.041 A 
ATOM     21  C   UNL     1      -3.075  -7.702   5.088  0.00  0.00    +0.020 A 
ATOM     22  C   UNL     1      -3.361  -7.266   3.811  0.00  0.00    +0.011 A 
ATOM     23 CL   UNL     1      -1.737  -7.628   7.439  0.00  0.00    -0.084 Cl
ENDBRANCH   3  17
BRANCH   1  28
ATOM     24  C   UNL     1      -1.210  -0.637  -0.128  0.00  0.00    +0.162 A 
ATOM     25  C   UNL     1      -2.374   0.099   0.026  0.00  0.00    +0.049 A 
ATOM     26  C   UNL     1      -3.587  -0.548   0.172  0.00  0.00    +0.004 A 
ATOM     27  C   UNL     1      -3.642  -1.929   0.165  0.00  0.00    +0.006 A 
ATOM     28  C   UNL     1      -2.485  -2.670   0.011  0.00  0.00    -0.016 A 
ATOM     29  C   UNL     1      -1.267  -2.027  -0.141  0.00  0.00    +0.160 A 
BRANCH  29  30
ATOM     30  O   UNL     1      -0.128  -2.754  -0.298  0.00  0.00    -0.503 OA
ATOM     31  H   UNL     1       0.314  -2.977   0.533  0.00  0.00    +0.292 HD
ENDBRANCH  29  30
BRANCH  24  32
ATOM     32  O   UNL     1      -0.016  -0.002  -0.272  0.00  0.00    -0.489 OA
BRANCH  32  34
ATOM     33  C   UNL     1       1.389   1.958  -0.429  0.00  0.00    +0.048 C 
ATOM     34  C   UNL     1      -0.035   1.427  -0.255  0.00  0.00    +0.226 C 
ENDBRANCH  32  34
ENDBRANCH  24  32
ENDBRANCH   1  28
TORSDOF 6
