REMARK  Name = ZINC17523140
REMARK  4 active torsions:
REMARK  status: ('A' for Active; 'I' for Inactive)
REMARK    1  A    between atoms: C_7  and  C_11
REMARK    2  A    between atoms: N_13  and  N_14
REMARK    3  A    between atoms: C_15  and  C_17
REMARK    4  A    between atoms: C_17  and  N_18
REMARK                            x       y       z     vdW  Elec       q    Type
REMARK                         _______ _______ _______ _____ _____    ______ ____
ROOT
ATOM      1  N   UNL     1       4.949   2.838  -2.397  0.00  0.00    -0.233 N 
ATOM      2  C   UNL     1       3.839   3.364  -1.841  0.00  0.00    +0.247 C 
ATOM      3  O   UNL     1       3.019   3.925  -2.537  0.00  0.00    -0.273 OA
ATOM      4  H   UNL     1       5.604   2.390  -1.840  0.00  0.00    +0.173 HD
ENDROOT
BRANCH   1   7
ATOM      5  C   UNL     1       6.264   2.413  -4.334  0.00  0.00    +0.262 C 
ATOM      6  O   UNL     1       7.087   1.851  -3.636  0.00  0.00    -0.269 OA
ATOM      7  N   UNL     1       5.155   2.939  -3.779  0.00  0.00    -0.230 N 
ATOM      8  H   UNL     1       4.499   3.387  -4.336  0.00  0.00    +0.173 HD
BRANCH   5  15
ATOM      9  C   UNL     1       9.696   0.959  -7.172  0.00  0.00    +0.001 A 
ATOM     10  C   UNL     1       9.461   1.294  -8.498  0.00  0.00    +0.002 A 
ATOM     11  C   UNL     1       8.320   1.979  -8.857  0.00  0.00    +0.026 A 
ATOM     12  C   UNL     1       7.393   2.340  -7.885  0.00  0.00    +0.047 A 
ATOM     13  C   UNL     1       7.633   2.000  -6.544  0.00  0.00    +0.012 A 
ATOM     14  C   UNL     1       8.790   1.307  -6.195  0.00  0.00    +0.011 A 
ATOM     15  C   UNL     1       6.480   2.518  -5.784  0.00  0.00    +0.063 A 
ATOM     16  C   UNL     1       5.652   3.108  -6.692  0.00  0.00    +0.096 A 
ATOM     17  N   UNL     1       6.189   3.012  -7.932  0.00  0.00    -0.360 N 
ATOM     18  H   UNL     1       5.781   3.361  -8.740  0.00  0.00    +0.165 HD
ENDBRANCH   5  15
ENDBRANCH   1   7
BRANCH   2  19
ATOM     19  C   UNL     1       3.617   3.256  -0.354  0.00  0.00    +0.211 C 
BRANCH  19  20
ATOM     20  N   UNL     1       2.350   3.901  -0.001  0.00  0.00    -0.256 N 
ATOM     21  C   UNL     1       1.156   3.166   0.008  0.00  0.00    +0.079 A 
ATOM     22  C   UNL     1       1.177   1.781   0.000  0.00  0.00    +0.027 A 
ATOM     23  C   UNL     1      -0.013   1.076   0.008  0.00  0.00    +0.002 A 
ATOM     24  C   UNL     1      -1.220   1.749   0.017  0.00  0.00    +0.004 A 
ATOM     25  C   UNL     1      -1.248   3.132   0.031  0.00  0.00    +0.047 A 
ATOM     26  C   UNL     1      -0.062   3.845   0.023  0.00  0.00    +0.143 A 
ATOM     27  O   UNL     1      -0.070   5.204   0.032  0.00  0.00    -0.481 OA
ATOM     28  C   UNL     1       1.006   5.849   0.718  0.00  0.00    +0.325 C 
ATOM     29  C   UNL     1       2.314   5.213   0.321  0.00  0.00    +0.258 C 
ATOM     30  O   UNL     1       3.329   5.875   0.290  0.00  0.00    -0.271 OA
ENDBRANCH  19  20
ENDBRANCH   2  19
TORSDOF 4
