REMARK  Name = ZINC39732298
REMARK  12 active torsions:
REMARK  status: ('A' for Active; 'I' for Inactive)
REMARK    1  A    between atoms: C_1  and  C_2
REMARK    2  A    between atoms: C_2  and  O_3
REMARK    3  A    between atoms: O_3  and  C_4
REMARK    4  A    between atoms: C_4  and  C_6
REMARK    5  A    between atoms: C_8  and  N_17
REMARK    6  A    between atoms: C_18  and  C_20
REMARK    7  A    between atoms: C_20  and  S_21
REMARK    8  A    between atoms: S_21  and  C_22
REMARK    9  A    between atoms: C_27  and  C_32
REMARK   10  A    between atoms: C_32  and  C_33
REMARK   11  A    between atoms: C_32  and  C_34
REMARK   12  A    between atoms: C_32  and  C_35
REMARK                            x       y       z     vdW  Elec       q    Type
REMARK                         _______ _______ _______ _____ _____    ______ ____
ROOT
ATOM      1  N   UNL     1       4.455  -1.267   0.056  0.00  0.00    -0.301 N 
ATOM      2  C   UNL     1       4.925  -0.030  -0.202  0.00  0.00    +0.224 C 
ATOM      3  O   UNL     1       5.567   0.562   0.640  0.00  0.00    -0.275 OA
ATOM      4  H   UNL     1       3.942  -1.740  -0.618  0.00  0.00    +0.150 HD
ENDROOT
BRANCH   1   6
ATOM      5  C   UNL     1       3.448  -2.563   1.929  0.00  0.00    +0.155 C 
ATOM      6  C   UNL     1       4.719  -1.896   1.352  0.00  0.00    +0.153 C 
ATOM      7  S   UNL     1       5.768  -3.400   1.175  0.00  0.00    -0.106 S 
ATOM      8  C   UNL     1       4.930  -4.439   2.348  0.00  0.00    -0.013 C 
ATOM      9  C   UNL     1       3.772  -3.858   2.630  0.00  0.00    -0.044 C 
ATOM     10  C   UNL     1       2.803  -4.485   3.631  0.00  0.00    +0.032 C 
ATOM     11  C   UNL     1       3.151  -5.962   3.808  0.00  0.00    +0.005 C 
ATOM     12  C   UNL     1       4.638  -6.100   4.149  0.00  0.00    +0.005 C 
ATOM     13  C   UNL     1       5.453  -5.733   2.907  0.00  0.00    +0.042 C 
BRANCH   5  14
ATOM     14  C   UNL     1       2.800  -1.621   2.911  0.00  0.00    +0.317 C 
ATOM     15  O   UNL     1       2.651  -1.956   4.062  0.00  0.00    -0.250 OA
BRANCH  14  16
ATOM     16  O   UNL     1       2.389  -0.409   2.506  0.00  0.00    -0.464 OA
BRANCH  16  18
ATOM     17  C   UNL     1       1.383   1.762   2.847  0.00  0.00    +0.048 C 
ATOM     18  C   UNL     1       1.783   0.433   3.490  0.00  0.00    +0.229 C 
ENDBRANCH  16  18
ENDBRANCH  14  16
ENDBRANCH   5  14
ENDBRANCH   1   6
BRANCH   2  19
ATOM     19  C   UNL     1       4.654   0.617  -1.535  0.00  0.00    +0.173 C 
BRANCH  19  20
ATOM     20  S   UNL     1       5.411   2.265  -1.573  0.00  0.00    -0.076 S 
BRANCH  20  21
ATOM     21  C   UNL     1       5.010   2.882  -3.174  0.00  0.00    +0.198 A 
ATOM     22  N   UNL     1       4.314   2.260  -4.096  0.00  0.00    -0.120 NA
ATOM     23  N   UNL     1       4.207   2.994  -5.146  0.00  0.00    -0.107 NA
ATOM     24  C   UNL     1       4.834   4.140  -4.958  0.00  0.00    +0.260 A 
ATOM     25  N   UNL     1       5.361   4.099  -3.685  0.00  0.00    -0.258 N 
ATOM     26  C   UNL     1       6.071   5.162  -3.200  0.00  0.00    +0.040 A 
ATOM     27  C   UNL     1       6.244   6.249  -3.984  0.00  0.00    +0.094 A 
ATOM     28  C   UNL     1       5.689   6.262  -5.282  0.00  0.00    +0.275 A 
ATOM     29  O   UNL     1       5.858   7.348  -6.074  0.00  0.00    -0.266 OA
ATOM     30  N   UNL     1       5.015   5.224  -5.729  0.00  0.00    -0.172 NA
BRANCH  26  31
ATOM     31  C   UNL     1       6.653   5.122  -1.810  0.00  0.00    +0.003 C 
ATOM     32  C   UNL     1       7.388   6.433  -1.527  0.00  0.00    +0.017 C 
ATOM     33  C   UNL     1       5.526   4.939  -0.791  0.00  0.00    +0.017 C 
ATOM     34  C   UNL     1       7.634   3.953  -1.701  0.00  0.00    +0.017 C 
ENDBRANCH  26  31
ENDBRANCH  20  21
ENDBRANCH  19  20
ENDBRANCH   2  19
TORSDOF 8
