REMARK  Name = ZINC62244260
REMARK  11 active torsions:
REMARK  status: ('A' for Active; 'I' for Inactive)
REMARK    1  A    between atoms: C_1  and  C_2
REMARK    2  A    between atoms: C_2  and  C_3
REMARK    3  A    between atoms: C_2  and  C_4
REMARK    4  A    between atoms: C_2  and  C_5
REMARK    5  A    between atoms: C_8  and  N_11
REMARK    6  A    between atoms: C_12  and  C_18
REMARK    7  A    between atoms: C_13  and  C_16
REMARK    8  A    between atoms: C_16  and  N_17
REMARK    9  A    between atoms: C_18  and  C_19
REMARK   10  A    between atoms: C_18  and  C_20
REMARK   11  A    between atoms: C_18  and  C_21
REMARK                            x       y       z     vdW  Elec       q    Type
REMARK                         _______ _______ _______ _____ _____    ______ ____
ROOT
ATOM      1  N   UNL     1       2.326  -1.029  -4.971  0.00  0.00    -0.216 N 
ATOM      2  C   UNL     1       3.534  -0.658  -5.476  0.00  0.00    +0.071 A 
ATOM      3  C   UNL     1       3.646  -1.280  -6.673  0.00  0.00    +0.070 A 
ATOM      4  N   UNL     1       2.524  -1.989  -6.841  0.00  0.00    -0.136 NA
ATOM      5  N   UNL     1       1.766  -1.824  -5.815  0.00  0.00    -0.060 NA
ENDROOT
BRANCH   1   9
ATOM      6  C   UNL     1       0.724   0.182  -1.318  0.00  0.00    -0.042 A 
ATOM      7  C   UNL     1      -0.018   0.320  -2.476  0.00  0.00    +0.006 A 
ATOM      8  C   UNL     1       0.510  -0.081  -3.688  0.00  0.00    +0.028 A 
ATOM      9  C   UNL     1       1.787  -0.621  -3.742  0.00  0.00    +0.067 A 
ATOM     10  C   UNL     1       2.530  -0.758  -2.578  0.00  0.00    +0.028 A 
ATOM     11  C   UNL     1       1.999  -0.351  -1.369  0.00  0.00    +0.006 A 
BRANCH   6  13
ATOM     12  C   UNL     1       1.029   1.712   0.610  0.00  0.00    +0.015 C 
ATOM     13  C   UNL     1       0.145   0.620   0.003  0.00  0.00    -0.013 C 
ATOM     14  C   UNL     1       0.086  -0.576   0.956  0.00  0.00    +0.015 C 
ATOM     15  C   UNL     1      -1.266   1.169  -0.216  0.00  0.00    +0.015 C 
ENDBRANCH   6  13
ENDBRANCH   1   9
BRANCH   2  16
ATOM     16  C   UNL     1       4.542   0.259  -4.834  0.00  0.00    +0.006 C 
ATOM     17  C   UNL     1       5.558  -0.571  -4.046  0.00  0.00    +0.017 C 
ATOM     18  C   UNL     1       5.268   1.058  -5.918  0.00  0.00    +0.017 C 
ATOM     19  C   UNL     1       3.824   1.221  -3.885  0.00  0.00    +0.017 C 
ENDBRANCH   2  16
BRANCH   3  20
ATOM     20  C   UNL     1       4.808  -1.192  -7.630  0.00  0.00    -0.026 C 
BRANCH  20  21
ATOM     21  N   UNL     1       5.859  -2.128  -7.211  0.00  0.00    +0.382 N 
ATOM     22  H   UNL     1       6.595  -2.138  -7.901  0.00  0.00    -0.090 HD
ATOM     23  H   UNL     1       6.236  -1.835  -6.322  0.00  0.00    -0.090 HD
ATOM     24  H   UNL     1       5.469  -3.054  -7.122  0.00  0.00    -0.090 HD
ENDBRANCH  20  21
ENDBRANCH   3  20
TORSDOF 5
