REMARK  Name = ZINC29040160
REMARK  9 active torsions:
REMARK  status: ('A' for Active; 'I' for Inactive)
REMARK    1  A    between atoms: C_1  and  C_2
REMARK    2  A    between atoms: C_5  and  S_7
REMARK    3  A    between atoms: S_7  and  N_10
REMARK    4  A    between atoms: C_14  and  C_17
REMARK    5  A    between atoms: C_17  and  O_19
REMARK    6  A    between atoms: O_19  and  C_20
REMARK    7  A    between atoms: C_20  and  C_22
REMARK    8  A    between atoms: C_20  and  C_23
REMARK    9  A    between atoms: N_25  and  C_26
REMARK                            x       y       z     vdW  Elec       q    Type
REMARK                         _______ _______ _______ _____ _____    ______ ____
ROOT
ATOM      1  C   UNL     1      -4.702  -0.733   3.772  0.00  0.00    +0.312 C 
ATOM      2  O   UNL     1      -4.535   0.458   3.884  0.00  0.00    -0.250 OA
ENDROOT
BRANCH   1   7
ATOM      3  N   UNL     1      -1.739  -1.454   1.563  0.00  0.00    -0.175 NA
ATOM      4  C   UNL     1      -1.089  -2.568   2.266  0.00  0.00    +0.109 C 
ATOM      5  C   UNL     1      -2.163  -3.461   2.884  0.00  0.00    +0.018 C 
ATOM      6  C   UNL     1      -3.083  -2.613   3.765  0.00  0.00    +0.017 C 
ATOM      7  C   UNL     1      -3.772  -1.547   2.910  0.00  0.00    +0.113 C 
ATOM      8  C   UNL     1      -2.711  -0.629   2.293  0.00  0.00    +0.124 C 
BRANCH   3   9
ATOM      9  S   UNL     1      -1.387  -1.137  -0.024  0.00  0.00    +0.067 S 
ATOM     10  O   UNL     1      -2.508  -0.445  -0.558  0.00  0.00    -0.152 OA
ATOM     11  O   UNL     1      -0.905  -2.351  -0.583  0.00  0.00    -0.152 OA
BRANCH   9  16
ATOM     12  C   UNL     1       2.442   3.372  -0.077  0.00  0.00    +0.051 C 
ATOM     13  C   UNL     1       1.691   2.066  -0.067  0.00  0.00    -0.011 A 
ATOM     14  C   UNL     1       2.179   0.801  -0.075  0.00  0.00    +0.013 A 
ATOM     15  C   UNL     1       1.292  -0.260  -0.062  0.00  0.00    +0.036 A 
ATOM     16  C   UNL     1      -0.039  -0.003  -0.043  0.00  0.00    +0.143 A 
ATOM     17  S   UNL     1      -0.071   1.782  -0.041  0.00  0.00    -0.074 S 
ENDBRANCH   9  16
ENDBRANCH   3   9
ENDBRANCH   1   7
BRANCH   1  18
ATOM     18  O   UNL     1      -5.715  -1.332   4.417  0.00  0.00    -0.452 OA
BRANCH  18  19
ATOM     19  C   UNL     1      -6.571  -0.486   5.230  0.00  0.00    +0.259 C 
ATOM     20  C   UNL     1      -7.729   0.037   4.378  0.00  0.00    +0.062 C 
BRANCH  19  21
ATOM     21  C   UNL     1      -7.118  -1.286   6.384  0.00  0.00    +0.258 C 
ATOM     22  O   UNL     1      -6.817  -2.454   6.509  0.00  0.00    -0.271 OA
ATOM     23  N   UNL     1      -7.942  -0.704   7.277  0.00  0.00    -0.282 N 
ATOM     24  H   UNL     1      -8.144   0.376   7.217  0.00  0.00    +0.155 HD
BRANCH  23  25
ATOM     25  C   UNL     1      -8.540  -1.470   8.278  0.00  0.00    +0.043 A 
ATOM     26  C   UNL     1      -8.733  -2.824   8.097  0.00  0.00    +0.024 A 
ATOM     27  C   UNL     1      -9.322  -3.595   9.093  0.00  0.00    +0.004 A 
ATOM     28  C   UNL     1      -9.736  -3.037  10.264  0.00  0.00    +0.028 A 
ATOM     29  C   UNL     1      -9.564  -1.661  10.487  0.00  0.00    +0.073 A 
ATOM     30  C   UNL     1      -8.959  -0.867   9.482  0.00  0.00    +0.022 A 
ATOM     31  C   UNL     1      -8.789   0.509   9.708  0.00  0.00    +0.013 A 
ATOM     32  C   UNL     1      -9.219   1.025  10.899  0.00  0.00    +0.020 A 
ATOM     33  C   UNL     1      -9.807   0.190  11.846  0.00  0.00    +0.111 A 
ATOM     34  N   UNL     1      -9.963  -1.093  11.631  0.00  0.00    -0.255 NA
ENDBRANCH  23  25
ENDBRANCH  19  21
ENDBRANCH  18  19
ENDBRANCH   1  18
TORSDOF 7
