REMARK  Name = ZINC55167988
REMARK  2 active torsions:
REMARK  status: ('A' for Active; 'I' for Inactive)
REMARK    1  A    between atoms: C_4  and  C_7
REMARK    2  A    between atoms: C_13  and  C_15
REMARK                            x       y       z     vdW  Elec       q    Type
REMARK                         _______ _______ _______ _____ _____    ______ ____
ROOT
ATOM      1  C   UNL     1       2.861  -0.462  -2.521  0.00  0.00    +0.080 C 
ATOM      2  C   UNL     1       2.995  -1.999  -2.484  0.00  0.00    +0.024 C 
ATOM      3  C   UNL     1       2.764  -2.403  -3.964  0.00  0.00    +0.021 C 
ATOM      4  C   UNL     1       1.701  -1.367  -4.407  0.00  0.00    +0.108 C 
ATOM      5  N   UNL     1       2.081  -0.117  -3.718  0.00  0.00    -0.292 N 
ATOM      6  C   UNL     1       1.764   1.131  -4.117  0.00  0.00    +0.286 C 
ATOM      7  O   UNL     1       2.214   2.091  -3.523  0.00  0.00    -0.267 OA
ENDROOT
BRANCH   6   8
ATOM      8  C   UNL     1       0.869   1.332  -5.277  0.00  0.00    +0.238 A 
ATOM      9  N   UNL     1       0.486   2.520  -5.771  0.00  0.00    -0.190 NA
ATOM     10  C   UNL     1      -0.307   2.335  -6.801  0.00  0.00    +0.209 A 
ATOM     11  N   UNL     1      -0.449   1.003  -6.988  0.00  0.00    -0.246 N 
ATOM     12  H   UNL     1      -0.978   0.566  -7.674  0.00  0.00    +0.192 HD
ATOM     13  N   UNL     1       0.323   0.376  -5.996  0.00  0.00    -0.146 NA
ATOM     14  N   UNL     1      -0.896   3.329  -7.561  0.00  0.00    -0.328 N 
ATOM     15  H   UNL     1      -0.734   4.262  -7.349  0.00  0.00    +0.145 HD
ATOM     16  H   UNL     1      -1.470   3.094  -8.306  0.00  0.00    +0.145 HD
ENDBRANCH   6   8
BRANCH   1  20
ATOM     17  C   UNL     1       0.837  -0.515   1.303  0.00  0.00    +0.000 C 
ATOM     18  C   UNL     1       0.025  -0.136   0.063  0.00  0.00    +0.000 C 
ATOM     19  C   UNL     1       0.752  -0.625  -1.191  0.00  0.00    +0.005 C 
ATOM     20  C   UNL     1       2.134   0.027  -1.267  0.00  0.00    +0.010 C 
ATOM     21  C   UNL     1       2.946  -0.351  -0.026  0.00  0.00    +0.005 C 
ATOM     22  C   UNL     1       2.219   0.138   1.228  0.00  0.00    +0.000 C 
ENDBRANCH   1  20
TORSDOF 2
