REMARK  Name = ZINC09305249
REMARK  6 active torsions:
REMARK  status: ('A' for Active; 'I' for Inactive)
REMARK    1  A    between atoms: C_1  and  C_2
REMARK    2  A    between atoms: C_9  and  N_13
REMARK    3  A    between atoms: C_10  and  C_11
REMARK    4  A    between atoms: C_14  and  C_16
REMARK    5  A    between atoms: C_21  and  C_32
REMARK    6  A    between atoms: C_24  and  C_27
REMARK                            x       y       z     vdW  Elec       q    Type
REMARK                         _______ _______ _______ _____ _____    ______ ____
ROOT
ATOM      1  C   UNL     1       5.723   6.341  -0.887  0.00  0.00    +0.149 A 
ATOM      2  C   UNL     1       7.108   6.617  -0.826  0.00  0.00    +0.078 A 
ATOM      3  C   UNL     1       7.285   7.897  -1.208  0.00  0.00    +0.119 A 
ATOM      4  N   UNL     1       6.059   8.429  -1.494  0.00  0.00    -0.238 N 
ATOM      5  N   UNL     1       5.102   7.437  -1.286  0.00  0.00    -0.164 NA
ATOM      6  C   UNL     1       5.856   9.812  -1.934  0.00  0.00    +0.215 C 
ATOM      7  C   UNL     1       7.090  10.639  -1.558  0.00  0.00    +0.066 C 
ATOM      8  C   UNL     1       8.361   9.925  -2.031  0.00  0.00    +0.140 C 
ATOM      9  N   UNL     1       8.467   8.635  -1.320  0.00  0.00    -0.319 N 
ATOM     10  H   UNL     1       9.306   8.318  -0.952  0.00  0.00    +0.148 HD
ENDROOT
BRANCH   8  11
ATOM     11  C   UNL     1       8.286   9.679  -3.516  0.00  0.00    +0.125 A 
ATOM     12  C   UNL     1       8.893  10.412  -4.466  0.00  0.00    +0.046 A 
ATOM     13  C   UNL     1       8.557   9.831  -5.710  0.00  0.00    +0.041 A 
ATOM     14  C   UNL     1       7.757   8.781  -5.446  0.00  0.00    +0.195 A 
ATOM     15  O   UNL     1       7.597   8.694  -4.115  0.00  0.00    -0.466 OA
ENDBRANCH   8  11
BRANCH   1  17
ATOM     16  N   UNL     1       3.743   4.922  -0.652  0.00  0.00    -0.274 N 
ATOM     17  C   UNL     1       5.081   5.052  -0.556  0.00  0.00    +0.269 C 
ATOM     18  O   UNL     1       5.760   4.109  -0.198  0.00  0.00    -0.268 OA
ATOM     19  H   UNL     1       3.202   5.675  -0.938  0.00  0.00    +0.156 HD
BRANCH  16  27
ATOM     20  C   UNL     1       0.723  -2.031   1.278  0.00  0.00    +0.008 C 
ATOM     21  C   UNL     1       0.901  -0.519   1.130  0.00  0.00    -0.009 C 
ATOM     22  C   UNL     1       0.002  -0.004   0.002  0.00  0.00    +0.008 C 
ATOM     23  C   UNL     1      -0.019   1.526   0.010  0.00  0.00    +0.037 C 
ATOM     24  C   UNL     1       1.417   2.035  -0.001  0.00  0.00    -0.018 A 
ATOM     25  C   UNL     1       2.444   1.230   0.350  0.00  0.00    -0.004 A 
ATOM     26  S   UNL     1       3.888   2.241   0.186  0.00  0.00    -0.077 S 
ATOM     27  C   UNL     1       3.140   3.712  -0.341  0.00  0.00    +0.090 A 
ATOM     28  C   UNL     1       1.792   3.387  -0.377  0.00  0.00    +0.084 A 
ATOM     29  C   UNL     1       2.362  -0.202   0.782  0.00  0.00    +0.046 C 
BRANCH  28  30
ATOM     30  C   UNL     1       0.807   4.348  -0.771  0.00  0.00    +0.102 C 
ATOM     31  N   UNL     1       0.025   5.111  -1.084  0.00  0.00    -0.191 NA
ENDBRANCH  28  30
ENDBRANCH  16  27
ENDBRANCH   1  17
BRANCH   6  32
ATOM     32  C   UNL     1       4.620  10.393  -1.245  0.00  0.00    +0.412 C 
ATOM     33  F   UNL     1       4.805  10.369   0.142  0.00  0.00    -0.168 F 
ATOM     34  F   UNL     1       4.428  11.713  -1.667  0.00  0.00    -0.168 F 
ATOM     35  F   UNL     1       3.497   9.629  -1.578  0.00  0.00    -0.168 F 
ENDBRANCH   6  32
TORSDOF 5
