REMARK  Name = ZINC09008579
REMARK  12 active torsions:
REMARK  status: ('A' for Active; 'I' for Inactive)
REMARK    1  A    between atoms: C_1  and  C_2
REMARK    2  A    between atoms: C_10  and  C_14
REMARK    3  A    between atoms: C_18  and  C_20
REMARK    4  A    between atoms: C_20  and  N_80
REMARK    5  A    between atoms: C_21  and  C_22
REMARK    6  A    between atoms: C_21  and  N_80
REMARK    7  A    between atoms: C_22  and  C_23
REMARK    8  A    between atoms: C_23  and  C_31
REMARK    9  A    between atoms: C_27  and  C_29
REMARK   10  A    between atoms: C_27  and  C_30
REMARK   11  A    between atoms: C_34  and  O_37
REMARK   12  A    between atoms: O_37  and  C_38
REMARK                            x       y       z     vdW  Elec       q    Type
REMARK                         _______ _______ _______ _____ _____    ______ ____
ROOT
ATOM      1  N   UNL     1      -4.748   6.087   3.478  0.00  0.00    +0.380 N 
ATOM      2  H   UNL     1      -4.965   7.046   3.772  0.00  0.00    -0.086 HD
ATOM      3  H   UNL     1      -5.128   5.923   2.538  0.00  0.00    -0.086 HD
ENDROOT
BRANCH   1   4
ATOM      4  C   UNL     1      -5.364   5.136   4.423  0.00  0.00    -0.068 C 
BRANCH   4  20
ATOM      5  C   UNL     1      -9.736   5.525   8.522  0.00  0.00    +0.039 C 
ATOM      6  C   UNL     1     -10.276   4.381   7.703  0.00  0.00    -0.073 C 
ATOM      7  C   UNL     1      -9.823   4.201   6.510  0.00  0.00    -0.064 C 
ATOM      8  C   UNL     1      -8.782   5.172   5.993  0.00  0.00    +0.039 C 
ATOM      9  C   UNL     1      -7.557   4.411   5.479  0.00  0.00    +0.046 C 
ATOM     10  C   UNL     1      -7.973   3.256   4.550  0.00  0.00    +0.181 C 
ATOM     11  C   UNL     1      -9.018   2.340   5.129  0.00  0.00    +0.056 C 
ATOM     12  C   UNL     1     -10.264   3.109   5.576  0.00  0.00    -0.007 C 
ATOM     13  C   UNL     1     -11.250   2.153   6.226  0.00  0.00    +0.011 C 
ATOM     14  C   UNL     1     -12.173   2.891   7.194  0.00  0.00    +0.005 C 
ATOM     15  C   UNL     1     -11.315   3.487   8.317  0.00  0.00    +0.030 C 
ATOM     16  C   UNL     1     -10.922   3.742   4.348  0.00  0.00    +0.016 C 
ATOM     17  O   UNL     1      -8.380   3.928   3.327  0.00  0.00    -0.461 OA
ATOM     18  C   UNL     1      -7.482   4.920   3.105  0.00  0.00    +0.309 C 
ATOM     19  O   UNL     1      -7.205   5.389   2.026  0.00  0.00    -0.251 OA
ATOM     20  C   UNL     1      -6.880   5.348   4.431  0.00  0.00    +0.088 C 
ENDBRANCH   4  20
ENDBRANCH   1   4
BRANCH   1  21
ATOM     21  C   UNL     1      -3.285   5.906   3.450  0.00  0.00    -0.082 C 
BRANCH  21  22
ATOM     22  C   UNL     1      -2.675   6.903   2.463  0.00  0.00    -0.007 C 
BRANCH  22  23
ATOM     23  C   UNL     1      -1.177   6.626   2.319  0.00  0.00    -0.001 C 
ATOM     24  C   UNL     1      -0.582   7.562   1.262  0.00  0.00    +0.039 C 
ATOM     25  C   UNL     1      -1.228   7.264  -0.094  0.00  0.00    +0.161 C 
ATOM     26  O   UNL     1      -1.018   5.891  -0.428  0.00  0.00    -0.374 OA
ATOM     27  C   UNL     1      -1.593   4.969   0.500  0.00  0.00    +0.065 C 
ATOM     28  C   UNL     1      -0.964   5.174   1.880  0.00  0.00    +0.046 C 
ATOM     29  C   UNL     1      -3.102   5.208   0.588  0.00  0.00    +0.041 C 
ATOM     30  C   UNL     1      -1.331   3.538   0.027  0.00  0.00    +0.041 C 
BRANCH  23  31
ATOM     31  C   UNL     1      -0.492   6.859   3.641  0.00  0.00    -0.041 A 
ATOM     32  C   UNL     1      -0.456   8.130   4.185  0.00  0.00    +0.008 A 
ATOM     33  C   UNL     1       0.172   8.346   5.397  0.00  0.00    +0.046 A 
ATOM     34  C   UNL     1       0.766   7.287   6.067  0.00  0.00    +0.120 A 
ATOM     35  C   UNL     1       0.734   6.014   5.516  0.00  0.00    +0.046 A 
ATOM     36  C   UNL     1       0.100   5.802   4.308  0.00  0.00    +0.008 A 
BRANCH  34  37
ATOM     37  O   UNL     1       1.384   7.497   7.260  0.00  0.00    -0.495 OA
ATOM     38  C   UNL     1       1.974   6.360   7.894  0.00  0.00    +0.277 C 
ENDBRANCH  34  37
ENDBRANCH  23  31
ENDBRANCH  22  23
ENDBRANCH  21  22
ENDBRANCH   1  21
TORSDOF 7
