REMARK  Name = ZINC20789183
REMARK  7 active torsions:
REMARK  status: ('A' for Active; 'I' for Inactive)
REMARK    1  A    between atoms: C_1  and  C_2
REMARK    2  A    between atoms: C_5  and  N_9
REMARK    3  A    between atoms: C_10  and  C_12
REMARK    4  A    between atoms: C_12  and  O_13
REMARK    5  A    between atoms: O_13  and  C_14
REMARK    6  A    between atoms: C_14  and  C_16
REMARK    7  A    between atoms: C_19  and  N_21
REMARK                            x       y       z     vdW  Elec       q    Type
REMARK                         _______ _______ _______ _____ _____    ______ ____
ROOT
ATOM      1  N   UNL     1       5.057  -5.394  -0.075  0.00  0.00    -0.281 N 
ATOM      2  C   UNL     1       4.538  -5.027   1.113  0.00  0.00    +0.255 C 
ATOM      3  O   UNL     1       5.244  -4.991   2.098  0.00  0.00    -0.272 OA
ATOM      4  H   UNL     1       4.401  -5.508  -0.951  0.00  0.00    +0.155 HD
ENDROOT
BRANCH   1   9
ATOM      5  C   UNL     1      10.629  -6.354  -0.562  0.00  0.00    +0.044 C 
ATOM      6  C   UNL     1       9.149  -6.099  -0.433  0.00  0.00    -0.048 A 
ATOM      7  C   UNL     1       8.295  -7.140  -0.119  0.00  0.00    +0.020 A 
ATOM      8  C   UNL     1       6.937  -6.910   0.000  0.00  0.00    +0.040 A 
ATOM      9  C   UNL     1       6.431  -5.631  -0.195  0.00  0.00    +0.062 A 
ATOM     10  C   UNL     1       7.292  -4.589  -0.516  0.00  0.00    +0.040 A 
ATOM     11  C   UNL     1       8.649  -4.825  -0.627  0.00  0.00    +0.020 A 
ATOM     12 BR   UNL     1       6.609  -2.847  -0.791  0.00  0.00    -0.048 Br
ATOM     13 BR   UNL     1       5.770  -8.335   0.429  0.00  0.00    -0.048 Br
ENDBRANCH   1   9
BRANCH   2  14
ATOM     14  C   UNL     1       3.079  -4.662   1.218  0.00  0.00    +0.328 C 
BRANCH  14  15
ATOM     15  O   UNL     1       2.767  -4.305   2.590  0.00  0.00    -0.451 OA
BRANCH  15  16
ATOM     16  C   UNL     1       1.493  -3.950   2.855  0.00  0.00    +0.346 C 
ATOM     17  O   UNL     1       0.666  -3.939   1.963  0.00  0.00    -0.244 OA
BRANCH  16  18
ATOM     18  C   UNL     1       1.105  -3.578   4.217  0.00  0.00    +0.098 A 
ATOM     19  C   UNL     1      -0.136  -3.187   4.697  0.00  0.00    +0.025 A 
ATOM     20  C   UNL     1      -0.224  -2.890   6.034  0.00  0.00    +0.041 A 
ATOM     21  C   UNL     1       0.887  -2.993   6.811  0.00  0.00    +0.164 A 
ATOM     22  S   UNL     1       2.106  -3.510   5.692  0.00  0.00    -0.058 S 
BRANCH  21  23
ATOM     23  N   UNL     1       1.023  -2.725   8.260  0.00  0.00    +0.063 N 
ATOM     24  O   UNL     1       0.056  -2.364   8.906  0.00  0.00    -0.126 OA
ATOM     25  O   UNL     1       2.102  -2.867   8.807  0.00  0.00    -0.126 OA
ENDBRANCH  21  23
ENDBRANCH  16  18
ENDBRANCH  15  16
ENDBRANCH  14  15
ENDBRANCH   2  14
TORSDOF 6
