REMARK  Name = ZINC59170406
REMARK  6 active torsions:
REMARK  status: ('A' for Active; 'I' for Inactive)
REMARK    1  A    between atoms: C_1  and  C_2
REMARK    2  A    between atoms: C_5  and  N_8
REMARK    3  A    between atoms: C_9  and  C_11
REMARK    4  A    between atoms: N_21  and  C_22
REMARK    5  A    between atoms: C_25  and  S_28
REMARK    6  A    between atoms: S_28  and  N_31
REMARK                            x       y       z     vdW  Elec       q    Type
REMARK                         _______ _______ _______ _____ _____    ______ ____
ROOT
ATOM      1  C   UNL     1       0.352  -6.290   1.110  0.00  0.00    +0.098 A 
ATOM      2  C   UNL     1       0.356  -7.010   2.298  0.00  0.00    +0.030 A 
ATOM      3  C   UNL     1       0.433  -8.469   2.200  0.00  0.00    +0.021 A 
ATOM      4  C   UNL     1       0.176  -9.276   3.316  0.00  0.00    +0.031 A 
ATOM      5  C   UNL     1       0.251 -10.646   3.196  0.00  0.00    +0.043 A 
ATOM      6  C   UNL     1       0.580 -11.228   1.979  0.00  0.00    +0.043 A 
ATOM      7  C   UNL     1       0.838 -10.445   0.871  0.00  0.00    +0.085 A 
ATOM      8  C   UNL     1       0.768  -9.062   0.969  0.00  0.00    +0.156 A 
ATOM      9  O   UNL     1       1.025  -8.281  -0.108  0.00  0.00    -0.437 OA
ATOM     10  C   UNL     1       0.419  -7.064  -0.145  0.00  0.00    +0.212 A 
ATOM     11  N   UNL     1      -0.087  -6.589  -1.262  0.00  0.00    -0.325 N 
ATOM     12 CL   UNL     1       1.248 -11.190  -0.642  0.00  0.00    -0.080 Cl
ATOM     13 CL   UNL     1      -0.066 -11.651   4.576  0.00  0.00    -0.083 Cl
ATOM     14  H   UNL     1      -0.608  -5.771  -1.250  0.00  0.00    +0.169 HD
ENDROOT
BRANCH  11  15
ATOM     15  C   UNL     1       0.120  -7.250  -2.442  0.00  0.00    +0.042 A 
ATOM     16  C   UNL     1       1.391  -7.733  -2.762  0.00  0.00    +0.027 A 
ATOM     17  C   UNL     1       1.592  -8.399  -3.953  0.00  0.00    +0.030 A 
ATOM     18  C   UNL     1       0.539  -8.588  -4.830  0.00  0.00    +0.105 A 
ATOM     19  C   UNL     1      -0.723  -8.111  -4.520  0.00  0.00    +0.030 A 
ATOM     20  C   UNL     1      -0.940  -7.449  -3.330  0.00  0.00    +0.027 A 
BRANCH  18  21
ATOM     21  S   UNL     1       0.806  -9.439  -6.350  0.00  0.00    +0.056 S 
ATOM     22  O   UNL     1      -0.214  -9.009  -7.241  0.00  0.00    -0.153 OA
ATOM     23  O   UNL     1       2.188  -9.307  -6.652  0.00  0.00    -0.153 OA
BRANCH  21  24
ATOM     24  N   UNL     1       0.536 -11.048  -6.064  0.00  0.00    -0.204 NA
ATOM     25  H   UNL     1       0.282 -11.347  -5.176  0.00  0.00    +0.144 HD
ATOM     26  H   UNL     1       0.633 -11.691  -6.783  0.00  0.00    +0.144 HD
ENDBRANCH  21  24
ENDBRANCH  18  21
ENDBRANCH  11  15
BRANCH   1  28
ATOM     27  N   UNL     1       0.412  -4.143  -0.055  0.00  0.00    -0.281 N 
ATOM     28  C   UNL     1       0.276  -4.819   1.103  0.00  0.00    +0.253 C 
ATOM     29  O   UNL     1       0.092  -4.215   2.142  0.00  0.00    -0.270 OA
ATOM     30  H   UNL     1       0.505  -4.627  -0.891  0.00  0.00    +0.155 HD
BRANCH  27  35
ATOM     31  C   UNL     1       0.432   1.529  -0.044  0.00  0.00    +0.044 C 
ATOM     32  C   UNL     1       0.427   0.022  -0.046  0.00  0.00    -0.050 A 
ATOM     33  C   UNL     1       1.220  -0.669  -0.944  0.00  0.00    +0.005 A 
ATOM     34  C   UNL     1       1.217  -2.050  -0.950  0.00  0.00    +0.023 A 
ATOM     35  C   UNL     1       0.417  -2.745  -0.052  0.00  0.00    +0.034 A 
ATOM     36  C   UNL     1      -0.378  -2.048   0.849  0.00  0.00    +0.023 A 
ATOM     37  C   UNL     1      -0.366  -0.667   0.853  0.00  0.00    +0.005 A 
ENDBRANCH  27  35
ENDBRANCH   1  28
TORSDOF 5
