REMARK  Name = ZINC40103368
REMARK  11 active torsions:
REMARK  status: ('A' for Active; 'I' for Inactive)
REMARK    1  A    between atoms: C_1  and  N_2
REMARK    2  A    between atoms: N_2  and  C_3
REMARK    3  A    between atoms: N_2  and  C_4
REMARK    4  A    between atoms: C_7  and  C_10
REMARK    5  A    between atoms: C_10  and  N_11
REMARK    6  A    between atoms: N_11  and  C_12
REMARK    7  A    between atoms: N_15  and  C_16
REMARK    8  A    between atoms: C_21  and  C_22
REMARK    9  A    between atoms: C_22  and  N_23
REMARK   10  A    between atoms: N_23  and  C_24
REMARK   11  A    between atoms: N_23  and  C_25
REMARK                            x       y       z     vdW  Elec       q    Type
REMARK                         _______ _______ _______ _____ _____    ______ ____
ROOT
ATOM      1  N   UNL     1      -1.320  -3.289  -5.874  0.00  0.00    -0.284 N 
ATOM      2  C   UNL     1      -2.096  -2.069  -6.104  0.00  0.00    +0.134 C 
ATOM      3  C   UNL     1      -1.943  -4.423  -5.497  0.00  0.00    +0.306 C 
ATOM      4  O   UNL     1      -1.299  -5.436  -5.306  0.00  0.00    -0.252 OA
ATOM      5  N   UNL     1      -3.281  -4.434  -5.333  0.00  0.00    -0.269 N 
ATOM      6  H   UNL     1      -3.787  -3.612  -5.423  0.00  0.00    +0.156 HD
ENDROOT
BRANCH   5   7
ATOM      7  C   UNL     1      -3.939  -5.632  -5.033  0.00  0.00    +0.036 A 
ATOM      8  C   UNL     1      -3.322  -6.584  -4.232  0.00  0.00    +0.023 A 
ATOM      9  C   UNL     1      -3.974  -7.765  -3.938  0.00  0.00    +0.002 A 
ATOM     10  C   UNL     1      -5.241  -8.001  -4.440  0.00  0.00    +0.000 A 
ATOM     11  C   UNL     1      -5.858  -7.056  -5.238  0.00  0.00    +0.003 A 
ATOM     12  C   UNL     1      -5.213  -5.870  -5.532  0.00  0.00    -0.043 A 
BRANCH  12  13
ATOM     13  C   UNL     1      -5.889  -4.837  -6.396  0.00  0.00    -0.041 C 
BRANCH  13  14
ATOM     14  N   UNL     1      -5.375  -4.935  -7.769  0.00  0.00    +0.382 N 
ATOM     15  C   UNL     1      -5.755  -6.233  -8.343  0.00  0.00    -0.095 C 
ATOM     16  H   UNL     1      -4.369  -4.854  -7.758  0.00  0.00    -0.081 HD
BRANCH  14  17
ATOM     17  C   UNL     1      -5.944  -3.853  -8.584  0.00  0.00    -0.069 C 
ATOM     18  C   UNL     1      -5.408  -3.955 -10.013  0.00  0.00    -0.015 C 
ATOM     19  C   UNL     1      -6.000  -2.829 -10.862  0.00  0.00    -0.002 C 
ATOM     20  C   UNL     1      -5.604  -1.477 -10.264  0.00  0.00    -0.000 C 
ATOM     21  C   UNL     1      -6.140  -1.375  -8.834  0.00  0.00    -0.002 C 
ATOM     22  C   UNL     1      -5.547  -2.502  -7.986  0.00  0.00    -0.015 C 
ENDBRANCH  14  17
ENDBRANCH  13  14
ENDBRANCH  12  13
ENDBRANCH   5   7
BRANCH   1  23
ATOM     23  C   UNL     1       0.134  -3.277  -6.052  0.00  0.00    +0.144 C 
BRANCH  23  27
ATOM     24  C   UNL     1       2.016  -2.238  -2.358  0.00  0.00    +0.029 A 
ATOM     25  C   UNL     1       1.756  -3.570  -2.657  0.00  0.00    +0.023 A 
ATOM     26  C   UNL     1       1.147  -3.902  -3.851  0.00  0.00    +0.007 A 
ATOM     27  C   UNL     1       0.797  -2.911  -4.750  0.00  0.00    -0.030 A 
ATOM     28  C   UNL     1       1.054  -1.584  -4.456  0.00  0.00    +0.007 A 
ATOM     29  C   UNL     1       1.658  -1.245  -3.260  0.00  0.00    +0.023 A 
BRANCH  24  31
ATOM     30  C   UNL     1       2.899  -0.493  -0.835  0.00  0.00    +0.129 C 
ATOM     31  N   UNL     1       2.631  -1.898  -1.151  0.00  0.00    -0.336 N 
ATOM     32  C   UNL     1       3.008  -2.947  -0.200  0.00  0.00    +0.129 C 
ENDBRANCH  24  31
ENDBRANCH  23  27
ENDBRANCH   1  23
TORSDOF 7
