REMARK  Name = ZINC11980472
REMARK  8 active torsions:
REMARK  status: ('A' for Active; 'I' for Inactive)
REMARK    1  A    between atoms: C_1  and  O_2
REMARK    2  A    between atoms: O_2  and  C_3
REMARK    3  A    between atoms: C_8  and  N_9
REMARK    4  A    between atoms: C_11  and  C_14
REMARK    5  A    between atoms: N_16  and  C_17
REMARK    6  A    between atoms: C_17  and  C_18
REMARK    7  A    between atoms: C_18  and  N_60
REMARK    8  A    between atoms: C_27  and  C_30
REMARK                            x       y       z     vdW  Elec       q    Type
REMARK                         _______ _______ _______ _____ _____    ______ ____
ROOT
ATOM      1  C   UNL     1       1.242   2.093   0.001  0.00  0.00    +0.086 C 
ENDROOT
BRANCH   1   4
ATOM      2  C   UNL     1       0.002  -0.004   0.002  0.00  0.00    +0.247 C 
ATOM      3  O   UNL     1       1.063  -0.598  -0.011  0.00  0.00    -0.270 OA
ATOM      4  N   UNL     1      -0.016   1.344   0.009  0.00  0.00    -0.313 N 
ATOM      5  H   UNL     1      -0.863   1.817   0.016  0.00  0.00    +0.149 HD
BRANCH   2   8
ATOM      6  N   UNL     1      -2.717  -2.407   0.015  0.00  0.00    -0.236 N 
ATOM      7  C   UNL     1      -1.400  -2.133  -0.002  0.00  0.00    +0.127 A 
ATOM      8  C   UNL     1      -1.264  -0.758   0.010  0.00  0.00    +0.074 A 
ATOM      9  C   UNL     1      -2.567  -0.211   0.025  0.00  0.00    +0.147 A 
ATOM     10  N   UNL     1      -3.421  -1.197   0.028  0.00  0.00    -0.174 NA
BRANCH   6  16
ATOM     11  C   UNL     1      -4.673  -3.835   0.031  0.00  0.00    +0.145 A 
ATOM     12  C   UNL     1      -5.231  -5.104   0.024  0.00  0.00    +0.048 A 
ATOM     13  C   UNL     1      -4.414  -6.218   0.010  0.00  0.00    +0.004 A 
ATOM     14  C   UNL     1      -3.039  -6.073  -0.003  0.00  0.00    +0.002 A 
ATOM     15  C   UNL     1      -2.474  -4.812  -0.001  0.00  0.00    +0.031 A 
ATOM     16  C   UNL     1      -3.288  -3.688   0.013  0.00  0.00    +0.107 A 
BRANCH  11  18
ATOM     17  C   UNL     1      -6.885  -2.965   0.069  0.00  0.00    +0.277 C 
ATOM     18  O   UNL     1      -5.474  -2.738   0.051  0.00  0.00    -0.493 OA
ENDBRANCH  11  18
ENDBRANCH   6  16
ENDBRANCH   2   8
ENDBRANCH   1   4
BRANCH   1  19
ATOM     19  C   UNL     1       0.943   3.594   0.012  0.00  0.00    -0.059 C 
BRANCH  19  30
ATOM     20  C   UNL     1       2.929   4.143  -1.256  0.00  0.00    -0.039 C 
ATOM     21  C   UNL     1       4.416   4.272  -0.990  0.00  0.00    -0.022 A 
ATOM     22  C   UNL     1       5.237   3.168  -1.090  0.00  0.00    +0.005 A 
ATOM     23  C   UNL     1       6.596   3.301  -0.862  0.00  0.00    +0.000 A 
ATOM     24  C   UNL     1       7.127   4.537  -0.539  0.00  0.00    +0.004 A 
ATOM     25  C   UNL     1       6.303   5.641  -0.433  0.00  0.00    +0.046 A 
ATOM     26  C   UNL     1       4.939   5.505  -0.651  0.00  0.00    +0.123 A 
ATOM     27  O   UNL     1       4.113   6.576  -0.500  0.00  0.00    -0.486 OA
ATOM     28  C   UNL     1       3.238   6.520   0.633  0.00  0.00    +0.188 C 
ATOM     29  C   UNL     1       1.975   5.757   0.299  0.00  0.00    -0.028 C 
ATOM     30  N   UNL     1       2.220   4.324   0.035  0.00  0.00    +0.386 N 
ATOM     31  H   UNL     1       2.806   3.945   0.788  0.00  0.00    -0.081 HD
BRANCH  28  32
ATOM     32  C   UNL     1       2.874   7.922   1.049  0.00  0.00    -0.002 A 
ATOM     33  C   UNL     1       2.797   8.260   2.387  0.00  0.00    +0.015 A 
ATOM     34  C   UNL     1       2.467   9.530   2.727  0.00  0.00    +0.045 A 
ATOM     35  S   UNL     1       2.253  10.296   1.129  0.00  0.00    -0.105 S 
ATOM     36  C   UNL     1       2.623   8.873   0.116  0.00  0.00    +0.052 A 
ENDBRANCH  28  32
ENDBRANCH  19  30
ENDBRANCH   1  19
TORSDOF 7
