REMARK  Name = ZINC15015916
REMARK  3 active torsions:
REMARK  status: ('A' for Active; 'I' for Inactive)
REMARK    1  A    between atoms: C_3  and  C_8
REMARK    2  A    between atoms: C_5  and  O_7
REMARK    3  A    between atoms: N_14  and  C_15
REMARK                            x       y       z     vdW  Elec       q    Type
REMARK                         _______ _______ _______ _____ _____    ______ ____
ROOT
ATOM      1  C   UNL     1      -1.078   2.319   0.020  0.00  0.00    +0.028 C 
ATOM      2  C   UNL     1      -0.082   1.456   0.339  0.00  0.00    +0.078 C 
ATOM      3  C   UNL     1      -0.117  -0.017   0.446  0.00  0.00    +0.256 C 
ATOM      4  O   UNL     1      -1.138  -0.646   0.243  0.00  0.00    -0.269 OA
ATOM      5  N   UNL     1       1.014  -0.621   0.773  0.00  0.00    -0.260 N 
ATOM      6  C   UNL     1       2.160   0.110   0.999  0.00  0.00    +0.166 C 
ATOM      7  N   UNL     1       3.355  -0.326   1.329  0.00  0.00    -0.226 NA
ATOM      8  S   UNL     1       1.628   1.794   0.736  0.00  0.00    -0.049 S 
ATOM      9  H   UNL     1       1.036  -1.587   0.855  0.00  0.00    +0.157 HD
ENDROOT
BRANCH   7  10
ATOM     10  C   UNL     1       4.381   0.561   1.513  0.00  0.00    +0.067 A 
ATOM     11  C   UNL     1       4.587   1.594   0.597  0.00  0.00    +0.030 A 
ATOM     12  C   UNL     1       5.619   2.489   0.791  0.00  0.00    +0.040 A 
ATOM     13  C   UNL     1       6.457   2.357   1.886  0.00  0.00    +0.124 A 
ATOM     14  C   UNL     1       6.261   1.331   2.796  0.00  0.00    +0.040 A 
ATOM     15  C   UNL     1       5.229   0.433   2.615  0.00  0.00    +0.030 A 
ATOM     16  F   UNL     1       7.470   3.232   2.067  0.00  0.00    -0.205 F 
ENDBRANCH   7  10
BRANCH   1  19
ATOM     17  C   UNL     1       0.501   5.618   0.853  0.00  0.00    +0.004 A 
ATOM     18  C   UNL     1       0.299   4.258   0.750  0.00  0.00    +0.008 A 
ATOM     19  C   UNL     1      -0.860   3.768   0.138  0.00  0.00    -0.020 A 
ATOM     20  C   UNL     1      -1.814   4.664  -0.356  0.00  0.00    +0.053 A 
ATOM     21  C   UNL     1      -1.601   6.027  -0.241  0.00  0.00    +0.117 A 
ATOM     22  C   UNL     1      -0.444   6.502   0.363  0.00  0.00    +0.045 A 
BRANCH  21  23
ATOM     23  O   UNL     1      -2.525   6.901  -0.720  0.00  0.00    -0.507 OA
ATOM     24  H   UNL     1      -3.200   7.152  -0.075  0.00  0.00    +0.292 HD
ENDBRANCH  21  23
ENDBRANCH   1  19
TORSDOF 3
