REMARK  Name = ZINC39000123
REMARK  8 active torsions:
REMARK  status: ('A' for Active; 'I' for Inactive)
REMARK    1  A    between atoms: C_1  and  C_2
REMARK    2  A    between atoms: C_4  and  C_36
REMARK    3  A    between atoms: C_5  and  N_9
REMARK    4  A    between atoms: C_6  and  C_8
REMARK    5  A    between atoms: C_10  and  O_35
REMARK    6  A    between atoms: C_13  and  O_34
REMARK    7  A    between atoms: C_14  and  C_18
REMARK    8  A    between atoms: N_32  and  C_33
REMARK                            x       y       z     vdW  Elec       q    Type
REMARK                         _______ _______ _______ _____ _____    ______ ____
ROOT
ATOM      1  N   UNL     1       0.303  -4.085  -0.213  0.00  0.00    -0.225 N 
ATOM      2  C   UNL     1      -1.040  -4.625  -0.056  0.00  0.00    +0.338 C 
ATOM      3  N   UNL     1      -1.142  -5.990  -0.546  0.00  0.00    -0.204 NA
ATOM      4  C   UNL     1      -0.146  -6.771  -0.707  0.00  0.00    +0.200 C 
ATOM      5  C   UNL     1       1.267  -6.363  -0.408  0.00  0.00    +0.183 C 
ATOM      6  C   UNL     1       1.380  -4.865  -0.373  0.00  0.00    +0.237 C 
ATOM      7  O   UNL     1       2.473  -4.351  -0.487  0.00  0.00    -0.274 OA
ENDROOT
BRANCH   5   8
ATOM      8  C   UNL     1       1.683  -6.935   0.948  0.00  0.00    +0.124 C 
ATOM      9  C   UNL     1       0.610  -6.649   1.971  0.00  0.00    +0.039 A 
ATOM     10  H   UNL     1      -1.183  -7.071   0.997  0.00  0.00    +0.166 HD
ATOM     11  C   UNL     1       0.882  -6.214   3.223  0.00  0.00    -0.016 A 
ATOM     12  C   UNL     1      -0.383  -6.050   3.903  0.00  0.00    +0.003 A 
ATOM     13  C   UNL     1      -0.721  -5.633   5.194  0.00  0.00    +0.010 A 
ATOM     14  C   UNL     1      -2.058  -5.598   5.505  0.00  0.00    +0.001 A 
ATOM     15  C   UNL     1      -3.036  -5.955   4.592  0.00  0.00    +0.002 A 
ATOM     16  C   UNL     1      -2.730  -6.372   3.308  0.00  0.00    +0.026 A 
ATOM     17  C   UNL     1      -1.381  -6.418   2.963  0.00  0.00    +0.047 A 
ATOM     18  N   UNL     1      -0.743  -6.774   1.809  0.00  0.00    -0.356 N 
ATOM     19  C   UNL     1       2.280  -5.973   3.734  0.00  0.00    +0.053 C 
ATOM     20  C   UNL     1       3.261  -6.664   2.777  0.00  0.00    +0.089 C 
ATOM     21  N   UNL     1       2.936  -6.301   1.389  0.00  0.00    -0.296 NA
ATOM     22  C   UNL     1       4.042  -6.631   0.481  0.00  0.00    +0.105 C 
ENDBRANCH   5   8
BRANCH   1  27
ATOM     23  C   UNL     1       0.995   1.545  -0.173  0.00  0.00    +0.044 C 
ATOM     24  C   UNL     1       0.811   0.049  -0.183  0.00  0.00    -0.050 A 
ATOM     25  C   UNL     1       0.448  -0.593  -1.353  0.00  0.00    +0.008 A 
ATOM     26  C   UNL     1       0.279  -1.963  -1.366  0.00  0.00    -0.028 A 
ATOM     27  C   UNL     1       0.474  -2.697  -0.203  0.00  0.00    +0.046 A 
ATOM     28  C   UNL     1       0.840  -2.049   0.969  0.00  0.00    -0.028 A 
ATOM     29  C   UNL     1       1.012  -0.679   0.975  0.00  0.00    +0.008 A 
ATOM     30  C   UNL     1       1.052  -2.841   2.234  0.00  0.00    +0.046 C 
ATOM     31  C   UNL     1      -0.118  -2.662  -2.641  0.00  0.00    +0.046 C 
ENDBRANCH   1  27
BRANCH   4  32
ATOM     32  O   UNL     1      -0.373  -8.020  -1.166  0.00  0.00    -0.495 OA
ATOM     33  H   UNL     1      -1.305  -8.213  -1.336  0.00  0.00    +0.293 HD
ENDBRANCH   4  32
BRANCH   2  34
ATOM     34  O   UNL     1      -1.389  -4.604   1.330  0.00  0.00    -0.356 OA
ATOM     35  H   UNL     1      -2.272  -4.949   1.518  0.00  0.00    +0.214 HD
ENDBRANCH   2  34
TORSDOF 4
