REMARK  Name = ZINC13495075
REMARK  13 active torsions:
REMARK  status: ('A' for Active; 'I' for Inactive)
REMARK    1  A    between atoms: C_1  and  C_2
REMARK    2  A    between atoms: C_2  and  C_3
REMARK    3  A    between atoms: C_3  and  C_5
REMARK    4  A    between atoms: C_3  and  N_16
REMARK    5  A    between atoms: N_9  and  C_10
REMARK    6  A    between atoms: C_10  and  C_11
REMARK    7  A    between atoms: N_16  and  C_17
REMARK    8  A    between atoms: N_16  and  C_25
REMARK    9  A    between atoms: C_17  and  C_18
REMARK   10  A    between atoms: C_25  and  C_26
REMARK   11  A    between atoms: C_30  and  O_38
REMARK   12  A    between atoms: O_38  and  C_39
REMARK   13  A    between atoms: C_39  and  C_40
REMARK                            x       y       z     vdW  Elec       q    Type
REMARK                         _______ _______ _______ _____ _____    ______ ____
ROOT
ATOM      1  N   UNL     1      -1.944   0.849  -0.447  0.00  0.00    -0.284 NA
ENDROOT
BRANCH   1   2
ATOM      2  C   UNL     1      -1.421  -0.227   0.406  0.00  0.00    +0.127 C 
BRANCH   2   3
ATOM      3  C   UNL     1       0.021   0.054   0.741  0.00  0.00    +0.169 A 
ATOM      4  N   UNL     1       0.497   1.135   1.309  0.00  0.00    -0.112 NA
ATOM      5  N   UNL     1       1.772   0.995   1.426  0.00  0.00    -0.023 NA
ATOM      6  N   UNL     1       2.123  -0.148   0.947  0.00  0.00    -0.043 NA
ATOM      7  N   UNL     1       1.070  -0.760   0.520  0.00  0.00    -0.220 N 
BRANCH   7   8
ATOM      8  C   UNL     1       1.026  -2.090  -0.093  0.00  0.00    +0.221 C 
BRANCH   8   9
ATOM      9  C   UNL     1       1.490  -1.998  -1.524  0.00  0.00    +0.126 A 
ATOM     10  C   UNL     1       2.736  -2.248  -1.965  0.00  0.00    +0.046 A 
ATOM     11  C   UNL     1       2.725  -2.042  -3.364  0.00  0.00    +0.041 A 
ATOM     12  C   UNL     1       1.473  -1.679  -3.694  0.00  0.00    +0.195 A 
ATOM     13  O   UNL     1       0.728  -1.660  -2.577  0.00  0.00    -0.466 OA
ENDBRANCH   8   9
ENDBRANCH   7   8
ENDBRANCH   2   3
BRANCH   2  15
ATOM     14  C   UNL     1      -3.680  -0.692   1.365  0.00  0.00    +0.006 C 
ATOM     15  C   UNL     1      -2.240  -0.298   1.697  0.00  0.00    +0.023 C 
ENDBRANCH   2  15
ENDBRANCH   1   2
BRANCH   1  16
ATOM     16  C   UNL     1      -1.486   0.692  -1.833  0.00  0.00    +0.120 C 
BRANCH  16  17
ATOM     17  C   UNL     1      -2.306  -0.373  -2.516  0.00  0.00    -0.033 A 
ATOM     18  C   UNL     1      -1.977  -1.706  -2.356  0.00  0.00    +0.008 A 
ATOM     19  C   UNL     1      -2.728  -2.683  -2.981  0.00  0.00    +0.038 A 
ATOM     20  C   UNL     1      -3.811  -2.327  -3.767  0.00  0.00    +0.123 A 
ATOM     21  C   UNL     1      -4.139  -0.991  -3.926  0.00  0.00    +0.038 A 
ATOM     22  C   UNL     1      -3.389  -0.016  -3.296  0.00  0.00    +0.008 A 
ATOM     23  F   UNL     1      -4.546  -3.281  -4.378  0.00  0.00    -0.205 F 
ENDBRANCH  16  17
ENDBRANCH   1  16
BRANCH   1  24
ATOM     24  C   UNL     1      -1.574   2.168   0.083  0.00  0.00    +0.126 C 
BRANCH  24  25
ATOM     25  C   UNL     1      -2.438   3.226  -0.552  0.00  0.00    +0.031 A 
ATOM     26  C   UNL     1      -3.587   3.614   0.054  0.00  0.00    +0.020 A 
ATOM     27  C   UNL     1      -4.405   4.644  -0.589  0.00  0.00    +0.002 A 
ATOM     28  C   UNL     1      -5.600   5.084  -0.009  0.00  0.00    +0.055 A 
ATOM     29  C   UNL     1      -6.346   6.057  -0.642  0.00  0.00    +0.121 A 
ATOM     30  C   UNL     1      -5.915   6.599  -1.851  0.00  0.00    +0.047 A 
ATOM     31  C   UNL     1      -4.741   6.174  -2.432  0.00  0.00    +0.030 A 
ATOM     32  C   UNL     1      -3.974   5.194  -1.810  0.00  0.00    +0.049 A 
ATOM     33  N   UNL     1      -2.794   4.755  -2.376  0.00  0.00    -0.322 N 
ATOM     34  H   UNL     1      -2.497   5.135  -3.218  0.00  0.00    +0.169 HD
ATOM     35  C   UNL     1      -2.047   3.813  -1.775  0.00  0.00    +0.254 A 
ATOM     36  O   UNL     1      -1.008   3.453  -2.301  0.00  0.00    -0.268 OA
BRANCH  29  37
ATOM     37  O   UNL     1      -7.508   6.489  -0.083  0.00  0.00    -0.492 OA
BRANCH  37  38
ATOM     38  C   UNL     1      -8.233   7.497  -0.790  0.00  0.00    +0.225 C 
ATOM     39  C   UNL     1      -9.502   7.852  -0.014  0.00  0.00    +0.048 C 
ENDBRANCH  37  38
ENDBRANCH  29  37
ENDBRANCH  24  25
ENDBRANCH   1  24
TORSDOF 11
