REMARK  Name = ZINC08601983
REMARK  8 active torsions:
REMARK  status: ('A' for Active; 'I' for Inactive)
REMARK    1  A    between atoms: C_1  and  O_2
REMARK    2  A    between atoms: O_2  and  C_3
REMARK    3  A    between atoms: C_3  and  C_5
REMARK    4  A    between atoms: C_10  and  C_12
REMARK    5  A    between atoms: C_10  and  C_19
REMARK    6  A    between atoms: C_10  and  N_53
REMARK    7  A    between atoms: C_20  and  O_32
REMARK    8  A    between atoms: C_25  and  C_27
REMARK                            x       y       z     vdW  Elec       q    Type
REMARK                         _______ _______ _______ _____ _____    ______ ____
ROOT
ATOM      1  C   UNL     1       1.231  -2.186  -0.021  0.00  0.00    +0.007 C 
ENDROOT
BRANCH   1   2
ATOM      2  C   UNL     1       1.005  -2.698   1.378  0.00  0.00    +0.045 A 
ATOM      3  C   UNL     1      -0.095  -3.247   1.909  0.00  0.00    +0.225 A 
ATOM      4  N   UNL     1      -0.109  -3.663   3.217  0.00  0.00    -0.173 N 
ATOM      5  C   UNL     1       1.037  -3.480   3.942  0.00  0.00    +0.199 A 
ATOM      6  S   UNL     1       2.132  -2.726   2.763  0.00  0.00    -0.050 S 
ATOM      7  N   UNL     1       0.863  -3.917   5.158  0.00  0.00    -0.197 NA
ATOM      8  C   UNL     1      -0.381  -4.398   5.282  0.00  0.00    +0.218 A 
ATOM      9  N   UNL     1      -1.009  -4.266   4.133  0.00  0.00    -0.138 NA
BRANCH   8  10
ATOM     10  C   UNL     1      -0.956  -4.982   6.512  0.00  0.00    +0.173 A 
ATOM     11  C   UNL     1      -0.317  -5.123   7.703  0.00  0.00    +0.053 A 
ATOM     12  C   UNL     1      -1.235  -5.722   8.588  0.00  0.00    +0.042 A 
ATOM     13  C   UNL     1      -2.377  -5.915   7.901  0.00  0.00    +0.196 A 
ATOM     14  O   UNL     1      -2.207  -5.463   6.649  0.00  0.00    -0.460 OA
ENDBRANCH   8  10
BRANCH   3  15
ATOM     15  O   UNL     1      -1.208  -3.397   1.142  0.00  0.00    -0.492 OA
ATOM     16  H   UNL     1      -1.251  -4.241   0.672  0.00  0.00    +0.294 HD
ENDBRANCH   3  15
ENDBRANCH   1   2
BRANCH   1  22
ATOM     17  C   UNL     1       4.369  -4.009  -2.281  0.00  0.00    +0.094 C 
ATOM     18  C   UNL     1       4.006  -4.573  -0.904  0.00  0.00    -0.004 C 
ATOM     19  C   UNL     1       2.592  -4.122  -0.531  0.00  0.00    -0.077 C 
ATOM     20  C   UNL     1       2.834  -2.092  -1.833  0.00  0.00    -0.077 C 
ATOM     21  C   UNL     1       4.255  -2.482  -2.245  0.00  0.00    -0.004 C 
ATOM     22  N   UNL     1       2.555  -2.644  -0.490  0.00  0.00    +0.388 N 
ATOM     23  H   UNL     1       3.274  -2.311   0.163  0.00  0.00    -0.080 HD
BRANCH  17  24
ATOM     24  C   UNL     1       5.782  -4.401  -2.629  0.00  0.00    +0.310 C 
ATOM     25  O   UNL     1       6.433  -5.064  -1.856  0.00  0.00    -0.251 OA
BRANCH  24  27
ATOM     26  C   UNL     1       7.683  -4.429  -4.066  0.00  0.00    +0.280 C 
ATOM     27  O   UNL     1       6.318  -4.015  -3.797  0.00  0.00    -0.468 OA
ENDBRANCH  24  27
ENDBRANCH  17  24
ENDBRANCH   1  22
BRANCH   1  28
ATOM     28  C   UNL     1       1.210  -0.679  -0.013  0.00  0.00    -0.038 A 
ATOM     29  C   UNL     1       2.397   0.029  -0.021  0.00  0.00    +0.004 A 
ATOM     30  C   UNL     1       2.377   1.411  -0.013  0.00  0.00    +0.000 A 
ATOM     31  C   UNL     1       1.171   2.086   0.002  0.00  0.00    +0.001 A 
ATOM     32  C   UNL     1      -0.017   1.379   0.010  0.00  0.00    +0.020 A 
ATOM     33  C   UNL     1       0.002  -0.004   0.002  0.00  0.00    +0.043 A 
ATOM     34 CL   UNL     1      -1.489  -0.893   0.011  0.00  0.00    -0.083 Cl
ENDBRANCH   1  28
TORSDOF 7
