REMARK  Name = ZINC27120374
REMARK  10 active torsions:
REMARK  status: ('A' for Active; 'I' for Inactive)
REMARK    1  A    between atoms: C_1  and  C_2
REMARK    2  A    between atoms: C_5  and  C_8
REMARK    3  A    between atoms: N_11  and  C_13
REMARK    4  A    between atoms: C_13  and  C_14
REMARK    5  A    between atoms: C_14  and  O_16
REMARK    6  A    between atoms: O_16  and  C_17
REMARK    7  A    between atoms: C_17  and  C_18
REMARK    8  A    between atoms: N_20  and  C_21
REMARK    9  A    between atoms: C_21  and  C_23
REMARK   10  A    between atoms: C_21  and  C_24
REMARK                            x       y       z     vdW  Elec       q    Type
REMARK                         _______ _______ _______ _____ _____    ______ ____
ROOT
ATOM      1  O   UNL     1       2.781   7.175  -2.819  0.00  0.00    -0.454 OA
ENDROOT
BRANCH   1   2
ATOM      2  C   UNL     1       3.637   7.785  -3.653  0.00  0.00    +0.331 C 
ATOM      3  O   UNL     1       4.656   7.227  -3.987  0.00  0.00    -0.249 OA
BRANCH   2   4
ATOM      4  C   UNL     1       3.329   9.165  -4.173  0.00  0.00    +0.288 C 
BRANCH   4   8
ATOM      5  C   UNL     1       6.199  10.474  -5.755  0.00  0.00    +0.205 A 
ATOM      6  N   UNL     1       5.545   9.930  -6.791  0.00  0.00    -0.108 NA
ATOM      7  N   UNL     1       4.458   9.411  -6.329  0.00  0.00    -0.045 NA
ATOM      8  N   UNL     1       4.410   9.607  -5.058  0.00  0.00    -0.152 N 
ATOM      9  N   UNL     1       5.458  10.258  -4.686  0.00  0.00    -0.130 NA
BRANCH   5  14
ATOM     10  C   UNL     1      11.248  13.238  -5.940  0.00  0.00    +0.044 C 
ATOM     11  C   UNL     1       9.927  12.515  -5.891  0.00  0.00    -0.050 A 
ATOM     12  C   UNL     1       9.377  12.006  -7.054  0.00  0.00    +0.004 A 
ATOM     13  C   UNL     1       8.168  11.342  -7.015  0.00  0.00    +0.012 A 
ATOM     14  C   UNL     1       7.500  11.186  -5.802  0.00  0.00    +0.023 A 
ATOM     15  C   UNL     1       8.056  11.705  -4.635  0.00  0.00    +0.012 A 
ATOM     16  C   UNL     1       9.268  12.363  -4.685  0.00  0.00    +0.004 A 
ENDBRANCH   5  14
ENDBRANCH   4   8
ENDBRANCH   2   4
ENDBRANCH   1   2
BRANCH   1  17
ATOM     17  C   UNL     1       3.143   5.846  -2.358  0.00  0.00    +0.327 C 
BRANCH  17  18
ATOM     18  C   UNL     1       2.070   5.324  -1.438  0.00  0.00    +0.251 C 
ATOM     19  O   UNL     1       1.096   6.005  -1.194  0.00  0.00    -0.272 OA
ATOM     20  N   UNL     1       2.193   4.101  -0.885  0.00  0.00    -0.306 N 
ATOM     21  H   UNL     1       3.076   3.483  -1.106  0.00  0.00    +0.149 HD
BRANCH  20  22
ATOM     22  C   UNL     1       1.150   3.593   0.010  0.00  0.00    +0.100 C 
ATOM     23  C   UNL     1       1.406   4.100   1.431  0.00  0.00    +0.033 C 
BRANCH  22  24
ATOM     24  C   UNL     1       1.171   2.087   0.002  0.00  0.00    -0.026 A 
ATOM     25  C   UNL     1       2.378   1.412  -0.013  0.00  0.00    +0.007 A 
ATOM     26  C   UNL     1       2.398   0.030  -0.021  0.00  0.00    +0.022 A 
ATOM     27  C   UNL     1       1.211  -0.679  -0.013  0.00  0.00    +0.059 A 
ATOM     28  C   UNL     1       0.002  -0.004   0.002  0.00  0.00    +0.060 A 
ATOM     29  C   UNL     1      -0.017   1.379   0.010  0.00  0.00    +0.027 A 
ATOM     30 CL   UNL     1      -1.489  -0.893   0.011  0.00  0.00    -0.082 Cl
ATOM     31 CL   UNL     1       1.236  -2.415  -0.023  0.00  0.00    -0.082 Cl
ENDBRANCH  22  24
ENDBRANCH  20  22
ENDBRANCH  17  18
ENDBRANCH   1  17
TORSDOF 8
