REMARK  Name = ZINC02626801
REMARK  11 active torsions:
REMARK  status: ('A' for Active; 'I' for Inactive)
REMARK    1  A    between atoms: C_4  and  O_28
REMARK    2  A    between atoms: C_5  and  C_7
REMARK    3  A    between atoms: C_7  and  N_49
REMARK    4  A    between atoms: C_8  and  C_9
REMARK    5  A    between atoms: C_8  and  N_49
REMARK    6  A    between atoms: C_14  and  C_15
REMARK    7  A    between atoms: C_14  and  N_49
REMARK    8  A    between atoms: C_15  and  C_17
REMARK    9  A    between atoms: C_15  and  O_27
REMARK   10  A    between atoms: C_17  and  O_18
REMARK   11  A    between atoms: O_18  and  C_19
REMARK                            x       y       z     vdW  Elec       q    Type
REMARK                         _______ _______ _______ _____ _____    ______ ____
ROOT
ATOM      1  N   UNL     1      -1.356   0.448   2.636  0.00  0.00    +0.389 N 
ATOM      2  H   UNL     1      -1.798   0.992   1.885  0.00  0.00    -0.081 HD
ENDROOT
BRANCH   1   3
ATOM      3  C   UNL     1      -0.013   0.020   2.193  0.00  0.00    -0.039 C 
BRANCH   3   8
ATOM      4  C   UNL     1      -0.232  -2.649  -0.468  0.00  0.00    +0.000 A 
ATOM      5  C   UNL     1      -0.358  -1.889  -1.617  0.00  0.00    +0.004 A 
ATOM      6  C   UNL     1      -0.377  -0.510  -1.535  0.00  0.00    +0.045 A 
ATOM      7  C   UNL     1      -0.260   0.113  -0.300  0.00  0.00    +0.118 A 
ATOM      8  C   UNL     1      -0.134  -0.652   0.850  0.00  0.00    -0.022 A 
ATOM      9  C   UNL     1      -0.121  -2.031   0.763  0.00  0.00    +0.005 A 
BRANCH   7  10
ATOM     10  O   UNL     1      -0.274   1.469  -0.218  0.00  0.00    -0.507 OA
ATOM     11  H   UNL     1       0.601   1.876  -0.281  0.00  0.00    +0.292 HD
ENDBRANCH   7  10
ENDBRANCH   3   8
ENDBRANCH   1   3
BRANCH   1  12
ATOM     12  C   UNL     1      -2.192  -0.736   2.927  0.00  0.00    -0.003 C 
BRANCH  12  13
ATOM     13  C   UNL     1      -3.633  -0.302   3.009  0.00  0.00    +0.089 A 
ATOM     14  C   UNL     1      -4.498  -0.246   1.980  0.00  0.00    +0.042 A 
ATOM     15  C   UNL     1      -5.729   0.211   2.503  0.00  0.00    +0.041 A 
ATOM     16  C   UNL     1      -5.543   0.406   3.821  0.00  0.00    +0.195 A 
ATOM     17  O   UNL     1      -4.274   0.088   4.123  0.00  0.00    -0.470 OA
ENDBRANCH  12  13
ENDBRANCH   1  12
BRANCH   1  18
ATOM     18  C   UNL     1      -1.245   1.296   3.841  0.00  0.00    -0.043 C 
BRANCH  18  19
ATOM     19  C   UNL     1      -0.820   2.702   3.413  0.00  0.00    +0.135 C 
BRANCH  19  20
ATOM     20  O   UNL     1      -1.818   3.262   2.557  0.00  0.00    -0.390 OA
ATOM     21  H   UNL     1      -2.670   3.409   2.990  0.00  0.00    +0.210 HD
ENDBRANCH  19  20
BRANCH  19  22
ATOM     22  C   UNL     1      -0.657   3.585   4.652  0.00  0.00    +0.258 C 
BRANCH  22  23
ATOM     23  O   UNL     1      -0.149   4.863   4.262  0.00  0.00    -0.488 OA
BRANCH  23  24
ATOM     24  C   UNL     1       0.055   5.773   5.251  0.00  0.00    +0.140 A 
ATOM     25  C   UNL     1      -0.229   5.444   6.568  0.00  0.00    +0.067 A 
ATOM     26  C   UNL     1      -0.020   6.371   7.572  0.00  0.00    +0.045 A 
ATOM     27  C   UNL     1       0.471   7.628   7.263  0.00  0.00    +0.021 A 
ATOM     28  C   UNL     1       0.754   7.959   5.951  0.00  0.00    +0.025 A 
ATOM     29  C   UNL     1       0.553   7.032   4.945  0.00  0.00    +0.083 A 
ATOM     30 CL   UNL     1       0.915   7.447   3.298  0.00  0.00    -0.080 Cl
ATOM     31 CL   UNL     1      -0.374   5.959   9.221  0.00  0.00    -0.083 Cl
ENDBRANCH  23  24
ENDBRANCH  22  23
ENDBRANCH  19  22
ENDBRANCH  18  19
ENDBRANCH   1  18
TORSDOF 11
