REMARK  Name = ZINC20530367
REMARK  7 active torsions:
REMARK  status: ('A' for Active; 'I' for Inactive)
REMARK    1  A    between atoms: C_4  and  C_7
REMARK    2  A    between atoms: C_10  and  C_13
REMARK    3  A    between atoms: C_13  and  C_15
REMARK    4  A    between atoms: C_15  and  O_16
REMARK    5  A    between atoms: O_16  and  C_17
REMARK    6  A    between atoms: C_17  and  C_19
REMARK    7  A    between atoms: C_32  and  C_35
REMARK                            x       y       z     vdW  Elec       q    Type
REMARK                         _______ _______ _______ _____ _____    ______ ____
ROOT
ATOM      1  C   UNL     1      -0.707   5.288   2.205  0.00  0.00    +0.059 A 
ATOM      2  C   UNL     1      -1.181   4.128   2.827  0.00  0.00    +0.017 A 
ATOM      3  C   UNL     1      -1.969   4.219   3.937  0.00  0.00    +0.024 A 
ATOM      4  C   UNL     1      -2.320   5.463   4.459  0.00  0.00    +0.031 A 
ATOM      5  C   UNL     1      -1.861   6.629   3.828  0.00  0.00    -0.019 A 
ATOM      6  C   UNL     1      -1.059   6.541   2.717  0.00  0.00    +0.021 A 
ATOM      7  C   UNL     1      -2.293   7.926   4.394  0.00  0.00    +0.049 C 
ATOM      8  C   UNL     1      -1.488   9.163   4.224  0.00  0.00    -0.023 C 
ATOM      9  C   UNL     1      -1.668   9.935   5.288  0.00  0.00    -0.030 C 
ATOM     10  C   UNL     1      -2.591   9.238   6.310  0.00  0.00    +0.033 C 
ATOM     11  C   UNL     1      -2.376   7.765   5.942  0.00  0.00    +0.029 C 
ATOM     12  C   UNL     1      -3.532   6.812   6.187  0.00  0.00    +0.105 C 
ATOM     13  N   UNL     1      -3.114   5.518   5.604  0.00  0.00    -0.336 N 
ATOM     14  H   UNL     1      -3.429   4.575   6.074  0.00  0.00    +0.147 HD
ENDROOT
BRANCH  12  15
ATOM     15  C   UNL     1      -4.776   7.314   5.501  0.00  0.00    -0.027 A 
ATOM     16  C   UNL     1      -5.641   8.159   6.170  0.00  0.00    +0.007 A 
ATOM     17  C   UNL     1      -6.779   8.625   5.540  0.00  0.00    +0.020 A 
ATOM     18  C   UNL     1      -7.058   8.237   4.241  0.00  0.00    +0.041 A 
ATOM     19  C   UNL     1      -6.195   7.386   3.574  0.00  0.00    +0.020 A 
ATOM     20  C   UNL     1      -5.054   6.926   4.204  0.00  0.00    +0.007 A 
ATOM     21 CL   UNL     1      -8.491   8.815   3.451  0.00  0.00    -0.084 Cl
ENDBRANCH  12  15
BRANCH   1  22
ATOM     22  C   UNL     1       0.154   5.190   1.013  0.00  0.00    +0.340 C 
ATOM     23  O   UNL     1       0.560   6.200   0.472  0.00  0.00    -0.245 OA
BRANCH  22  24
ATOM     24  O   UNL     1       0.491   3.981   0.522  0.00  0.00    -0.453 OA
BRANCH  24  25
ATOM     25  C   UNL     1       1.341   3.961  -0.654  0.00  0.00    +0.311 C 
BRANCH  25  26
ATOM     26  C   UNL     1       1.611   2.533  -1.055  0.00  0.00    +0.200 C 
ATOM     27  O   UNL     1       1.132   1.622  -0.412  0.00  0.00    -0.288 OA
BRANCH  26  31
ATOM     28  C   UNL     1       4.037   1.700  -4.429  0.00  0.00    -0.018 A 
ATOM     29  C   UNL     1       3.488   0.651  -3.690  0.00  0.00    +0.009 A 
ATOM     30  C   UNL     1       2.703   0.918  -2.598  0.00  0.00    +0.012 A 
ATOM     31  C   UNL     1       2.452   2.244  -2.225  0.00  0.00    +0.021 A 
ATOM     32  C   UNL     1       3.000   3.295  -2.971  0.00  0.00    +0.012 A 
ATOM     33  C   UNL     1       3.789   3.023  -4.058  0.00  0.00    +0.009 A 
BRANCH  28  37
ATOM     34  C   UNL     1       6.471   0.865  -7.813  0.00  0.00    +0.000 A 
ATOM     35  C   UNL     1       6.226   2.176  -7.447  0.00  0.00    +0.001 A 
ATOM     36  C   UNL     1       5.437   2.454  -6.350  0.00  0.00    +0.008 A 
ATOM     37  C   UNL     1       4.886   1.409  -5.609  0.00  0.00    -0.018 A 
ATOM     38  C   UNL     1       5.141   0.089  -5.979  0.00  0.00    +0.008 A 
ATOM     39  C   UNL     1       5.928  -0.176  -7.081  0.00  0.00    +0.001 A 
ENDBRANCH  28  37
ENDBRANCH  26  31
ENDBRANCH  25  26
ENDBRANCH  24  25
ENDBRANCH  22  24
ENDBRANCH   1  22
TORSDOF 7
