REMARK  Name = ZINC13164388
REMARK  10 active torsions:
REMARK  status: ('A' for Active; 'I' for Inactive)
REMARK    1  A    between atoms: C_1  and  C_2
REMARK    2  A    between atoms: C_3  and  N_14
REMARK    3  A    between atoms: C_4  and  C_13
REMARK    4  A    between atoms: N_5  and  C_7
REMARK    5  A    between atoms: C_15  and  C_17
REMARK    6  A    between atoms: C_17  and  S_18
REMARK    7  A    between atoms: S_18  and  C_19
REMARK    8  A    between atoms: C_22  and  C_31
REMARK    9  A    between atoms: N_23  and  C_24
REMARK   10  A    between atoms: C_24  and  C_25
REMARK                            x       y       z     vdW  Elec       q    Type
REMARK                         _______ _______ _______ _____ _____    ______ ____
ROOT
ATOM      1  N   UNL     1      -7.297  -3.168  -4.688  0.00  0.00    -0.282 N 
ATOM      2  C   UNL     1      -6.256  -2.327  -4.843  0.00  0.00    +0.228 C 
ATOM      3  O   UNL     1      -5.826  -2.091  -5.952  0.00  0.00    -0.275 OA
ATOM      4  H   UNL     1      -7.586  -3.425  -3.799  0.00  0.00    +0.155 HD
ENDROOT
BRANCH   1   7
ATOM      5  C   UNL     1      -7.597  -1.651  -7.392  0.00  0.00    +0.069 C 
ATOM      6  C   UNL     1      -8.120  -3.022  -7.050  0.00  0.00    +0.082 A 
ATOM      7  C   UNL     1      -7.965  -3.676  -5.818  0.00  0.00    +0.078 A 
ATOM      8  C   UNL     1      -8.580  -4.883  -5.908  0.00  0.00    +0.063 A 
ATOM      9  N   UNL     1      -9.100  -4.986  -7.162  0.00  0.00    -0.235 N 
ATOM     10  N   UNL     1      -8.791  -3.807  -7.853  0.00  0.00    -0.170 NA
ATOM     11  C   UNL     1      -8.670  -5.920  -4.819  0.00  0.00    +0.068 C 
BRANCH   9  12
ATOM     12  C   UNL     1      -9.815  -6.078  -7.671  0.00  0.00    +0.066 A 
ATOM     13  C   UNL     1      -9.575  -6.526  -8.963  0.00  0.00    +0.028 A 
ATOM     14  C   UNL     1     -10.278  -7.606  -9.460  0.00  0.00    +0.002 A 
ATOM     15  C   UNL     1     -11.229  -8.234  -8.677  0.00  0.00    +0.000 A 
ATOM     16  C   UNL     1     -11.474  -7.787  -7.391  0.00  0.00    +0.002 A 
ATOM     17  C   UNL     1     -10.771  -6.711  -6.886  0.00  0.00    +0.028 A 
ENDBRANCH   9  12
ENDBRANCH   1   7
BRANCH   2  18
ATOM     18  C   UNL     1      -5.626  -1.678  -3.637  0.00  0.00    +0.173 C 
BRANCH  18  19
ATOM     19  S   UNL     1      -4.264  -0.611  -4.169  0.00  0.00    -0.077 S 
BRANCH  19  20
ATOM     20  C   UNL     1      -3.726  -0.001  -2.606  0.00  0.00    +0.192 A 
ATOM     21  N   UNL     1      -4.237  -0.297  -1.434  0.00  0.00    -0.122 NA
ATOM     22  N   UNL     1      -3.596   0.323  -0.508  0.00  0.00    -0.133 NA
ATOM     23  C   UNL     1      -2.652   1.053  -1.030  0.00  0.00    +0.137 A 
ATOM     24  N   UNL     1      -2.698   0.871  -2.385  0.00  0.00    -0.301 N 
BRANCH  23  25
ATOM     25  C   UNL     1      -1.684   1.931  -0.280  0.00  0.00    +0.057 C 
ATOM     26  C   UNL     1      -0.778   1.261   0.754  0.00  0.00    +0.012 C 
ATOM     27  C   UNL     1      -1.937   2.147   1.214  0.00  0.00    +0.012 C 
ENDBRANCH  23  25
BRANCH  24  28
ATOM     28  C   UNL     1      -1.825   1.482  -3.390  0.00  0.00    +0.160 C 
BRANCH  28  29
ATOM     29  C   UNL     1      -0.625   0.599  -3.618  0.00  0.00    -0.028 A 
ATOM     30  C   UNL     1       0.517   0.777  -2.861  0.00  0.00    +0.005 A 
ATOM     31  C   UNL     1       1.616  -0.036  -3.066  0.00  0.00    +0.000 A 
ATOM     32  C   UNL     1       1.576  -1.020  -4.036  0.00  0.00    +0.000 A 
ATOM     33  C   UNL     1       0.435  -1.195  -4.797  0.00  0.00    +0.000 A 
ATOM     34  C   UNL     1      -0.666  -0.385  -4.587  0.00  0.00    +0.005 A 
ENDBRANCH  28  29
ENDBRANCH  24  28
ENDBRANCH  19  20
ENDBRANCH  18  19
ENDBRANCH   2  18
TORSDOF 8
