REMARK  Name = ZINC32576992
REMARK  14 active torsions:
REMARK  status: ('A' for Active; 'I' for Inactive)
REMARK    1  A    between atoms: C_1  and  C_2
REMARK    2  A    between atoms: C_5  and  N_8
REMARK    3  A    between atoms: C_9  and  C_28
REMARK    4  A    between atoms: C_12  and  S_13
REMARK    5  A    between atoms: S_13  and  C_14
REMARK    6  A    between atoms: C_14  and  C_15
REMARK    7  A    between atoms: N_17  and  N_18
REMARK    8  A    between atoms: C_19  and  C_20
REMARK    9  A    between atoms: C_20  and  C_27
REMARK   10  A    between atoms: C_21  and  C_22
REMARK   11  A    between atoms: C_31  and  C_34
REMARK   12  A    between atoms: C_34  and  C_35
REMARK   13  A    between atoms: C_34  and  C_36
REMARK   14  A    between atoms: C_34  and  C_37
REMARK                            x       y       z     vdW  Elec       q    Type
REMARK                         _______ _______ _______ _____ _____    ______ ____
ROOT
ATOM      1  N   UNL     1      -5.901   0.385  -2.294  0.00  0.00    -0.270 N 
ATOM      2  C   UNL     1      -4.561   0.479  -1.987  0.00  0.00    +0.169 A 
ATOM      3  N   UNL     1      -4.363  -0.242  -0.908  0.00  0.00    -0.128 NA
ATOM      4  N   UNL     1      -5.467  -0.777  -0.526  0.00  0.00    -0.122 NA
ATOM      5  C   UNL     1      -6.441  -0.431  -1.338  0.00  0.00    +0.197 A 
ENDROOT
BRANCH   1  10
ATOM      6  C   UNL     1      -8.611   2.858  -6.625  0.00  0.00    +0.044 C 
ATOM      7  C   UNL     1      -7.891   2.201  -5.475  0.00  0.00    -0.050 A 
ATOM      8  C   UNL     1      -7.658   0.839  -5.495  0.00  0.00    +0.005 A 
ATOM      9  C   UNL     1      -6.999   0.234  -4.442  0.00  0.00    +0.026 A 
ATOM     10  C   UNL     1      -6.570   0.996  -3.364  0.00  0.00    +0.051 A 
ATOM     11  C   UNL     1      -6.811   2.363  -3.344  0.00  0.00    +0.026 A 
ATOM     12  C   UNL     1      -7.465   2.963  -4.402  0.00  0.00    +0.005 A 
ENDBRANCH   1  10
BRANCH   2  13
ATOM     13  C   UNL     1      -3.542   1.251  -2.728  0.00  0.00    +0.020 A 
ATOM     14  C   UNL     1      -3.799   1.681  -4.031  0.00  0.00    +0.012 A 
ATOM     15  C   UNL     1      -2.845   2.406  -4.715  0.00  0.00    +0.005 A 
ATOM     16  C   UNL     1      -1.634   2.701  -4.115  0.00  0.00    -0.042 A 
ATOM     17  C   UNL     1      -1.371   2.274  -2.825  0.00  0.00    +0.005 A 
ATOM     18  C   UNL     1      -2.316   1.548  -2.130  0.00  0.00    +0.012 A 
BRANCH  16  19
ATOM     19  C   UNL     1      -0.596   3.493  -4.868  0.00  0.00    -0.013 C 
ATOM     20  C   UNL     1      -1.171   4.862  -5.240  0.00  0.00    +0.015 C 
ATOM     21  C   UNL     1       0.641   3.682  -3.988  0.00  0.00    +0.015 C 
ATOM     22  C   UNL     1      -0.206   2.741  -6.142  0.00  0.00    +0.015 C 
ENDBRANCH  16  19
ENDBRANCH   2  13
BRANCH   5  23
ATOM     23  S   UNL     1      -8.129  -0.923  -1.215  0.00  0.00    -0.076 S 
BRANCH  23  24
ATOM     24  C   UNL     1      -8.047  -1.958   0.267  0.00  0.00    +0.174 C 
BRANCH  24  25
ATOM     25  C   UNL     1      -9.418  -2.505   0.575  0.00  0.00    +0.242 C 
ATOM     26  O   UNL     1     -10.358  -2.221  -0.139  0.00  0.00    -0.273 OA
ATOM     27  N   UNL     1      -9.599  -3.308   1.641  0.00  0.00    -0.206 N 
ATOM     28  H   UNL     1      -8.747  -3.565   2.288  0.00  0.00    +0.177 HD
BRANCH  27  29
ATOM     29  N   UNL     1     -10.873  -3.816   1.927  0.00  0.00    -0.188 NA
ATOM     30  C   UNL     1     -11.029  -4.686   2.885  0.00  0.00    +0.133 C 
BRANCH  30  31
ATOM     31  C   UNL     1      -9.995  -5.606   3.179  0.00  0.00    -0.027 C 
ATOM     32  C   UNL     1     -10.185  -6.559   4.123  0.00  0.00    +0.051 C 
ATOM     33  C   UNL     1      -8.683  -5.527   2.442  0.00  0.00    +0.045 C 
BRANCH  32  34
ATOM     34  C   UNL     1      -9.037  -7.261   4.694  0.00  0.00    +0.128 A 
ATOM     35  C   UNL     1      -9.091  -8.337   5.536  0.00  0.00    +0.049 A 
ATOM     36  C   UNL     1      -7.761  -8.684   5.833  0.00  0.00    +0.042 A 
ATOM     37  C   UNL     1      -6.966  -7.819   5.169  0.00  0.00    +0.195 A 
ATOM     38  O   UNL     1      -7.739  -6.964   4.479  0.00  0.00    -0.464 OA
ENDBRANCH  32  34
ENDBRANCH  30  31
ENDBRANCH  27  29
ENDBRANCH  24  25
ENDBRANCH  23  24
ENDBRANCH   5  23
TORSDOF 9
