REMARK  Name = ZINC38897787
REMARK  7 active torsions:
REMARK  status: ('A' for Active; 'I' for Inactive)
REMARK    1  A    between atoms: C_1  and  C_2
REMARK    2  A    between atoms: C_3  and  C_31
REMARK    3  A    between atoms: C_4  and  C_23
REMARK    4  A    between atoms: C_10  and  C_11
REMARK    5  A    between atoms: C_27  and  O_29
REMARK    6  A    between atoms: O_29  and  C_30
REMARK    7  A    between atoms: N_33  and  C_34
REMARK                            x       y       z     vdW  Elec       q    Type
REMARK                         _______ _______ _______ _____ _____    ______ ____
ROOT
ATOM      1  C   UNL     1       0.737   1.503  -1.530  0.00  0.00    +0.066 C 
ATOM      2  C   UNL     1       0.645   0.169  -0.834  0.00  0.00    +0.051 C 
ATOM      3  C   UNL     1      -0.510  -0.184  -0.199  0.00  0.00    +0.063 C 
ATOM      4  C   UNL     1      -0.562  -1.529   0.487  0.00  0.00    +0.160 C 
ATOM      5  N   UNL     1       0.663  -2.375   0.417  0.00  0.00    -0.275 N 
ATOM      6  C   UNL     1       0.809  -3.591   0.960  0.00  0.00    +0.268 A 
ATOM      7  O   UNL     1      -0.096  -4.116   1.579  0.00  0.00    -0.266 OA
ATOM      8  C   UNL     1       2.108  -4.274   0.779  0.00  0.00    +0.080 A 
ATOM      9  C   UNL     1       2.518  -5.514   1.229  0.00  0.00    +0.026 C 
ATOM     10  S   UNL     1       3.003  -3.060  -0.177  0.00  0.00    -0.046 S 
ATOM     11  C   UNL     1       1.719  -1.828  -0.275  0.00  0.00    +0.178 A 
ATOM     12  N   UNL     1       1.687  -0.654  -0.849  0.00  0.00    -0.228 NA
ENDROOT
BRANCH   9  13
ATOM     13  C   UNL     1       3.805  -5.970   0.941  0.00  0.00    -0.018 C 
ATOM     14  C   UNL     1       4.371  -7.190   1.312  0.00  0.00    +0.003 A 
ATOM     15  C   UNL     1       3.874  -8.289   2.045  0.00  0.00    +0.010 A 
ATOM     16  C   UNL     1       4.667  -9.370   2.258  0.00  0.00    +0.001 A 
ATOM     17  C   UNL     1       5.975  -9.428   1.768  0.00  0.00    +0.002 A 
ATOM     18  C   UNL     1       6.519  -8.412   1.057  0.00  0.00    +0.026 A 
ATOM     19  C   UNL     1       5.750  -7.245   0.792  0.00  0.00    +0.043 A 
ATOM     20  N   UNL     1       6.040  -6.142   0.139  0.00  0.00    -0.380 N 
ATOM     21  C   UNL     1       4.878  -5.248   0.155  0.00  0.00    +0.149 C 
ATOM     22  H   UNL     1       6.888  -5.951  -0.291  0.00  0.00    +0.160 HD
ENDBRANCH   9  13
BRANCH   4  23
ATOM     23  C   UNL     1      -1.700  -2.313  -0.114  0.00  0.00    -0.016 A 
ATOM     24  C   UNL     1      -1.552  -2.905  -1.355  0.00  0.00    +0.006 A 
ATOM     25  C   UNL     1      -2.595  -3.624  -1.909  0.00  0.00    +0.004 A 
ATOM     26  C   UNL     1      -3.788  -3.753  -1.224  0.00  0.00    +0.045 A 
ATOM     27  C   UNL     1      -3.939  -3.160   0.021  0.00  0.00    +0.120 A 
ATOM     28  C   UNL     1      -2.889  -2.444   0.577  0.00  0.00    +0.051 A 
BRANCH  27  29
ATOM     29  O   UNL     1      -5.111  -3.285   0.697  0.00  0.00    -0.495 OA
ATOM     30  C   UNL     1      -6.146  -4.042   0.065  0.00  0.00    +0.277 C 
ENDBRANCH  27  29
ENDBRANCH   4  23
BRANCH   3  31
ATOM     31  C   UNL     1      -1.622   0.681  -0.183  0.00  0.00    +0.248 C 
ATOM     32  O   UNL     1      -1.881   1.323   0.820  0.00  0.00    -0.270 OA
ATOM     33  N   UNL     1      -2.400   0.799  -1.278  0.00  0.00    -0.282 N 
ATOM     34  H   UNL     1      -2.243   0.231  -2.048  0.00  0.00    +0.155 HD
BRANCH  33  35
ATOM     35  C   UNL     1      -3.434   1.741  -1.303  0.00  0.00    +0.034 A 
ATOM     36  C   UNL     1      -4.178   1.988  -0.157  0.00  0.00    +0.023 A 
ATOM     37  C   UNL     1      -5.198   2.918  -0.185  0.00  0.00    +0.002 A 
ATOM     38  C   UNL     1      -5.479   3.603  -1.353  0.00  0.00    +0.000 A 
ATOM     39  C   UNL     1      -4.740   3.360  -2.496  0.00  0.00    +0.002 A 
ATOM     40  C   UNL     1      -3.715   2.435  -2.473  0.00  0.00    +0.023 A 
ENDBRANCH  33  35
ENDBRANCH   3  31
TORSDOF 5
