REMARK  Name = ZINC08856950
REMARK  10 active torsions:
REMARK  status: ('A' for Active; 'I' for Inactive)
REMARK    1  A    between atoms: C_1  and  C_2
REMARK    2  A    between atoms: C_2  and  C_4
REMARK    3  A    between atoms: C_2  and  N_10
REMARK    4  A    between atoms: N_10  and  C_11
REMARK    5  A    between atoms: C_13  and  N_20
REMARK    6  A    between atoms: C_16  and  N_17
REMARK    7  A    between atoms: N_23  and  S_26
REMARK    8  A    between atoms: S_26  and  C_29
REMARK    9  A    between atoms: C_32  and  O_36
REMARK   10  A    between atoms: O_36  and  C_37
REMARK                            x       y       z     vdW  Elec       q    Type
REMARK                         _______ _______ _______ _____ _____    ______ ____
ROOT
ATOM      1  C   UNL     1      -2.084   4.639  -7.820  0.00  0.00    +0.060 A 
ATOM      2  C   UNL     1      -2.566   4.913  -6.547  0.00  0.00    +0.048 A 
ATOM      3  C   UNL     1      -2.616   3.904  -5.596  0.00  0.00    +0.032 A 
ATOM      4  C   UNL     1      -2.193   2.621  -5.923  0.00  0.00    +0.025 A 
ATOM      5  C   UNL     1      -1.719   2.351  -7.192  0.00  0.00    +0.036 A 
ATOM      6  C   UNL     1      -1.663   3.355  -8.140  0.00  0.00    +0.147 A 
ENDROOT
BRANCH   3   7
ATOM      7  N   UNL     1      -3.095   4.176  -4.312  0.00  0.00    -0.327 N 
ATOM      8  C   UNL     1      -3.067   2.971  -3.473  0.00  0.00    +0.122 C 
ATOM      9  C   UNL     1      -3.764   3.264  -2.141  0.00  0.00    +0.128 C 
ATOM     10  N   UNL     1      -3.143   4.454  -1.540  0.00  0.00    -0.174 NA
ATOM     11  C   UNL     1      -3.017   5.664  -2.366  0.00  0.00    +0.128 C 
ATOM     12  C   UNL     1      -2.344   5.275  -3.692  0.00  0.00    +0.122 C 
BRANCH  10  13
ATOM     13  S   UNL     1      -2.607   4.434   0.026  0.00  0.00    +0.061 S 
ATOM     14  O   UNL     1      -3.341   3.417   0.694  0.00  0.00    -0.153 OA
ATOM     15  O   UNL     1      -2.599   5.784   0.470  0.00  0.00    -0.153 OA
BRANCH  13  16
ATOM     16  C   UNL     1      -0.927   3.904  -0.005  0.00  0.00    +0.108 A 
ATOM     17  C   UNL     1      -0.626   2.558   0.085  0.00  0.00    +0.032 A 
ATOM     18  C   UNL     1       0.690   2.139   0.067  0.00  0.00    +0.050 A 
ATOM     19  C   UNL     1       1.712   3.069  -0.053  0.00  0.00    +0.155 A 
ATOM     20  C   UNL     1       1.408   4.421  -0.149  0.00  0.00    +0.167 A 
ATOM     21  C   UNL     1       0.088   4.835  -0.125  0.00  0.00    +0.070 A 
ATOM     22  F   UNL     1       2.400   5.330  -0.266  0.00  0.00    -0.202 F 
BRANCH  19  23
ATOM     23  O   UNL     1       3.007   2.658  -0.078  0.00  0.00    -0.492 OA
ATOM     24  C   UNL     1       3.245   1.253   0.025  0.00  0.00    +0.277 C 
ENDBRANCH  19  23
ENDBRANCH  13  16
ENDBRANCH  10  13
ENDBRANCH   3   7
BRANCH   6  25
ATOM     25  N   UNL     1      -1.154   3.061  -9.499  0.00  0.00    +0.058 N 
ATOM     26  O   UNL     1      -1.413   1.995 -10.029  0.00  0.00    -0.126 OA
ATOM     27  O   UNL     1      -0.477   3.885 -10.087  0.00  0.00    -0.126 OA
ENDBRANCH   6  25
BRANCH   1  28
ATOM     28  N   UNL     1      -2.029   5.653  -8.779  0.00  0.00    -0.335 N 
ATOM     29  H   UNL     1      -1.771   5.445  -9.690  0.00  0.00    +0.147 HD
BRANCH  28  31
ATOM     30  C   UNL     1      -1.119   7.714  -7.827  0.00  0.00    +0.033 C 
ATOM     31  C   UNL     1      -2.359   7.031  -8.408  0.00  0.00    +0.098 C 
BRANCH  31  32
ATOM     32  C   UNL     1      -2.820   7.784  -9.630  0.00  0.00    -0.028 A 
ATOM     33  C   UNL     1      -2.182   7.592 -10.841  0.00  0.00    +0.005 A 
ATOM     34  C   UNL     1      -2.608   8.278 -11.963  0.00  0.00    +0.000 A 
ATOM     35  C   UNL     1      -3.666   9.164 -11.871  0.00  0.00    +0.000 A 
ATOM     36  C   UNL     1      -4.301   9.359 -10.659  0.00  0.00    +0.000 A 
ATOM     37  C   UNL     1      -3.878   8.669  -9.538  0.00  0.00    +0.005 A 
ENDBRANCH  31  32
ENDBRANCH  28  31
ENDBRANCH   1  28
TORSDOF 8
