REMARK  Name = ZINC38550626
REMARK  5 active torsions:
REMARK  status: ('A' for Active; 'I' for Inactive)
REMARK    1  A    between atoms: N_7  and  C_8
REMARK    2  A    between atoms: C_8  and  C_10
REMARK    3  A    between atoms: C_8  and  C_17
REMARK    4  A    between atoms: C_21  and  N_22
REMARK    5  A    between atoms: C_23  and  C_25
REMARK                            x       y       z     vdW  Elec       q    Type
REMARK                         _______ _______ _______ _____ _____    ______ ____
ROOT
ATOM      1  C   UNL     1      -0.183  -3.946   0.643  0.00  0.00    +0.009 A 
ATOM      2  C   UNL     1      -0.909  -4.070   1.829  0.00  0.00    -0.030 A 
ATOM      3  C   UNL     1      -0.583  -5.115   2.635  0.00  0.00    -0.005 A 
ATOM      4  S   UNL     1       0.724  -5.936   1.763  0.00  0.00    -0.078 S 
ATOM      5  C   UNL     1       0.787  -4.851   0.346  0.00  0.00    +0.078 A 
ATOM      6  C   UNL     1      -1.195  -5.476   3.950  0.00  0.00    +0.043 C 
ATOM      7  C   UNL     1      -2.013  -4.275   4.449  0.00  0.00    +0.005 C 
ATOM      8  C   UNL     1      -2.888  -3.767   3.299  0.00  0.00    +0.005 C 
ATOM      9  C   UNL     1      -2.017  -3.102   2.233  0.00  0.00    +0.036 C 
ENDROOT
BRANCH   5  10
ATOM     10  N   UNL     1       1.617  -4.914  -0.775  0.00  0.00    -0.273 N 
ATOM     11  C   UNL     1       2.439  -5.968  -0.946  0.00  0.00    +0.284 C 
ATOM     12  O   UNL     1       2.457  -6.865  -0.124  0.00  0.00    -0.266 OA
ATOM     13  H   UNL     1       1.603  -4.199  -1.431  0.00  0.00    +0.156 HD
BRANCH  11  14
ATOM     14  C   UNL     1       3.311  -6.035  -2.123  0.00  0.00    +0.189 A 
ATOM     15  C   UNL     1       4.183  -7.043  -2.420  0.00  0.00    +0.054 A 
ATOM     16  C   UNL     1       4.804  -6.696  -3.630  0.00  0.00    +0.042 A 
ATOM     17  C   UNL     1       4.292  -5.506  -4.013  0.00  0.00    +0.196 A 
ATOM     18  O   UNL     1       3.388  -5.113  -3.106  0.00  0.00    -0.458 OA
ENDBRANCH  11  14
ENDBRANCH   5  10
BRANCH   1  19
ATOM     19  C   UNL     1      -0.479  -2.815  -0.308  0.00  0.00    +0.135 C 
BRANCH  19  26
ATOM     20  C   UNL     1      -0.458   0.791  -2.453  0.00  0.00    +0.005 A 
ATOM     21  C   UNL     1       0.759   1.329  -2.850  0.00  0.00    +0.018 A 
ATOM     22  C   UNL     1       1.928   0.667  -2.530  0.00  0.00    +0.084 A 
ATOM     23  N   UNL     1       1.901  -0.466  -1.854  0.00  0.00    -0.350 N 
ATOM     24  C   UNL     1       0.761  -1.011  -1.458  0.00  0.00    +0.097 A 
ATOM     25  C   UNL     1      -0.455  -0.398  -1.746  0.00  0.00    +0.041 A 
ATOM     26  N   UNL     1       0.778  -2.206  -0.749  0.00  0.00    -0.320 N 
ATOM     27  H   UNL     1       1.623  -2.637  -0.546  0.00  0.00    +0.148 HD
ATOM     28  H   UNL     1       2.736  -0.910  -1.642  0.00  0.00    +0.166 HD
ENDBRANCH  19  26
BRANCH  19  29
ATOM     29  C   UNL     1      -1.226  -3.347  -1.504  0.00  0.00    -0.020 A 
ATOM     30  C   UNL     1      -0.529  -3.787  -2.614  0.00  0.00    +0.006 A 
ATOM     31  C   UNL     1      -1.213  -4.275  -3.712  0.00  0.00    +0.003 A 
ATOM     32  C   UNL     1      -2.595  -4.323  -3.701  0.00  0.00    +0.038 A 
ATOM     33  C   UNL     1      -3.293  -3.883  -2.590  0.00  0.00    +0.124 A 
ATOM     34  C   UNL     1      -2.607  -3.400  -1.488  0.00  0.00    +0.044 A 
ATOM     35  F   UNL     1      -4.643  -3.930  -2.578  0.00  0.00    -0.205 F 
ENDBRANCH  19  29
ENDBRANCH   1  19
TORSDOF 5
