REMARK  Name = ZINC35842733
REMARK  17 active torsions:
REMARK  status: ('A' for Active; 'I' for Inactive)
REMARK    1  A    between atoms: C_1  and  C_2
REMARK    2  A    between atoms: C_2  and  C_3
REMARK    3  A    between atoms: C_2  and  C_4
REMARK    4  A    between atoms: C_4  and  N_5
REMARK    5  A    between atoms: N_5  and  C_6
REMARK    6  A    between atoms: N_5  and  C_12
REMARK    7  A    between atoms: C_6  and  C_7
REMARK    8  A    between atoms: C_12  and  C_13
REMARK    9  A    between atoms: N_15  and  C_16
REMARK   10  A    between atoms: N_15  and  C_28
REMARK   11  A    between atoms: C_16  and  C_17
REMARK   12  A    between atoms: C_17  and  C_18
REMARK   13  A    between atoms: C_28  and  C_29
REMARK   14  A    between atoms: C_32  and  C_35
REMARK   15  A    between atoms: C_35  and  C_36
REMARK   16  A    between atoms: C_35  and  C_37
REMARK   17  A    between atoms: C_35  and  C_38
REMARK                            x       y       z     vdW  Elec       q    Type
REMARK                         _______ _______ _______ _____ _____    ______ ____
ROOT
ATOM      1  C   UNL     1      -3.175  -2.017  -1.882  0.00  0.00    +0.199 C 
ATOM      2  O   UNL     1      -2.323  -1.511  -2.581  0.00  0.00    -0.278 OA
ATOM      3  N   UNL     1      -4.430  -2.165  -2.350  0.00  0.00    -0.298 N 
ENDROOT
BRANCH   1   4
ATOM      4  C   UNL     1      -2.830  -2.481  -0.490  0.00  0.00    +0.019 C 
BRANCH   4   5
ATOM      5  N   UNL     1      -1.466  -2.052  -0.155  0.00  0.00    +0.390 N 
ATOM      6  H   UNL     1      -0.890  -2.082  -0.983  0.00  0.00    -0.081 HD
BRANCH   5   7
ATOM      7  C   UNL     1      -1.499  -0.679   0.368  0.00  0.00    -0.075 C 
BRANCH   7   9
ATOM      8  C   UNL     1      -2.094   1.686  -0.173  0.00  0.00    +0.005 C 
ATOM      9  C   UNL     1      -1.894   0.284  -0.753  0.00  0.00    -0.034 C 
ATOM     10  C   UNL     1      -0.786   0.322  -1.807  0.00  0.00    +0.005 C 
ENDBRANCH   7   9
ENDBRANCH   5   7
BRANCH   5  11
ATOM     11  C   UNL     1      -0.906  -2.950   0.863  0.00  0.00    -0.002 C 
BRANCH  11  12
ATOM     12  C   UNL     1       0.531  -2.580   1.125  0.00  0.00    +0.089 A 
ATOM     13  C   UNL     1       0.970  -1.780   2.113  0.00  0.00    +0.042 A 
ATOM     14  C   UNL     1       2.377  -1.706   1.987  0.00  0.00    +0.041 A 
ATOM     15  C   UNL     1       2.713  -2.466   0.929  0.00  0.00    +0.195 A 
ATOM     16  O   UNL     1       1.592  -2.997   0.414  0.00  0.00    -0.470 OA
ENDBRANCH  11  12
ENDBRANCH   5  11
ENDBRANCH   4   5
ENDBRANCH   1   4
BRANCH   3  17
ATOM     17  C   UNL     1      -5.459  -2.777  -1.505  0.00  0.00    +0.113 C 
BRANCH  17  18
ATOM     18  C   UNL     1      -6.164  -1.690  -0.692  0.00  0.00    +0.056 C 
BRANCH  18  19
ATOM     19  C   UNL     1      -7.223  -2.319   0.177  0.00  0.00    -0.021 A 
ATOM     20  C   UNL     1      -8.525  -2.450  -0.120  0.00  0.00    +0.087 A 
ATOM     21  N   UNL     1      -9.179  -3.071   0.909  0.00  0.00    -0.360 N 
ATOM     22  H   UNL     1     -10.127  -3.276   0.925  0.00  0.00    +0.165 HD
ATOM     23  C   UNL     1      -8.290  -3.362   1.920  0.00  0.00    +0.047 A 
ATOM     24  C   UNL     1      -7.024  -2.910   1.502  0.00  0.00    +0.003 A 
ATOM     25  C   UNL     1      -5.915  -3.079   2.333  0.00  0.00    +0.010 A 
ATOM     26  C   UNL     1      -6.064  -3.687   3.548  0.00  0.00    +0.001 A 
ATOM     27  C   UNL     1      -7.309  -4.139   3.963  0.00  0.00    +0.002 A 
ATOM     28  C   UNL     1      -8.419  -3.974   3.162  0.00  0.00    +0.026 A 
ENDBRANCH  18  19
ENDBRANCH  17  18
ENDBRANCH   3  17
BRANCH   3  29
ATOM     29  C   UNL     1      -4.766  -1.714  -3.703  0.00  0.00    +0.142 C 
BRANCH  29  30
ATOM     30  C   UNL     1      -4.539  -2.840  -4.678  0.00  0.00    -0.030 A 
ATOM     31  C   UNL     1      -3.304  -2.996  -5.279  0.00  0.00    +0.005 A 
ATOM     32  C   UNL     1      -3.096  -4.029  -6.174  0.00  0.00    +0.004 A 
ATOM     33  C   UNL     1      -4.123  -4.907  -6.467  0.00  0.00    -0.042 A 
ATOM     34  C   UNL     1      -5.357  -4.752  -5.865  0.00  0.00    +0.004 A 
ATOM     35  C   UNL     1      -5.564  -3.721  -4.967  0.00  0.00    +0.005 A 
BRANCH  33  36
ATOM     36  C   UNL     1      -3.896  -6.032  -7.444  0.00  0.00    -0.013 C 
ATOM     37  C   UNL     1      -2.773  -6.935  -6.929  0.00  0.00    +0.015 C 
ATOM     38  C   UNL     1      -5.182  -6.849  -7.587  0.00  0.00    +0.015 C 
ATOM     39  C   UNL     1      -3.504  -5.455  -8.805  0.00  0.00    +0.015 C 
ENDBRANCH  33  36
ENDBRANCH  29  30
ENDBRANCH   3  29
TORSDOF 12
