REMARK  Name = ZINC56316250
REMARK  12 active torsions:
REMARK  status: ('A' for Active; 'I' for Inactive)
REMARK    1  A    between atoms: C_1  and  C_2
REMARK    2  A    between atoms: C_5  and  C_29
REMARK    3  A    between atoms: C_6  and  N_8
REMARK    4  A    between atoms: C_9  and  C_11
REMARK    5  A    between atoms: C_11  and  C_13
REMARK    6  A    between atoms: C_11  and  N_14
REMARK    7  A    between atoms: C_18  and  N_21
REMARK    8  A    between atoms: C_22  and  O_24
REMARK    9  A    between atoms: O_24  and  C_25
REMARK   10  A    between atoms: C_25  and  C_26
REMARK   11  A    between atoms: C_25  and  C_27
REMARK   12  A    between atoms: C_25  and  C_28
REMARK                            x       y       z     vdW  Elec       q    Type
REMARK                         _______ _______ _______ _____ _____    ______ ____
ROOT
ATOM      1  N   UNL     1       0.250  -1.962   5.984  0.00  0.00    +0.388 N 
ATOM      2  C   UNL     1       1.425  -1.086   5.922  0.00  0.00    -0.078 C 
ATOM      3  C   UNL     1       1.357  -0.054   7.051  0.00  0.00    -0.017 C 
ATOM      4  C   UNL     1       1.330  -0.781   8.398  0.00  0.00    +0.019 C 
ATOM      5  C   UNL     1       0.142  -1.748   8.422  0.00  0.00    +0.060 C 
ATOM      6  C   UNL     1       0.256  -2.716   7.243  0.00  0.00    -0.055 C 
ATOM      7  H   UNL     1      -0.588  -1.402   5.932  0.00  0.00    -0.081 HD
ENDROOT
BRANCH   5   8
ATOM      8  N   UNL     1       0.150  -2.502   9.678  0.00  0.00    -0.280 N 
ATOM      9  C   UNL     1      -0.419  -1.978  10.782  0.00  0.00    +0.401 C 
ATOM     10  O   UNL     1      -0.940  -0.881  10.735  0.00  0.00    -0.226 OA
ATOM     11  H   UNL     1       0.566  -3.377   9.716  0.00  0.00    +0.152 HD
BRANCH   9  12
ATOM     12  O   UNL     1      -0.412  -2.671  11.937  0.00  0.00    -0.445 OA
BRANCH  12  13
ATOM     13  C   UNL     1      -1.034  -2.056  13.066  0.00  0.00    +0.107 C 
ATOM     14  C   UNL     1      -2.508  -1.791  12.756  0.00  0.00    +0.055 C 
ATOM     15  C   UNL     1      -0.927  -2.986  14.277  0.00  0.00    +0.055 C 
ATOM     16  C   UNL     1      -0.332  -0.732  13.377  0.00  0.00    +0.055 C 
ENDBRANCH  12  13
ENDBRANCH   9  12
ENDBRANCH   5   8
BRANCH   1  17
ATOM     17  C   UNL     1       0.280  -2.900   4.854  0.00  0.00    +0.016 C 
ATOM     18  C   UNL     1      -0.910  -3.856   4.951  0.00  0.00    -0.004 C 
BRANCH  17  20
ATOM     19  N   UNL     1       0.752  -2.638   2.439  0.00  0.00    -0.287 N 
ATOM     20  C   UNL     1       0.202  -2.131   3.560  0.00  0.00    +0.203 C 
ATOM     21  O   UNL     1      -0.357  -1.054   3.528  0.00  0.00    -0.277 OA
ATOM     22  H   UNL     1       1.134  -3.530   2.447  0.00  0.00    +0.155 HD
BRANCH  19  28
ATOM     23  C   UNL     1       0.476   1.743   0.226  0.00  0.00    +0.044 C 
ATOM     24  C   UNL     1       0.640   0.246   0.162  0.00  0.00    -0.049 A 
ATOM     25  C   UNL     1       0.811  -0.378  -1.060  0.00  0.00    +0.004 A 
ATOM     26  C   UNL     1       0.963  -1.751  -1.123  0.00  0.00    +0.005 A 
ATOM     27  C   UNL     1       0.944  -2.503   0.036  0.00  0.00    -0.029 A 
ATOM     28  C   UNL     1       0.772  -1.879   1.264  0.00  0.00    +0.036 A 
ATOM     29  C   UNL     1       0.625  -0.499   1.324  0.00  0.00    +0.027 A 
ATOM     30  C   UNL     1       1.109  -4.000  -0.034  0.00  0.00    +0.045 C 
ENDBRANCH  19  28
ENDBRANCH  17  20
ENDBRANCH   1  17
TORSDOF 6
