REMARK  Name = ZINC36993253
REMARK  4 active torsions:
REMARK  status: ('A' for Active; 'I' for Inactive)
REMARK    1  A    between atoms: C_1  and  C_2
REMARK    2  A    between atoms: C_7  and  C_23
REMARK    3  A    between atoms: C_9  and  N_10
REMARK    4  A    between atoms: N_10  and  C_11
REMARK                            x       y       z     vdW  Elec       q    Type
REMARK                         _______ _______ _______ _____ _____    ______ ____
ROOT
ATOM      1  C   UNL     1       3.036  -0.673   0.393  0.00  0.00    +0.050 A 
ATOM      2  C   UNL     1       2.637  -1.685  -0.471  0.00  0.00    +0.072 A 
ATOM      3  C   UNL     1       3.572  -2.313  -1.274  0.00  0.00    +0.144 A 
ATOM      4  C   UNL     1       4.912  -1.930  -1.213  0.00  0.00    +0.077 A 
ATOM      5  C   UNL     1       5.307  -0.920  -0.351  0.00  0.00    +0.048 A 
ATOM      6  C   UNL     1       4.370  -0.289   0.447  0.00  0.00    +0.064 A 
ATOM      7 CL   UNL     1       4.864   0.981   1.523  0.00  0.00    -0.082 Cl
ATOM      8  N   UNL     1       5.849  -2.579  -2.034  0.00  0.00    -0.280 N 
ATOM      9  C   UNL     1       5.406  -3.321  -3.072  0.00  0.00    +0.255 C 
ATOM     10  O   UNL     1       6.195  -3.916  -3.776  0.00  0.00    -0.272 OA
ATOM     11  C   UNL     1       3.927  -3.408  -3.352  0.00  0.00    +0.325 C 
ATOM     12  O   UNL     1       3.199  -3.305  -2.126  0.00  0.00    -0.481 OA
ATOM     13  H   UNL     1       6.799  -2.496  -1.857  0.00  0.00    +0.155 HD
ENDROOT
BRANCH   1  14
ATOM     14  N   UNL     1       2.092  -0.036   1.207  0.00  0.00    -0.339 N 
ATOM     15  H   UNL     1       2.354   0.723   1.750  0.00  0.00    +0.146 HD
BRANCH  14  22
ATOM     16  C   UNL     1      -0.067   1.661   0.288  0.00  0.00    +0.009 C 
ATOM     17  C   UNL     1      -0.085   0.142   0.106  0.00  0.00    +0.006 C 
ATOM     18  C   UNL     1      -1.530  -0.359   0.137  0.00  0.00    +0.005 C 
ATOM     19  C   UNL     1      -2.165   0.000   1.481  0.00  0.00    +0.001 C 
ATOM     20  C   UNL     1      -1.373  -0.658   2.612  0.00  0.00    +0.005 C 
ATOM     21  C   UNL     1       0.073  -0.157   2.581  0.00  0.00    +0.006 C 
ATOM     22  C   UNL     1       0.708  -0.516   1.236  0.00  0.00    +0.076 C 
ATOM     23  C   UNL     1       0.865  -0.816   3.712  0.00  0.00    +0.009 C 
ENDBRANCH  14  22
ENDBRANCH   1  14
TORSDOF 2
