REMARK  Name = ZINC16524622
REMARK  6 active torsions:
REMARK  status: ('A' for Active; 'I' for Inactive)
REMARK    1  A    between atoms: C_9  and  N_24
REMARK    2  A    between atoms: C_13  and  C_15
REMARK    3  A    between atoms: C_16  and  C_17
REMARK    4  A    between atoms: C_20  and  O_23
REMARK    5  A    between atoms: C_25  and  C_26
REMARK    6  A    between atoms: C_29  and  O_32
REMARK                            x       y       z     vdW  Elec       q    Type
REMARK                         _______ _______ _______ _____ _____    ______ ____
ROOT
ATOM      1  C   UNL     1       0.085   1.056  -2.238  0.00  0.00    +0.001 A 
ATOM      2  C   UNL     1       0.961   1.559  -3.192  0.00  0.00    +0.002 A 
ATOM      3  C   UNL     1       1.770   0.718  -3.921  0.00  0.00    +0.028 A 
ATOM      4  C   UNL     1       1.712  -0.663  -3.702  0.00  0.00    +0.076 A 
ATOM      5  C   UNL     1       0.818  -1.171  -2.729  0.00  0.00    +0.041 A 
ATOM      6  C   UNL     1       0.009  -0.300  -2.003  0.00  0.00    +0.013 A 
ATOM      7  C   UNL     1       0.778  -2.623  -2.520  0.00  0.00    +0.141 C 
ATOM      8  N   UNL     1      -0.024  -3.171  -1.638  0.00  0.00    -0.195 NA
ATOM      9  C   UNL     1      -0.091  -4.495  -1.417  0.00  0.00    +0.249 C 
ATOM     10  N   UNL     1       0.650  -5.358  -2.074  0.00  0.00    -0.229 NA
ATOM     11  C   UNL     1       1.589  -4.850  -3.092  0.00  0.00    +0.260 C 
ATOM     12  N   UNL     1       1.619  -3.395  -3.290  0.00  0.00    -0.249 N 
ATOM     13  C   UNL     1       2.450  -2.813  -4.207  0.00  0.00    +0.129 C 
ATOM     14  N   UNL     1       2.490  -1.513  -4.399  0.00  0.00    -0.232 NA
ENDROOT
BRANCH  13  15
ATOM     15  C   UNL     1       3.328  -3.671  -5.005  0.00  0.00    +0.044 C 
ATOM     16  C   UNL     1       4.158  -3.123  -5.917  0.00  0.00    +0.011 C 
BRANCH  16  17
ATOM     17  C   UNL     1       5.040  -3.985  -6.718  0.00  0.00    -0.025 A 
ATOM     18  C   UNL     1       5.017  -5.372  -6.541  0.00  0.00    +0.011 A 
ATOM     19  C   UNL     1       5.845  -6.175  -7.294  0.00  0.00    +0.046 A 
ATOM     20  C   UNL     1       6.704  -5.608  -8.229  0.00  0.00    +0.117 A 
ATOM     21  C   UNL     1       6.731  -4.230  -8.409  0.00  0.00    +0.046 A 
ATOM     22  C   UNL     1       5.902  -3.420  -7.665  0.00  0.00    +0.011 A 
BRANCH  20  23
ATOM     23  O   UNL     1       7.519  -6.403  -8.968  0.00  0.00    -0.507 OA
ATOM     24  H   UNL     1       7.127  -6.702  -9.800  0.00  0.00    +0.292 HD
ENDBRANCH  20  23
ENDBRANCH  16  17
ENDBRANCH  13  15
BRANCH   9  25
ATOM     25  N   UNL     1      -0.960  -4.960  -0.474  0.00  0.00    -0.219 NA
ATOM     26  C   UNL     1      -0.931  -6.218  -0.123  0.00  0.00    +0.122 C 
BRANCH  26  27
ATOM     27  C   UNL     1       0.339  -6.956  -0.140  0.00  0.00    -0.007 A 
ATOM     28  C   UNL     1       0.345  -8.338  -0.364  0.00  0.00    +0.013 A 
ATOM     29  C   UNL     1       1.537  -9.025  -0.379  0.00  0.00    +0.046 A 
ATOM     30  C   UNL     1       2.735  -8.349  -0.172  0.00  0.00    +0.117 A 
ATOM     31  C   UNL     1       2.734  -6.976   0.052  0.00  0.00    +0.046 A 
ATOM     32  C   UNL     1       1.548  -6.279   0.063  0.00  0.00    +0.013 A 
BRANCH  30  33
ATOM     33  O   UNL     1       3.908  -9.031  -0.188  0.00  0.00    -0.507 OA
ATOM     34  H   UNL     1       4.318  -9.087  -1.061  0.00  0.00    +0.292 HD
ENDBRANCH  30  33
ENDBRANCH  26  27
ENDBRANCH   9  25
TORSDOF 6
