REMARK  Name = ZINC26462577
REMARK  6 active torsions:
REMARK  status: ('A' for Active; 'I' for Inactive)
REMARK    1  A    between atoms: C_1  and  C_2
REMARK    2  A    between atoms: C_2  and  C_35
REMARK    3  A    between atoms: N_9  and  C_34
REMARK    4  A    between atoms: C_14  and  N_23
REMARK    5  A    between atoms: N_23  and  S_24
REMARK    6  A    between atoms: S_24  and  C_27
REMARK                            x       y       z     vdW  Elec       q    Type
REMARK                         _______ _______ _______ _____ _____    ______ ____
ROOT
ATOM      1  C   UNL     1      -2.515  -2.640   1.621  0.00  0.00    +0.022 C 
ATOM      2  C   UNL     1      -3.591  -1.588   1.345  0.00  0.00    +0.049 C 
ATOM      3  C   UNL     1      -4.728  -2.181   0.532  0.00  0.00    -0.015 A 
ATOM      4  C   UNL     1      -5.774  -3.004   0.890  0.00  0.00    +0.006 A 
ATOM      5  C   UNL     1      -6.699  -3.402  -0.058  0.00  0.00    +0.000 A 
ATOM      6  C   UNL     1      -6.573  -2.972  -1.367  0.00  0.00    +0.002 A 
ATOM      7  C   UNL     1      -5.527  -2.149  -1.730  0.00  0.00    +0.023 A 
ATOM      8  C   UNL     1      -4.590  -1.745  -0.781  0.00  0.00    +0.036 A 
ATOM      9  N   UNL     1      -3.459  -0.926  -0.924  0.00  0.00    -0.294 N 
ATOM     10  C   UNL     1      -3.054  -0.493   0.415  0.00  0.00    +0.191 C 
ATOM     11  C   UNL     1      -3.633   0.881   0.776  0.00  0.00    +0.108 C 
ATOM     12  C   UNL     1      -2.451   1.795   0.490  0.00  0.00    +0.002 A 
ATOM     13  C   UNL     1      -2.373   3.176   0.359  0.00  0.00    +0.032 A 
ATOM     14  C   UNL     1      -1.173   3.795   0.086  0.00  0.00    +0.056 A 
ATOM     15  C   UNL     1      -0.011   3.008  -0.066  0.00  0.00    +0.008 A 
ATOM     16  C   UNL     1       1.232   3.597  -0.351  0.00  0.00    +0.010 A 
ATOM     17  C   UNL     1       2.333   2.810  -0.491  0.00  0.00    +0.001 A 
ATOM     18  C   UNL     1       2.248   1.425  -0.355  0.00  0.00    +0.001 A 
ATOM     19  C   UNL     1       1.059   0.821  -0.080  0.00  0.00    +0.012 A 
ATOM     20  C   UNL     1      -0.100   1.602   0.065  0.00  0.00    +0.026 A 
ATOM     21  C   UNL     1      -1.346   0.999   0.359  0.00  0.00    +0.135 A 
ATOM     22  O   UNL     1      -1.648  -0.321   0.541  0.00  0.00    -0.466 OA
ATOM     23  C   UNL     1      -3.751   0.228  -1.785  0.00  0.00    +0.133 C 
ATOM     24  C   UNL     1      -4.112  -0.985   2.650  0.00  0.00    +0.022 C 
ENDROOT
BRANCH  14  25
ATOM     25  N   UNL     1      -1.107   5.184  -0.041  0.00  0.00    -0.216 N 
ATOM     26  H   UNL     1      -0.420   5.638  -0.771  0.00  0.00    +0.174 HD
BRANCH  25  27
ATOM     27  S   UNL     1      -2.062   6.149   0.908  0.00  0.00    +0.072 S 
ATOM     28  O   UNL     1      -1.674   7.490   0.644  0.00  0.00    -0.150 OA
ATOM     29  O   UNL     1      -3.397   5.694   0.736  0.00  0.00    -0.150 OA
BRANCH  27  30
ATOM     30  C   UNL     1      -1.630   5.821   2.585  0.00  0.00    +0.109 A 
ATOM     31  C   UNL     1      -2.293   4.832   3.288  0.00  0.00    +0.031 A 
ATOM     32  C   UNL     1      -1.951   4.570   4.601  0.00  0.00    +0.040 A 
ATOM     33  C   UNL     1      -0.953   5.306   5.216  0.00  0.00    +0.124 A 
ATOM     34  C   UNL     1      -0.293   6.300   4.513  0.00  0.00    +0.040 A 
ATOM     35  C   UNL     1      -0.632   6.556   3.198  0.00  0.00    +0.031 A 
ATOM     36  F   UNL     1      -0.623   5.055   6.502  0.00  0.00    -0.205 F 
ENDBRANCH  27  30
ENDBRANCH  25  27
ENDBRANCH  14  25
TORSDOF 3
