REMARK  Name = ZINC02954613
REMARK  8 active torsions:
REMARK  status: ('A' for Active; 'I' for Inactive)
REMARK    1  A    between atoms: C_1  and  C_2
REMARK    2  A    between atoms: C_5  and  N_8
REMARK    3  A    between atoms: C_9  and  C_11
REMARK    4  A    between atoms: C_14  and  C_35
REMARK    5  A    between atoms: C_17  and  C_34
REMARK    6  A    between atoms: N_21  and  C_22
REMARK    7  A    between atoms: C_25  and  C_28
REMARK    8  A    between atoms: C_35  and  O_36
REMARK                            x       y       z     vdW  Elec       q    Type
REMARK                         _______ _______ _______ _____ _____    ______ ____
ROOT
ATOM      1  C   UNL     1       3.562   5.955  -0.221  0.00  0.00    +0.098 A 
ATOM      2  C   UNL     1       3.494   7.178  -0.852  0.00  0.00    +0.030 A 
ATOM      3  C   UNL     1       2.186   7.602  -1.355  0.00  0.00    +0.027 A 
ATOM      4  C   UNL     1       2.049   8.687  -2.230  0.00  0.00    +0.007 A 
ATOM      5  C   UNL     1       0.785   9.027  -2.663  0.00  0.00    +0.117 A 
ATOM      6  N   UNL     1      -0.279   8.351  -2.268  0.00  0.00    -0.256 NA
ATOM      7  C   UNL     1      -0.202   7.324  -1.446  0.00  0.00    +0.081 A 
ATOM      8  C   UNL     1       1.028   6.908  -0.956  0.00  0.00    +0.159 A 
ATOM      9  O   UNL     1       1.133   5.860  -0.110  0.00  0.00    -0.437 OA
ATOM     10  C   UNL     1       2.309   5.181  -0.110  0.00  0.00    +0.212 A 
ATOM     11  N   UNL     1       2.332   3.869  -0.019  0.00  0.00    -0.325 N 
ATOM     12  C   UNL     1      -1.456   6.597  -1.036  0.00  0.00    +0.069 C 
ATOM     13  H   UNL     1       3.292   3.340   0.059  0.00  0.00    +0.169 HD
ENDROOT
BRANCH  11  14
ATOM     14  C   UNL     1       1.162   3.164  -0.021  0.00  0.00    +0.042 A 
ATOM     15  C   UNL     1       0.564   2.796   1.189  0.00  0.00    +0.026 A 
ATOM     16  C   UNL     1      -0.614   2.085   1.185  0.00  0.00    +0.010 A 
ATOM     17  C   UNL     1      -1.210   1.728  -0.024  0.00  0.00    -0.018 A 
ATOM     18  C   UNL     1      -0.619   2.099  -1.232  0.00  0.00    +0.010 A 
ATOM     19  C   UNL     1       0.560   2.810  -1.232  0.00  0.00    +0.026 A 
BRANCH  17  20
ATOM     20  C   UNL     1      -2.477   0.957  -0.026  0.00  0.00    -0.018 A 
ATOM     21  C   UNL     1      -3.071   0.584   1.179  0.00  0.00    +0.008 A 
ATOM     22  C   UNL     1      -4.252  -0.129   1.171  0.00  0.00    +0.001 A 
ATOM     23  C   UNL     1      -4.842  -0.482  -0.030  0.00  0.00    +0.000 A 
ATOM     24  C   UNL     1      -4.255  -0.119  -1.229  0.00  0.00    +0.001 A 
ATOM     25  C   UNL     1      -3.076   0.598  -1.233  0.00  0.00    +0.008 A 
ENDBRANCH  17  20
ENDBRANCH  11  14
BRANCH   1  27
ATOM     26  N   UNL     1       4.866   4.241   0.935  0.00  0.00    -0.281 N 
ATOM     27  C   UNL     1       4.832   5.441   0.322  0.00  0.00    +0.253 C 
ATOM     28  O   UNL     1       5.849   6.099   0.217  0.00  0.00    -0.270 OA
ATOM     29  H   UNL     1       3.964   3.612   0.964  0.00  0.00    +0.155 HD
BRANCH  26  34
ATOM     30  C   UNL     1       9.663   2.433   3.363  0.00  0.00    +0.044 C 
ATOM     31  C   UNL     1       8.389   2.913   2.718  0.00  0.00    -0.050 A 
ATOM     32  C   UNL     1       7.167   2.602   3.287  0.00  0.00    +0.005 A 
ATOM     33  C   UNL     1       5.998   3.040   2.698  0.00  0.00    +0.023 A 
ATOM     34  C   UNL     1       6.049   3.795   1.533  0.00  0.00    +0.034 A 
ATOM     35  C   UNL     1       7.277   4.101   0.961  0.00  0.00    +0.023 A 
ATOM     36  C   UNL     1       8.443   3.664   1.558  0.00  0.00    +0.005 A 
ENDBRANCH  26  34
ENDBRANCH   1  27
BRANCH   4  37
ATOM     37  C   UNL     1       3.256   9.465  -2.688  0.00  0.00    +0.193 C 
BRANCH  37  38
ATOM     38  O   UNL     1       2.842  10.511  -3.568  0.00  0.00    -0.390 OA
ATOM     39  H   UNL     1       3.589  11.189  -4.007  0.00  0.00    +0.210 HD
ENDBRANCH  37  38
ENDBRANCH   4  37
TORSDOF 6
