REMARK  Name = ZINC09873780
REMARK  16 active torsions:
REMARK  status: ('A' for Active; 'I' for Inactive)
REMARK    1  A    between atoms: C_1  and  C_2
REMARK    2  A    between atoms: C_2  and  C_3
REMARK    3  A    between atoms: C_3  and  C_5
REMARK    4  A    between atoms: C_3  and  C_6
REMARK    5  A    between atoms: C_11  and  O_12
REMARK    6  A    between atoms: O_12  and  C_13
REMARK    7  A    between atoms: C_13  and  C_15
REMARK    8  A    between atoms: C_13  and  C_16
REMARK    9  A    between atoms: N_18  and  N_19
REMARK   10  A    between atoms: C_20  and  C_22
REMARK   11  A    between atoms: C_22  and  O_23
REMARK   12  A    between atoms: O_23  and  C_24
REMARK   13  A    between atoms: C_27  and  C_31
REMARK   14  A    between atoms: C_31  and  C_32
REMARK   15  A    between atoms: C_31  and  C_33
REMARK   16  A    between atoms: C_31  and  C_34
REMARK                            x       y       z     vdW  Elec       q    Type
REMARK                         _______ _______ _______ _____ _____    ______ ____
ROOT
ATOM      1  C   UNL     1       2.962   6.587   0.253  0.00  0.00    +0.270 C 
ATOM      2  O   UNL     1       4.091   6.171   0.408  0.00  0.00    -0.270 OA
ATOM      3  N   UNL     1       1.919   5.735   0.296  0.00  0.00    -0.231 N 
ATOM      4  H   UNL     1       1.016   6.068   0.172  0.00  0.00    +0.173 HD
ENDROOT
BRANCH   3   5
ATOM      5  N   UNL     1       2.138   4.370   0.521  0.00  0.00    -0.231 N 
ATOM      6  C   UNL     1       1.094   3.518   0.564  0.00  0.00    +0.267 C 
ATOM      7  O   UNL     1      -0.035   3.934   0.409  0.00  0.00    -0.271 OA
ATOM      8  H   UNL     1       3.040   4.037   0.644  0.00  0.00    +0.173 HD
BRANCH   6   9
ATOM      9  C   UNL     1       1.329   2.050   0.805  0.00  0.00    +0.326 C 
BRANCH   9  10
ATOM     10  O   UNL     1       0.077   1.360   0.807  0.00  0.00    -0.482 OA
BRANCH  10  11
ATOM     11  C   UNL     1       0.113   0.017   1.013  0.00  0.00    +0.135 A 
ATOM     12  C   UNL     1       1.327  -0.624   1.209  0.00  0.00    +0.047 A 
ATOM     13  C   UNL     1       1.360  -1.989   1.419  0.00  0.00    +0.008 A 
ATOM     14  C   UNL     1       0.184  -2.716   1.434  0.00  0.00    -0.041 A 
ATOM     15  C   UNL     1      -1.028  -2.080   1.239  0.00  0.00    +0.023 A 
ATOM     16  C   UNL     1      -1.067  -0.714   1.034  0.00  0.00    +0.060 A 
ATOM     17 BR   UNL     1      -2.725   0.157   0.774  0.00  0.00    -0.047 Br
BRANCH  14  18
ATOM     18  C   UNL     1       0.224  -4.205   1.663  0.00  0.00    -0.013 C 
ATOM     19  C   UNL     1       0.856  -4.495   3.026  0.00  0.00    +0.015 C 
ATOM     20  C   UNL     1      -1.200  -4.764   1.633  0.00  0.00    +0.015 C 
ATOM     21  C   UNL     1       1.056  -4.869   0.564  0.00  0.00    +0.015 C 
ENDBRANCH  14  18
ENDBRANCH  10  11
ENDBRANCH   9  10
ENDBRANCH   6   9
ENDBRANCH   3   5
BRANCH   1  22
ATOM     22  C   UNL     1       2.727   8.056   0.011  0.00  0.00    +0.257 C 
ATOM     23  C   UNL     1       1.942   8.646   1.185  0.00  0.00    +0.062 C 
BRANCH  22  24
ATOM     24  O   UNL     1       3.983   8.726  -0.106  0.00  0.00    -0.480 OA
BRANCH  24  30
ATOM     25  C   UNL     1       5.202  10.528  -1.069  0.00  0.00    -0.003 A 
ATOM     26  C   UNL     1       5.216  11.707  -1.789  0.00  0.00    +0.007 A 
ATOM     27  C   UNL     1       4.032  12.248  -2.255  0.00  0.00    +0.001 A 
ATOM     28  C   UNL     1       2.831  11.610  -2.002  0.00  0.00    +0.004 A 
ATOM     29  C   UNL     1       2.813  10.428  -1.288  0.00  0.00    +0.046 A 
ATOM     30  C   UNL     1       3.999   9.886  -0.814  0.00  0.00    +0.125 A 
BRANCH  25  31
ATOM     31  C   UNL     1       6.494   9.939  -0.562  0.00  0.00    +0.019 C 
ATOM     32  C   UNL     1       7.175  10.937   0.377  0.00  0.00    +0.012 C 
BRANCH  31  34
ATOM     33  C   UNL     1       8.675   8.928  -1.243  0.00  0.00    +0.004 C 
ATOM     34  C   UNL     1       7.417   9.640  -1.745  0.00  0.00    +0.004 C 
ENDBRANCH  31  34
ENDBRANCH  25  31
ENDBRANCH  24  30
ENDBRANCH  22  24
ENDBRANCH   1  22
TORSDOF 10
