REMARK  Name = ZINC28225607
REMARK  3 active torsions:
REMARK  status: ('A' for Active; 'I' for Inactive)
REMARK    1  A    between atoms: C_1  and  C_2
REMARK    2  A    between atoms: N_7  and  S_8
REMARK    3  A    between atoms: S_8  and  C_11
REMARK                            x       y       z     vdW  Elec       q    Type
REMARK                         _______ _______ _______ _____ _____    ______ ____
ROOT
ATOM      1  S   UNL     1       3.725   3.379  -0.016  0.00  0.00    +0.101 S 
ATOM      2  O   UNL     1       4.586   4.509  -0.045  0.00  0.00    -0.146 OA
ATOM      3  O   UNL     1       3.799   2.391   1.003  0.00  0.00    -0.146 OA
ENDROOT
BRANCH   1  10
ATOM      4  C   UNL     1      -2.598   1.228   0.020  0.00  0.00    +0.053 C 
ATOM      5  C   UNL     1      -1.186   1.753   0.017  0.00  0.00    +0.006 A 
ATOM      6  C   UNL     1      -0.013   1.076   0.008  0.00  0.00    +0.095 A 
ATOM      7  N   UNL     1       1.112   1.766   0.001  0.00  0.00    -0.339 N 
ATOM      8  C   UNL     1       1.103   3.086   0.008  0.00  0.00    +0.192 A 
ATOM      9  S   UNL     1      -0.597   3.439   0.026  0.00  0.00    -0.054 S 
ATOM     10  N   UNL     1       2.176   3.964   0.003  0.00  0.00    -0.103 NA
ATOM     11  H   UNL     1       2.079   1.242  -0.011  0.00  0.00    +0.167 HD
ENDBRANCH   1  10
BRANCH   1  12
ATOM     12  C   UNL     1       3.946   2.538  -1.549  0.00  0.00    +0.113 A 
ATOM     13  C   UNL     1       3.660   1.189  -1.644  0.00  0.00    +0.030 A 
ATOM     14  C   UNL     1       3.828   0.530  -2.848  0.00  0.00    +0.022 A 
ATOM     15  C   UNL     1       4.293   1.219  -3.954  0.00  0.00    +0.041 A 
ATOM     16  C   UNL     1       4.585   2.567  -3.856  0.00  0.00    +0.022 A 
ATOM     17  C   UNL     1       4.411   3.227  -2.654  0.00  0.00    +0.030 A 
ATOM     18 CL   UNL     1       4.510   0.390  -5.464  0.00  0.00    -0.084 Cl
ENDBRANCH   1  12
TORSDOF 2
