REMARK  Name = ZINC41586341
REMARK  11 active torsions:
REMARK  status: ('A' for Active; 'I' for Inactive)
REMARK    1  A    between atoms: C_1  and  C_2
REMARK    2  A    between atoms: C_2  and  O_3
REMARK    3  A    between atoms: O_3  and  C_4
REMARK    4  A    between atoms: C_4  and  C_6
REMARK    5  A    between atoms: N_11  and  C_13
REMARK    6  A    between atoms: C_13  and  C_14
REMARK    7  A    between atoms: C_15  and  O_34
REMARK    8  A    between atoms: C_17  and  C_33
REMARK    9  A    between atoms: C_22  and  C_23
REMARK   10  A    between atoms: C_28  and  O_29
REMARK   11  A    between atoms: O_29  and  C_30
REMARK                            x       y       z     vdW  Elec       q    Type
REMARK                         _______ _______ _______ _____ _____    ______ ____
ROOT
ATOM      1  C   UNL     1       3.225  -5.635  -5.089  0.00  0.00    +0.020 A 
ATOM      2  C   UNL     1       2.666  -5.801  -6.347  0.00  0.00    +0.122 A 
ATOM      3  C   UNL     1       3.402  -6.380  -7.377  0.00  0.00    +0.050 A 
ATOM      4  C   UNL     1       4.686  -6.791  -7.157  0.00  0.00    -0.033 A 
ATOM      5  C   UNL     1       5.261  -6.629  -5.896  0.00  0.00    +0.071 A 
ATOM      6  C   UNL     1       4.531  -6.042  -4.850  0.00  0.00    +0.145 A 
ATOM      7  O   UNL     1       5.294  -5.987  -3.737  0.00  0.00    -0.451 OA
ATOM      8  C   UNL     1       6.529  -6.502  -3.947  0.00  0.00    +0.176 C 
ATOM      9  C   UNL     1       7.527  -6.593  -3.031  0.00  0.00    +0.061 C 
ATOM     10  C   UNL     1       6.588  -6.957  -5.344  0.00  0.00    +0.232 C 
ATOM     11  O   UNL     1       7.529  -7.477  -5.919  0.00  0.00    -0.283 OA
ATOM     12  C   UNL     1       5.480  -7.418  -8.274  0.00  0.00    +0.045 C 
ENDROOT
BRANCH   9  13
ATOM     13  C   UNL     1       7.373  -5.964  -1.714  0.00  0.00    +0.020 A 
ATOM     14  C   UNL     1       6.104  -5.584  -1.258  0.00  0.00    +0.011 A 
ATOM     15  C   UNL     1       5.968  -4.994  -0.021  0.00  0.00    +0.001 A 
ATOM     16  C   UNL     1       7.081  -4.776   0.776  0.00  0.00    +0.004 A 
ATOM     17  C   UNL     1       8.338  -5.146   0.340  0.00  0.00    +0.046 A 
ATOM     18  C   UNL     1       8.496  -5.745  -0.899  0.00  0.00    +0.127 A 
BRANCH  18  19
ATOM     19  O   UNL     1       9.730  -6.115  -1.326  0.00  0.00    -0.495 OA
ATOM     20  C   UNL     1      10.825  -5.860  -0.443  0.00  0.00    +0.277 C 
ENDBRANCH  18  19
ENDBRANCH   9  13
BRANCH   2  21
ATOM     21  O   UNL     1       1.391  -5.397  -6.575  0.00  0.00    -0.506 OA
ATOM     22  H   UNL     1       1.317  -4.482  -6.878  0.00  0.00    +0.292 HD
ENDBRANCH   2  21
BRANCH   1  23
ATOM     23  C   UNL     1       2.417  -5.007  -3.983  0.00  0.00    -0.036 C 
BRANCH  23  28
ATOM     24  C   UNL     1       2.197  -1.449  -2.812  0.00  0.00    +0.081 C 
ATOM     25  C   UNL     1       1.672  -0.813  -4.103  0.00  0.00    +0.011 C 
ATOM     26  C   UNL     1       2.337  -1.495  -5.302  0.00  0.00    -0.018 C 
ATOM     27  C   UNL     1       2.064  -2.999  -5.244  0.00  0.00    -0.078 C 
ATOM     28  N   UNL     1       2.612  -3.552  -3.999  0.00  0.00    +0.383 N 
ATOM     29  C   UNL     1       1.930  -2.955  -2.845  0.00  0.00    -0.064 C 
ATOM     30  H   UNL     1       3.599  -3.346  -3.948  0.00  0.00    -0.081 HD
BRANCH  24  31
ATOM     31  C   UNL     1       1.493  -0.838  -1.628  0.00  0.00    +0.308 C 
ATOM     32  O   UNL     1       0.845  -1.536  -0.885  0.00  0.00    -0.251 OA
BRANCH  31  33
ATOM     33  O   UNL     1       1.586   0.481  -1.399  0.00  0.00    -0.465 OA
BRANCH  33  35
ATOM     34  C   UNL     1       1.113   2.503  -0.162  0.00  0.00    +0.048 C 
ATOM     35  C   UNL     1       0.892   0.992  -0.258  0.00  0.00    +0.229 C 
ENDBRANCH  33  35
ENDBRANCH  31  33
ENDBRANCH  24  31
ENDBRANCH  23  28
ENDBRANCH   1  23
TORSDOF 8
