REMARK  Name = ZINC01913270
REMARK  12 active torsions:
REMARK  status: ('A' for Active; 'I' for Inactive)
REMARK    1  A    between atoms: C_1  and  C_2
REMARK    2  A    between atoms: C_2  and  N_62
REMARK    3  A    between atoms: C_3  and  C_4
REMARK    4  A    between atoms: C_3  and  N_62
REMARK    5  A    between atoms: C_10  and  C_11
REMARK    6  A    between atoms: C_10  and  N_62
REMARK    7  A    between atoms: C_12  and  O_35
REMARK    8  A    between atoms: C_18  and  C_31
REMARK    9  A    between atoms: C_19  and  O_22
REMARK   10  A    between atoms: O_22  and  C_23
REMARK   11  A    between atoms: C_25  and  C_30
REMARK   12  A    between atoms: C_27  and  C_29
REMARK                            x       y       z     vdW  Elec       q    Type
REMARK                         _______ _______ _______ _____ _____    ______ ____
ROOT
ATOM      1  C   UNL     1      -0.546   7.534  -2.961  0.00  0.00    +0.020 A 
ATOM      2  C   UNL     1      -1.844   7.571  -3.441  0.00  0.00    +0.122 A 
ATOM      3  C   UNL     1      -2.098   7.893  -4.773  0.00  0.00    +0.046 A 
ATOM      4  C   UNL     1      -1.068   8.177  -5.623  0.00  0.00    +0.019 A 
ATOM      5  C   UNL     1       0.246   8.143  -5.154  0.00  0.00    +0.068 A 
ATOM      6  C   UNL     1       0.511   7.825  -3.810  0.00  0.00    +0.144 A 
ATOM      7  O   UNL     1       1.785   7.801  -3.367  0.00  0.00    -0.447 OA
ATOM      8  C   UNL     1       2.827   8.077  -4.162  0.00  0.00    +0.254 A 
ATOM      9  C   UNL     1       2.687   8.399  -5.463  0.00  0.00    +0.222 A 
ATOM     10  C   UNL     1       1.385   8.443  -6.039  0.00  0.00    +0.235 A 
ATOM     11  O   UNL     1       1.219   8.731  -7.213  0.00  0.00    -0.283 OA
ENDROOT
BRANCH   8  12
ATOM     12  C   UNL     1       4.215   8.026  -3.576  0.00  0.00    +0.454 C 
ATOM     13  F   UNL     1       4.554   9.285  -3.070  0.00  0.00    -0.163 F 
ATOM     14  F   UNL     1       4.250   7.083  -2.543  0.00  0.00    -0.163 F 
ATOM     15  F   UNL     1       5.128   7.662  -4.572  0.00  0.00    -0.163 F 
ENDBRANCH   8  12
BRANCH   2  16
ATOM     16  O   UNL     1      -2.879   7.291  -2.608  0.00  0.00    -0.506 OA
ATOM     17  H   UNL     1      -3.234   8.064  -2.149  0.00  0.00    +0.292 HD
ENDBRANCH   2  16
BRANCH   1  18
ATOM     18  C   UNL     1      -0.283   7.184  -1.518  0.00  0.00    -0.035 C 
BRANCH  18  19
ATOM     19  N   UNL     1      -0.133   5.718  -1.403  0.00  0.00    +0.385 N 
ATOM     20  H   UNL     1      -0.938   5.264  -1.849  0.00  0.00    -0.081 HD
BRANCH  19  22
ATOM     21  C   UNL     1       1.028   3.772  -2.320  0.00  0.00    -0.017 C 
ATOM     22  C   UNL     1       1.103   5.282  -2.086  0.00  0.00    -0.081 C 
ENDBRANCH  19  22
BRANCH  19  23
ATOM     23  C   UNL     1      -0.089   5.325   0.021  0.00  0.00    -0.043 C 
BRANCH  23  24
ATOM     24  C   UNL     1      -1.492   5.348   0.572  0.00  0.00    -0.064 A 
ATOM     25  C   UNL     1      -2.322   4.258   0.394  0.00  0.00    +0.002 A 
ATOM     26  C   UNL     1      -3.608   4.279   0.899  0.00  0.00    +0.000 A 
ATOM     27  C   UNL     1      -4.064   5.391   1.583  0.00  0.00    +0.000 A 
ATOM     28  C   UNL     1      -3.236   6.483   1.756  0.00  0.00    +0.000 A 
ATOM     29  C   UNL     1      -1.948   6.460   1.255  0.00  0.00    +0.002 A 
ENDBRANCH  23  24
ENDBRANCH  19  23
ENDBRANCH  18  19
ENDBRANCH   1  18
BRANCH   9  30
ATOM     30  O   UNL     1       3.782   8.670  -6.224  0.00  0.00    -0.448 OA
BRANCH  30  31
ATOM     31  C   UNL     1       4.377   7.637  -6.876  0.00  0.00    +0.129 A 
ATOM     32  C   UNL     1       3.869   6.352  -6.752  0.00  0.00    +0.049 A 
ATOM     33  C   UNL     1       4.472   5.305  -7.421  0.00  0.00    -0.047 A 
ATOM     34  C   UNL     1       5.587   5.534  -8.205  0.00  0.00    +0.007 A 
ATOM     35  C   UNL     1       6.099   6.813  -8.326  0.00  0.00    -0.047 A 
ATOM     36  C   UNL     1       5.496   7.865  -7.664  0.00  0.00    +0.049 A 
ATOM     37  C   UNL     1       7.315   7.060  -9.181  0.00  0.00    +0.044 C 
ATOM     38  C   UNL     1       3.917   3.909  -7.292  0.00  0.00    +0.044 C 
ENDBRANCH  30  31
ENDBRANCH   9  30
TORSDOF 9
