REMARK  Name = ZINC34774412
REMARK  10 active torsions:
REMARK  status: ('A' for Active; 'I' for Inactive)
REMARK    1  A    between atoms: C_1  and  C_2
REMARK    2  A    between atoms: C_5  and  C_35
REMARK    3  A    between atoms: C_6  and  C_8
REMARK    4  A    between atoms: C_8  and  N_9
REMARK    5  A    between atoms: C_17  and  C_29
REMARK    6  A    between atoms: C_22  and  S_24
REMARK    7  A    between atoms: S_24  and  C_25
REMARK    8  A    between atoms: C_25  and  C_26
REMARK    9  A    between atoms: C_26  and  C_27
REMARK   10  A    between atoms: C_26  and  C_28
REMARK                            x       y       z     vdW  Elec       q    Type
REMARK                         _______ _______ _______ _____ _____    ______ ____
ROOT
ATOM      1  N   UNL     1       3.261  -4.058   1.360  0.00  0.00    +0.384 N 
ATOM      2  C   UNL     1       4.330  -4.994   1.730  0.00  0.00    -0.059 C 
ATOM      3  C   UNL     1       4.220  -5.330   3.221  0.00  0.00    +0.088 C 
ATOM      4  N   UNL     1       4.224  -4.072   3.984  0.00  0.00    -0.318 N 
ATOM      5  C   UNL     1       3.292  -3.010   3.574  0.00  0.00    +0.088 C 
ATOM      6  C   UNL     1       3.445  -2.784   2.067  0.00  0.00    -0.059 C 
ATOM      7  C   UNL     1       5.079  -3.893   5.056  0.00  0.00    +0.134 A 
ATOM      8  C   UNL     1       4.828  -4.548   6.292  0.00  0.00    +0.055 A 
ATOM      9  C   UNL     1       3.740  -5.448   6.662  0.00  0.00    +0.002 A 
ATOM     10  C   UNL     1       3.712  -5.954   7.917  0.00  0.00    +0.056 A 
ATOM     11  S   UNL     1       5.157  -5.247   8.683  0.00  0.00    -0.076 S 
ATOM     12  C   UNL     1       5.763  -4.295   7.315  0.00  0.00    +0.115 A 
ATOM     13  N   UNL     1       6.799  -3.500   7.122  0.00  0.00    -0.215 NA
ATOM     14  C   UNL     1       6.984  -2.916   5.946  0.00  0.00    +0.191 A 
ATOM     15  N   UNL     1       6.143  -3.115   4.938  0.00  0.00    -0.206 NA
ATOM     16  H   UNL     1       2.368  -4.454   1.611  0.00  0.00    -0.081 HD
ENDROOT
BRANCH   9  17
ATOM     17  C   UNL     1       2.685  -5.800   5.683  0.00  0.00    -0.017 A 
ATOM     18  C   UNL     1       1.886  -4.802   5.125  0.00  0.00    +0.008 A 
ATOM     19  C   UNL     1       0.906  -5.136   4.213  0.00  0.00    +0.001 A 
ATOM     20  C   UNL     1       0.714  -6.458   3.852  0.00  0.00    +0.000 A 
ATOM     21  C   UNL     1       1.504  -7.452   4.402  0.00  0.00    +0.001 A 
ATOM     22  C   UNL     1       2.491  -7.130   5.310  0.00  0.00    +0.008 A 
ENDBRANCH   9  17
BRANCH   1  23
ATOM     23  C   UNL     1       3.300  -3.821  -0.090  0.00  0.00    -0.043 C 
BRANCH  23  29
ATOM     24  C   UNL     1       4.848  -7.870  -2.591  0.00  0.00    +0.044 C 
ATOM     25  C   UNL     1       3.730  -7.041  -2.013  0.00  0.00    -0.050 A 
ATOM     26  C   UNL     1       2.419  -7.458  -2.150  0.00  0.00    +0.003 A 
ATOM     27  C   UNL     1       1.393  -6.698  -1.620  0.00  0.00    +0.004 A 
ATOM     28  C   UNL     1       1.678  -5.521  -0.954  0.00  0.00    -0.049 A 
ATOM     29  C   UNL     1       2.989  -5.105  -0.816  0.00  0.00    -0.061 A 
ATOM     30  C   UNL     1       4.015  -5.867  -1.342  0.00  0.00    +0.005 A 
ATOM     31  C   UNL     1       0.560  -4.692  -0.377  0.00  0.00    +0.044 C 
ENDBRANCH  23  29
ENDBRANCH   1  23
BRANCH  14  32
ATOM     32  S   UNL     1       8.375  -1.859   5.715  0.00  0.00    -0.086 S 
BRANCH  32  33
ATOM     33  C   UNL     1       9.222  -1.892   7.318  0.00  0.00    +0.080 C 
BRANCH  33  34
ATOM     34  C   UNL     1      10.466  -1.003   7.256  0.00  0.00    -0.007 C 
ATOM     35  C   UNL     1      10.043   0.453   7.052  0.00  0.00    +0.008 C 
ATOM     36  C   UNL     1      11.248  -1.128   8.566  0.00  0.00    +0.008 C 
ENDBRANCH  33  34
ENDBRANCH  32  33
ENDBRANCH  14  32
TORSDOF 6
