REMARK  Name = ZINC21252101
REMARK  8 active torsions:
REMARK  status: ('A' for Active; 'I' for Inactive)
REMARK    1  A    between atoms: C_1  and  C_2
REMARK    2  A    between atoms: C_2  and  C_3
REMARK    3  A    between atoms: C_2  and  O_4
REMARK    4  A    between atoms: O_4  and  C_5
REMARK    5  A    between atoms: C_8  and  C_13
REMARK    6  A    between atoms: C_10  and  O_11
REMARK    7  A    between atoms: O_11  and  C_12
REMARK    8  A    between atoms: C_18  and  C_28
REMARK                            x       y       z     vdW  Elec       q    Type
REMARK                         _______ _______ _______ _____ _____    ______ ____
ROOT
ATOM      1  C   UNL     1      -3.185  -0.311  -0.575  0.00  0.00    +0.032 C 
ATOM      2  C   UNL     1      -3.002  -0.956  -1.948  0.00  0.00    +0.059 C 
ATOM      3  C   UNL     1      -4.311  -1.572  -2.409  0.00  0.00    +0.017 C 
ATOM      4  C   UNL     1      -5.175  -2.087  -1.517  0.00  0.00    +0.037 C 
ATOM      5  C   UNL     1      -6.503  -2.730  -1.837  0.00  0.00    +0.140 C 
ATOM      6  N   UNL     1      -6.712  -3.009  -3.242  0.00  0.00    -0.331 N 
ATOM      7  C   UNL     1      -6.799  -1.976  -4.174  0.00  0.00    +0.049 A 
ATOM      8  C   UNL     1      -7.986  -1.693  -4.829  0.00  0.00    +0.025 A 
ATOM      9  C   UNL     1      -8.057  -0.588  -5.660  0.00  0.00    +0.002 A 
ATOM     10  C   UNL     1      -6.953   0.227  -5.837  0.00  0.00    +0.002 A 
ATOM     11  C   UNL     1      -5.759  -0.067  -5.201  0.00  0.00    +0.025 A 
ATOM     12  C   UNL     1      -5.682  -1.182  -4.384  0.00  0.00    +0.052 A 
ATOM     13  N   UNL     1      -4.503  -1.561  -3.753  0.00  0.00    -0.316 N 
ATOM     14  C   UNL     1      -4.879  -2.043  -0.134  0.00  0.00    +0.163 C 
ATOM     15  O   UNL     1      -5.665  -2.539   0.650  0.00  0.00    -0.292 OA
ATOM     16  C   UNL     1      -3.631  -1.407   0.400  0.00  0.00    +0.088 C 
ATOM     17  H   UNL     1      -6.804  -4.049  -3.588  0.00  0.00    +0.147 HD
ATOM     18  H   UNL     1      -3.690  -1.868  -4.427  0.00  0.00    +0.152 HD
ENDROOT
BRANCH   5  19
ATOM     19  C   UNL     1      -7.602  -1.815  -1.363  0.00  0.00    +0.031 A 
ATOM     20  C   UNL     1      -7.320  -0.496  -1.052  0.00  0.00    +0.130 A 
ATOM     21  C   UNL     1      -8.332   0.344  -0.617  0.00  0.00    +0.039 A 
ATOM     22  C   UNL     1      -9.622  -0.135  -0.494  0.00  0.00    +0.004 A 
ATOM     23  C   UNL     1      -9.904  -1.452  -0.805  0.00  0.00    +0.020 A 
ATOM     24  C   UNL     1      -8.895  -2.291  -1.245  0.00  0.00    +0.049 A 
ATOM     25 CL   UNL     1      -9.252  -3.943  -1.642  0.00  0.00    -0.083 Cl
ATOM     26  F   UNL     1      -6.059  -0.028  -1.173  0.00  0.00    -0.205 F 
ENDBRANCH   5  19
BRANCH   1  30
ATOM     27  C   UNL     1       0.521   1.375   0.733  0.00  0.00    +0.162 A 
ATOM     28  C   UNL     1       0.434   0.021   0.451  0.00  0.00    +0.050 A 
ATOM     29  C   UNL     1      -0.766  -0.521   0.032  0.00  0.00    +0.008 A 
ATOM     30  C   UNL     1      -1.880   0.285  -0.112  0.00  0.00    -0.040 A 
ATOM     31  C   UNL     1      -1.801   1.635   0.172  0.00  0.00    +0.053 A 
ATOM     32  C   UNL     1      -0.601   2.186   0.593  0.00  0.00    +0.162 A 
BRANCH  32  33
ATOM     33  O   UNL     1      -0.521   3.515   0.868  0.00  0.00    -0.491 OA
ATOM     34  C   UNL     1      -1.713   4.285   0.702  0.00  0.00    +0.277 C 
ENDBRANCH  32  33
BRANCH  27  35
ATOM     35  O   UNL     1       1.701   1.911   1.145  0.00  0.00    -0.486 OA
BRANCH  35  37
ATOM     36  C   UNL     1       3.464   0.896  -0.160  0.00  0.00    +0.051 C 
ATOM     37  C   UNL     1       2.822   1.028   1.223  0.00  0.00    +0.167 C 
ATOM     38  C   UNL     1       3.848   1.591   2.209  0.00  0.00    +0.051 C 
ENDBRANCH  35  37
ENDBRANCH  27  35
ENDBRANCH   1  30
TORSDOF 5
