REMARK  Name = ZINC10455185
REMARK  5 active torsions:
REMARK  status: ('A' for Active; 'I' for Inactive)
REMARK    1  A    between atoms: C_7  and  C_20
REMARK    2  A    between atoms: N_9  and  C_10
REMARK    3  A    between atoms: C_10  and  C_11
REMARK    4  A    between atoms: C_20  and  C_22
REMARK    5  A    between atoms: N_24  and  C_25
REMARK                            x       y       z     vdW  Elec       q    Type
REMARK                         _______ _______ _______ _____ _____    ______ ____
ROOT
ATOM      1  C   UNL     1      -0.113  -4.941   2.977  0.00  0.00    +0.001 A 
ATOM      2  C   UNL     1      -0.331  -3.635   3.390  0.00  0.00    +0.002 A 
ATOM      3  C   UNL     1      -0.626  -2.648   2.474  0.00  0.00    +0.026 A 
ATOM      4  C   UNL     1      -0.707  -2.959   1.120  0.00  0.00    +0.050 A 
ATOM      5  C   UNL     1      -0.485  -4.281   0.704  0.00  0.00    +0.011 A 
ATOM      6  C   UNL     1      -0.188  -5.268   1.640  0.00  0.00    +0.011 A 
ATOM      7  C   UNL     1      -0.642  -4.273  -0.763  0.00  0.00    +0.052 A 
ATOM      8  C   UNL     1      -0.946  -2.970  -1.110  0.00  0.00    +0.099 A 
ATOM      9  N   UNL     1      -0.978  -2.205  -0.005  0.00  0.00    -0.337 N 
ENDROOT
BRANCH   7  10
ATOM     10  C   UNL     1      -0.508  -5.415  -1.667  0.00  0.00    +0.250 C 
ATOM     11  O   UNL     1      -0.241  -6.514  -1.222  0.00  0.00    -0.282 OA
BRANCH  10  12
ATOM     12  C   UNL     1      -0.700  -5.231  -3.134  0.00  0.00    +0.289 C 
ATOM     13  O   UNL     1      -0.968  -4.133  -3.578  0.00  0.00    -0.266 OA
ATOM     14  N   UNL     1      -0.578  -6.284  -3.967  0.00  0.00    -0.278 N 
ATOM     15  H   UNL     1      -0.301  -7.146  -3.620  0.00  0.00    +0.155 HD
BRANCH  14  16
ATOM     16  C   UNL     1      -0.849  -6.132  -5.329  0.00  0.00    +0.052 A 
ATOM     17  C   UNL     1      -0.545  -4.938  -5.971  0.00  0.00    +0.025 A 
ATOM     18  C   UNL     1      -0.810  -4.793  -7.319  0.00  0.00    +0.002 A 
ATOM     19  C   UNL     1      -1.388  -5.831  -8.027  0.00  0.00    +0.002 A 
ATOM     20  C   UNL     1      -1.697  -7.019  -7.391  0.00  0.00    +0.022 A 
ATOM     21  C   UNL     1      -1.430  -7.173  -6.044  0.00  0.00    +0.062 A 
ATOM     22 CL   UNL     1      -1.819  -8.665  -5.246  0.00  0.00    -0.082 Cl
ENDBRANCH  14  16
ENDBRANCH  10  12
ENDBRANCH   7  10
BRANCH   9  23
ATOM     23  C   UNL     1      -1.265  -0.768   0.005  0.00  0.00    +0.217 C 
BRANCH  23  24
ATOM     24  C   UNL     1       0.029   0.004  -0.014  0.00  0.00    +0.235 C 
ATOM     25  O   UNL     1       1.087  -0.588  -0.034  0.00  0.00    -0.274 OA
ATOM     26  N   UNL     1       0.010   1.351  -0.009  0.00  0.00    -0.300 N 
ATOM     27  C   UNL     1      -1.268   2.026   0.009  0.00  0.00    +0.108 C 
ATOM     28  C   UNL     1      -1.761   2.258  -1.435  0.00  0.00    +0.019 C 
ATOM     29  C   UNL     1      -0.948   3.293  -2.091  0.00  0.00    +0.002 C 
ATOM     30  C   UNL     1       0.526   2.930  -2.247  0.00  0.00    +0.002 C 
ATOM     31  C   UNL     1       1.265   3.286  -0.980  0.00  0.00    +0.019 C 
ATOM     32  C   UNL     1       1.295   2.077  -0.028  0.00  0.00    +0.108 C 
ENDBRANCH  23  24
ENDBRANCH   9  23
TORSDOF 5
