REMARK  Name = ZINC09332036
REMARK  9 active torsions:
REMARK  status: ('A' for Active; 'I' for Inactive)
REMARK    1  A    between atoms: C_1  and  O_2
REMARK    2  A    between atoms: O_2  and  C_3
REMARK    3  A    between atoms: C_8  and  N_9
REMARK    4  A    between atoms: C_24  and  C_30
REMARK    5  A    between atoms: C_30  and  C_32
REMARK    6  A    between atoms: C_35  and  O_40
REMARK    7  A    between atoms: C_36  and  O_38
REMARK    8  A    between atoms: O_38  and  C_39
REMARK    9  A    between atoms: O_40  and  C_41
REMARK                            x       y       z     vdW  Elec       q    Type
REMARK                         _______ _______ _______ _____ _____    ______ ____
ROOT
ATOM      1  N   UNL     1       1.968   0.895   0.757  0.00  0.00    -0.206 N 
ATOM      2  C   UNL     1       1.389   1.883  -0.001  0.00  0.00    +0.232 C 
ATOM      3  O   UNL     1       1.941   2.808  -0.558  0.00  0.00    -0.274 OA
ATOM      4  C   UNL     1      -0.019   1.576   0.011  0.00  0.00    +0.113 C 
ATOM      5  C   UNL     1      -1.255   1.871  -0.742  0.00  0.00    +0.100 C 
ATOM      6  C   UNL     1      -1.796   3.250  -0.438  0.00  0.00    -0.021 A 
ATOM      7  C   UNL     1      -0.940   4.330  -0.407  0.00  0.00    +0.006 A 
ATOM      8  C   UNL     1      -1.429   5.598  -0.145  0.00  0.00    +0.000 A 
ATOM      9  C   UNL     1      -2.780   5.790   0.084  0.00  0.00    +0.001 A 
ATOM     10  C   UNL     1      -3.646   4.718   0.061  0.00  0.00    +0.008 A 
ATOM     11  C   UNL     1      -3.157   3.433  -0.193  0.00  0.00    -0.019 A 
ATOM     12  C   UNL     1      -4.082   2.283  -0.170  0.00  0.00    +0.022 C 
ATOM     13  C   UNL     1      -3.582   1.038  -0.152  0.00  0.00    +0.054 C 
ATOM     14  C   UNL     1      -1.441  -0.229   0.455  0.00  0.00    +0.141 C 
ATOM     15  C   UNL     1       0.002  -0.004   0.002  0.00  0.00    +0.116 C 
ATOM     16  C   UNL     1       1.121  -0.149   0.999  0.00  0.00    +0.232 C 
ATOM     17  O   UNL     1       1.244  -1.012   1.841  0.00  0.00    -0.274 OA
ATOM     18  N   UNL     1      -2.125   0.687  -0.447  0.00  0.00    -0.384 NA
ATOM     19  H   UNL     1      -2.174   0.167  -1.331  0.00  0.00    +0.127 HD
ENDROOT
BRANCH   1  25
ATOM     20  C   UNL     1       3.559   1.530   2.470  0.00  0.00    +0.142 A 
ATOM     21  C   UNL     1       4.863   1.579   2.937  0.00  0.00    +0.047 A 
ATOM     22  C   UNL     1       5.891   1.065   2.170  0.00  0.00    +0.004 A 
ATOM     23  C   UNL     1       5.623   0.496   0.939  0.00  0.00    +0.002 A 
ATOM     24  C   UNL     1       4.325   0.438   0.469  0.00  0.00    +0.027 A 
ATOM     25  C   UNL     1       3.287   0.952   1.233  0.00  0.00    +0.085 A 
BRANCH  20  27
ATOM     26  C   UNL     1       2.900   2.618   4.479  0.00  0.00    +0.277 C 
ATOM     27  O   UNL     1       2.547   2.041   3.221  0.00  0.00    -0.493 OA
ENDBRANCH  20  27
ENDBRANCH   1  25
BRANCH  14  28
ATOM     28  C   UNL     1      -1.530  -0.180   1.959  0.00  0.00    +0.183 C 
ATOM     29  O   UNL     1      -2.003   0.793   2.507  0.00  0.00    -0.290 OA
BRANCH  28  30
ATOM     30  C   UNL     1      -1.045  -1.311   2.761  0.00  0.00    +0.023 A 
ATOM     31  C   UNL     1      -0.499  -2.435   2.130  0.00  0.00    +0.015 A 
ATOM     32  C   UNL     1      -0.045  -3.494   2.884  0.00  0.00    +0.050 A 
ATOM     33  C   UNL     1      -0.127  -3.450   4.270  0.00  0.00    +0.162 A 
ATOM     34  C   UNL     1      -0.670  -2.333   4.906  0.00  0.00    +0.162 A 
ATOM     35  C   UNL     1      -1.122  -1.265   4.158  0.00  0.00    +0.060 A 
BRANCH  34  36
ATOM     36  O   UNL     1      -0.748  -2.295   6.263  0.00  0.00    -0.491 OA
ATOM     37  C   UNL     1      -1.315  -1.121   6.847  0.00  0.00    +0.277 C 
ENDBRANCH  34  36
BRANCH  33  38
ATOM     38  O   UNL     1       0.321  -4.498   5.008  0.00  0.00    -0.491 OA
ATOM     39  C   UNL     1       0.865  -5.609   4.293  0.00  0.00    +0.277 C 
ENDBRANCH  33  38
ENDBRANCH  28  30
ENDBRANCH  14  28
TORSDOF 6
