REMARK  Name = ZINC09508474
REMARK  11 active torsions:
REMARK  status: ('A' for Active; 'I' for Inactive)
REMARK    1  A    between atoms: C_1  and  C_2
REMARK    2  A    between atoms: C_2  and  C_4
REMARK    3  A    between atoms: C_2  and  O_17
REMARK    4  A    between atoms: N_6  and  C_7
REMARK    5  A    between atoms: C_7  and  C_8
REMARK    6  A    between atoms: O_17  and  C_18
REMARK    7  A    between atoms: C_18  and  C_20
REMARK    8  A    between atoms: C_25  and  N_26
REMARK    9  A    between atoms: N_26  and  S_27
REMARK   10  A    between atoms: S_27  and  C_30
REMARK   11  A    between atoms: C_34  and  N_36
REMARK                            x       y       z     vdW  Elec       q    Type
REMARK                         _______ _______ _______ _____ _____    ______ ____
ROOT
ATOM      1  C   UNL     1      -0.879   5.370  -3.715  0.00  0.00    +0.081 A 
ATOM      2  C   UNL     1      -1.942   4.991  -4.541  0.00  0.00    +0.017 A 
ATOM      3  C   UNL     1      -3.227   4.980  -4.046  0.00  0.00    +0.001 A 
ATOM      4  C   UNL     1      -3.474   5.339  -2.730  0.00  0.00    +0.002 A 
ATOM      5  C   UNL     1      -2.436   5.712  -1.900  0.00  0.00    +0.025 A 
ATOM      6  C   UNL     1      -1.132   5.729  -2.381  0.00  0.00    +0.062 A 
ENDROOT
BRANCH   1   7
ATOM      7  C   UNL     1       0.497   5.390  -4.239  0.00  0.00    +0.342 C 
ATOM      8  O   UNL     1       1.418   5.717  -3.517  0.00  0.00    -0.245 OA
BRANCH   7   9
ATOM      9  O   UNL     1       0.735   5.045  -5.520  0.00  0.00    -0.449 OA
BRANCH   9  11
ATOM     10  C   UNL     1       2.427   6.476  -6.529  0.00  0.00    +0.062 C 
ATOM     11  C   UNL     1       2.115   5.087  -5.969  0.00  0.00    +0.259 C 
BRANCH  11  12
ATOM     12  C   UNL     1       2.326   4.053  -7.045  0.00  0.00    +0.254 C 
ATOM     13  O   UNL     1       1.385   3.413  -7.463  0.00  0.00    -0.272 OA
ATOM     14  N   UNL     1       3.560   3.840  -7.542  0.00  0.00    -0.308 N 
ATOM     15  H   UNL     1       4.313   4.352  -7.208  0.00  0.00    +0.149 HD
BRANCH  14  16
ATOM     16  C   UNL     1       3.765   2.835  -8.588  0.00  0.00    +0.139 C 
BRANCH  16  17
ATOM     17  C   UNL     1       5.223   2.794  -8.967  0.00  0.00    -0.027 A 
ATOM     18  C   UNL     1       5.694   3.604  -9.983  0.00  0.00    +0.009 A 
ATOM     19  C   UNL     1       7.032   3.574 -10.331  0.00  0.00    +0.050 A 
ATOM     20  C   UNL     1       7.901   2.722  -9.669  0.00  0.00    +0.166 A 
ATOM     21  C   UNL     1       7.425   1.902  -8.649  0.00  0.00    +0.167 A 
ATOM     22  C   UNL     1       6.084   1.942  -8.302  0.00  0.00    +0.054 A 
ATOM     23  O   UNL     1       8.465   1.166  -8.160  0.00  0.00    -0.453 OA
ATOM     24  C   UNL     1       9.496   1.244  -9.162  0.00  0.00    +0.466 C 
ATOM     25  O   UNL     1       9.240   2.499  -9.819  0.00  0.00    -0.453 OA
ENDBRANCH  16  17
ENDBRANCH  14  16
ENDBRANCH  11  12
ENDBRANCH   9  11
ENDBRANCH   7   9
ENDBRANCH   1   7
BRANCH   6  26
ATOM     26  N   UNL     1      -0.086   6.104  -1.549  0.00  0.00    -0.215 N 
ATOM     27  H   UNL     1       0.663   6.604  -1.907  0.00  0.00    +0.174 HD
BRANCH  26  28
ATOM     28  S   UNL     1      -0.118   5.697   0.056  0.00  0.00    +0.072 S 
ATOM     29  O   UNL     1      -1.358   6.165   0.569  0.00  0.00    -0.150 OA
ATOM     30  O   UNL     1       1.131   6.097   0.601  0.00  0.00    -0.150 OA
BRANCH  28  31
ATOM     31  C   UNL     1      -0.168   3.938   0.146  0.00  0.00    +0.110 A 
ATOM     32  C   UNL     1       1.011   3.216   0.197  0.00  0.00    +0.029 A 
ATOM     33  C   UNL     1       0.977   1.835   0.268  0.00  0.00    +0.004 A 
ATOM     34  C   UNL     1      -0.235   1.173   0.288  0.00  0.00    +0.023 A 
ATOM     35  C   UNL     1      -1.420   1.895   0.231  0.00  0.00    +0.026 A 
ATOM     36  C   UNL     1      -1.383   3.282   0.166  0.00  0.00    +0.051 A 
BRANCH  35  37
ATOM     37  N   UNL     1      -2.647   1.228   0.245  0.00  0.00    -0.358 N 
ATOM     38  H   UNL     1      -2.673   0.259   0.294  0.00  0.00    +0.142 HD
ATOM     39  H   UNL     1      -3.474   1.733   0.205  0.00  0.00    +0.142 HD
ENDBRANCH  35  37
ENDBRANCH  28  31
ENDBRANCH  26  28
ENDBRANCH   6  26
TORSDOF 10
