REMARK  Name = ZINC09350537
REMARK  15 active torsions:
REMARK  status: ('A' for Active; 'I' for Inactive)
REMARK    1  A    between atoms: C_1  and  C_2
REMARK    2  A    between atoms: C_2  and  N_66
REMARK    3  A    between atoms: C_3  and  C_4
REMARK    4  A    between atoms: C_3  and  N_66
REMARK    5  A    between atoms: C_5  and  C_6
REMARK    6  A    between atoms: C_5  and  N_66
REMARK    7  A    between atoms: C_6  and  N_7
REMARK    8  A    between atoms: C_8  and  C_27
REMARK    9  A    between atoms: C_11  and  C_12
REMARK   10  A    between atoms: C_11  and  O_22
REMARK   11  A    between atoms: C_15  and  O_18
REMARK   12  A    between atoms: O_18  and  C_19
REMARK   13  A    between atoms: C_19  and  C_20
REMARK   14  A    between atoms: C_19  and  C_21
REMARK   15  A    between atoms: C_30  and  N_33
REMARK                            x       y       z     vdW  Elec       q    Type
REMARK                         _______ _______ _______ _____ _____    ______ ____
ROOT
ATOM      1  N   UNL     1      -2.187   5.704   0.221  0.00  0.00    -0.285 N 
ATOM      2  C   UNL     1      -2.750   4.363   0.045  0.00  0.00    +0.144 C 
ATOM      3  C   UNL     1      -1.597   3.392   0.150  0.00  0.00    +0.071 C 
ATOM      4  C   UNL     1      -1.659   2.015   0.050  0.00  0.00    +0.133 C 
ATOM      5  C   UNL     1      -0.450   4.170   0.364  0.00  0.00    +0.249 C 
ATOM      6  O   UNL     1       0.685   3.749   0.496  0.00  0.00    -0.282 OA
ATOM      7  C   UNL     1      -0.860   5.600   0.401  0.00  0.00    +0.288 C 
ATOM      8  O   UNL     1      -0.105   6.536   0.569  0.00  0.00    -0.266 OA
ENDROOT
BRANCH   4   9
ATOM      9  C   UNL     1      -0.426   1.216   0.124  0.00  0.00    +0.017 A 
ATOM     10  C   UNL     1       0.642   1.491  -0.739  0.00  0.00    +0.015 A 
ATOM     11  C   UNL     1       1.791   0.737  -0.669  0.00  0.00    +0.046 A 
ATOM     12  C   UNL     1       1.893  -0.296   0.256  0.00  0.00    +0.121 A 
ATOM     13  C   UNL     1       0.834  -0.573   1.115  0.00  0.00    +0.046 A 
ATOM     14  C   UNL     1      -0.319   0.175   1.054  0.00  0.00    +0.015 A 
BRANCH  12  15
ATOM     15  O   UNL     1       3.028  -1.036   0.321  0.00  0.00    -0.489 OA
BRANCH  15  16
ATOM     16  C   UNL     1       3.022  -2.157   1.208  0.00  0.00    +0.167 C 
ATOM     17  C   UNL     1       4.046  -3.189   0.733  0.00  0.00    +0.051 C 
ATOM     18  C   UNL     1       3.384  -1.692   2.620  0.00  0.00    +0.051 C 
ENDBRANCH  15  16
ENDBRANCH  12  15
ENDBRANCH   4   9
BRANCH   2  19
ATOM     19  C   UNL     1      -3.759   4.085   1.130  0.00  0.00    -0.022 A 
ATOM     20  C   UNL     1      -3.523   4.518   2.421  0.00  0.00    +0.008 A 
ATOM     21  C   UNL     1      -4.451   4.267   3.415  0.00  0.00    +0.033 A 
ATOM     22  C   UNL     1      -5.610   3.574   3.119  0.00  0.00    +0.126 A 
ATOM     23  C   UNL     1      -5.843   3.136   1.829  0.00  0.00    +0.033 A 
ATOM     24  C   UNL     1      -4.918   3.392   0.834  0.00  0.00    +0.008 A 
BRANCH  22  25
ATOM     25  N   UNL     1      -6.601   3.301   4.184  0.00  0.00    +0.056 N 
ATOM     26  O   UNL     1      -7.622   2.690   3.924  0.00  0.00    -0.126 OA
ATOM     27  O   UNL     1      -6.395   3.687   5.321  0.00  0.00    -0.126 OA
ENDBRANCH  22  25
ENDBRANCH   2  19
BRANCH   4  28
ATOM     28  O   UNL     1      -2.851   1.404  -0.115  0.00  0.00    -0.506 OA
ATOM     29  H   UNL     1      -2.714   0.414  -0.168  0.00  0.00    +0.292 HD
ENDBRANCH   4  28
BRANCH   1  30
ATOM     30  C   UNL     1      -2.947   6.957   0.196  0.00  0.00    +0.090 C 
BRANCH  30  31
ATOM     31  C   UNL     1      -3.010   7.487  -1.238  0.00  0.00    -0.060 C 
BRANCH  31  32
ATOM     32  N   UNL     1      -3.797   8.738  -1.249  0.00  0.00    +0.380 N 
ATOM     33  H   UNL     1      -4.694   8.572  -0.778  0.00  0.00    -0.082 HD
BRANCH  32  35
ATOM     34  C   UNL     1      -1.762  10.142  -1.254  0.00  0.00    -0.017 C 
ATOM     35  C   UNL     1      -3.066   9.801  -0.529  0.00  0.00    -0.082 C 
ENDBRANCH  32  35
BRANCH  32  36
ATOM     36  C   UNL     1      -4.057   9.158  -2.642  0.00  0.00    -0.082 C 
ATOM     37  C   UNL     1      -5.008  10.357  -2.627  0.00  0.00    -0.017 C 
ENDBRANCH  32  36
ENDBRANCH  31  32
ENDBRANCH  30  31
ENDBRANCH   1  30
TORSDOF 11
