REMARK  Name = ZINC27793150
REMARK  12 active torsions:
REMARK  status: ('A' for Active; 'I' for Inactive)
REMARK    1  A    between atoms: C_1  and  C_2
REMARK    2  A    between atoms: C_2  and  S_3
REMARK    3  A    between atoms: S_3  and  C_6
REMARK    4  A    between atoms: C_9  and  N_22
REMARK    5  A    between atoms: C_10  and  C_12
REMARK    6  A    between atoms: N_14  and  C_15
REMARK    7  A    between atoms: C_20  and  C_21
REMARK    8  A    between atoms: N_22  and  C_23
REMARK    9  A    between atoms: N_22  and  C_29
REMARK   10  A    between atoms: C_23  and  C_24
REMARK   11  A    between atoms: C_29  and  C_30
REMARK   12  A    between atoms: C_31  and  C_35
REMARK                            x       y       z     vdW  Elec       q    Type
REMARK                         _______ _______ _______ _____ _____    ______ ____
ROOT
ATOM      1  C   UNL     1      -0.044   2.045   6.016  0.00  0.00    +0.271 A 
ATOM      2  N   UNL     1      -0.217   1.441   7.178  0.00  0.00    -0.218 NA
ATOM      3  C   UNL     1      -0.292   0.126   7.259  0.00  0.00    +0.140 A 
ATOM      4  C   UNL     1      -0.187  -0.633   6.090  0.00  0.00    +0.080 A 
ATOM      5  C   UNL     1      -0.003   0.046   4.876  0.00  0.00    +0.152 A 
ATOM      6  N   UNL     1       0.067   1.377   4.890  0.00  0.00    -0.205 NA
ENDROOT
BRANCH   5   7
ATOM      7  C   UNL     1       0.116  -0.701   3.604  0.00  0.00    +0.269 C 
ATOM      8  O   UNL     1       0.055  -1.915   3.605  0.00  0.00    -0.268 OA
ATOM      9  N   UNL     1       0.291  -0.035   2.446  0.00  0.00    -0.280 N 
ATOM     10  H   UNL     1       0.416   1.057   2.453  0.00  0.00    +0.155 HD
BRANCH   9  11
ATOM     11  C   UNL     1       0.315  -0.734   1.235  0.00  0.00    +0.037 A 
ATOM     12  C   UNL     1       0.862  -2.010   1.178  0.00  0.00    +0.023 A 
ATOM     13  C   UNL     1       0.883  -2.697  -0.019  0.00  0.00    +0.002 A 
ATOM     14  C   UNL     1       0.360  -2.118  -1.161  0.00  0.00    +0.000 A 
ATOM     15  C   UNL     1      -0.190  -0.851  -1.107  0.00  0.00    +0.005 A 
ATOM     16  C   UNL     1      -0.210  -0.155   0.087  0.00  0.00    -0.029 A 
ATOM     17  C   UNL     1      -0.805   1.228   0.144  0.00  0.00    +0.045 C 
ENDBRANCH   9  11
ENDBRANCH   5   7
BRANCH   1  18
ATOM     18  S   UNL     1       0.049   3.804   5.976  0.00  0.00    +0.032 S 
ATOM     19  O   UNL     1      -0.381   4.160   4.670  0.00  0.00    -0.166 OA
ATOM     20  O   UNL     1      -0.678   4.232   7.120  0.00  0.00    -0.166 OA
BRANCH  18  22
ATOM     21  C   UNL     1       2.013   5.699   6.160  0.00  0.00    +0.028 C 
ATOM     22  C   UNL     1       1.812   4.183   6.180  0.00  0.00    +0.172 C 
ENDBRANCH  18  22
ENDBRANCH   1  18
BRANCH   4  23
ATOM     23  N   UNL     1      -0.261  -2.019   6.129  0.00  0.00    -0.315 N 
BRANCH  23  24
ATOM     24  C   UNL     1       0.860  -2.585   6.891  0.00  0.00    +0.179 C 
BRANCH  24  25
ATOM     25  C   UNL     1       0.968  -4.061   6.604  0.00  0.00    +0.122 A 
ATOM     26  C   UNL     1       1.768  -4.626   5.681  0.00  0.00    +0.046 A 
ATOM     27  C   UNL     1       1.552  -6.021   5.751  0.00  0.00    +0.041 A 
ATOM     28  C   UNL     1       0.633  -6.225   6.712  0.00  0.00    +0.195 A 
ATOM     29  O   UNL     1       0.287  -5.035   7.229  0.00  0.00    -0.466 OA
ENDBRANCH  24  25
ENDBRANCH  23  24
BRANCH  23  30
ATOM     30  C   UNL     1      -1.549  -2.462   6.679  0.00  0.00    +0.148 C 
BRANCH  30  31
ATOM     31  C   UNL     1      -2.660  -2.057   5.745  0.00  0.00    +0.010 A 
ATOM     32  C   UNL     1      -3.250  -2.775   4.758  0.00  0.00    -0.039 A 
ATOM     33  C   UNL     1      -4.265  -2.194   4.022  0.00  0.00    +0.011 A 
ATOM     34  C   UNL     1      -4.634  -0.920   4.302  0.00  0.00    +0.046 A 
ATOM     35  S   UNL     1      -3.537  -0.505   5.647  0.00  0.00    -0.100 S 
ATOM     36  C   UNL     1      -2.807  -4.186   4.470  0.00  0.00    +0.044 C 
ENDBRANCH  30  31
ENDBRANCH  23  30
ENDBRANCH   4  23
TORSDOF 9
