REMARK  Name = ZINC08659783
REMARK  9 active torsions:
REMARK  status: ('A' for Active; 'I' for Inactive)
REMARK    1  A    between atoms: C_1  and  C_2
REMARK    2  A    between atoms: C_3  and  C_27
REMARK    3  A    between atoms: C_4  and  C_21
REMARK    4  A    between atoms: C_6  and  C_19
REMARK    5  A    between atoms: C_7  and  S_9
REMARK    6  A    between atoms: S_9  and  C_10
REMARK    7  A    between atoms: C_10  and  C_11
REMARK    8  A    between atoms: N_13  and  C_14
REMARK    9  A    between atoms: N_29  and  C_30
REMARK                            x       y       z     vdW  Elec       q    Type
REMARK                         _______ _______ _______ _____ _____    ______ ____
ROOT
ATOM      1  C   UNL     1      -3.906   6.958   0.194  0.00  0.00    +0.061 C 
ATOM      2  C   UNL     1      -2.696   7.854   0.148  0.00  0.00    +0.014 C 
ATOM      3  C   UNL     1      -1.471   7.307   0.079  0.00  0.00    +0.044 C 
ATOM      4  C   UNL     1      -0.231   8.152   0.027  0.00  0.00    +0.098 C 
ATOM      5  C   UNL     1      -0.526   9.564   0.441  0.00  0.00    +0.069 C 
ATOM      6  C   UNL     1      -1.802  10.031   0.498  0.00  0.00    +0.080 C 
ATOM      7  N   UNL     1      -2.861   9.212   0.177  0.00  0.00    -0.312 N 
ATOM      8  H   UNL     1      -3.842   9.651  -0.057  0.00  0.00    +0.152 HD
ENDROOT
BRANCH   4   9
ATOM      9  C   UNL     1       0.308   8.156  -1.380  0.00  0.00    -0.035 A 
ATOM     10  C   UNL     1      -0.473   8.630  -2.418  0.00  0.00    +0.004 A 
ATOM     11  C   UNL     1       0.022   8.637  -3.708  0.00  0.00    +0.000 A 
ATOM     12  C   UNL     1       1.296   8.162  -3.962  0.00  0.00    +0.000 A 
ATOM     13  C   UNL     1       2.075   7.684  -2.926  0.00  0.00    +0.000 A 
ATOM     14  C   UNL     1       1.581   7.680  -1.635  0.00  0.00    +0.004 A 
ENDBRANCH   4   9
BRANCH   3  15
ATOM     15  C   UNL     1      -1.346   5.897   0.061  0.00  0.00    +0.247 C 
ATOM     16  O   UNL     1      -1.137   5.291   1.096  0.00  0.00    -0.270 OA
ATOM     17  N   UNL     1      -1.458   5.226  -1.103  0.00  0.00    -0.282 N 
ATOM     18  H   UNL     1      -1.550   5.778  -2.050  0.00  0.00    +0.155 HD
BRANCH  17  19
ATOM     19  C   UNL     1      -1.457   3.827  -1.105  0.00  0.00    +0.034 A 
ATOM     20  C   UNL     1      -1.035   3.134  -2.232  0.00  0.00    +0.023 A 
ATOM     21  C   UNL     1      -1.035   1.753  -2.232  0.00  0.00    +0.002 A 
ATOM     22  C   UNL     1      -1.456   1.060  -1.111  0.00  0.00    +0.000 A 
ATOM     23  C   UNL     1      -1.882   1.748   0.011  0.00  0.00    +0.002 A 
ATOM     24  C   UNL     1      -1.879   3.129   0.019  0.00  0.00    +0.023 A 
ENDBRANCH  17  19
ENDBRANCH   3  15
BRANCH   5  25
ATOM     25  C   UNL     1       0.556  10.434   0.788  0.00  0.00    +0.098 C 
ATOM     26  N   UNL     1       1.415  11.125   1.064  0.00  0.00    -0.191 NA
ENDBRANCH   5  25
BRANCH   6  27
ATOM     27  S   UNL     1      -2.103  11.698   0.985  0.00  0.00    -0.100 S 
BRANCH  27  28
ATOM     28  C   UNL     1      -3.909  11.737   0.875  0.00  0.00    +0.171 C 
BRANCH  28  29
ATOM     29  C   UNL     1      -4.406  13.107   1.258  0.00  0.00    +0.230 C 
ATOM     30  O   UNL     1      -3.617  13.972   1.575  0.00  0.00    -0.274 OA
ATOM     31  N   UNL     1      -5.728  13.371   1.249  0.00  0.00    -0.256 N 
ATOM     32  H   UNL     1      -6.444  12.586   0.962  0.00  0.00    +0.158 HD
BRANCH  31  33
ATOM     33  C   UNL     1      -6.188  14.638   1.604  0.00  0.00    +0.192 A 
ATOM     34  C   UNL     1      -7.482  15.032   1.637  0.00  0.00    +0.066 A 
ATOM     35  C   UNL     1      -7.488  16.384   2.048  0.00  0.00    +0.043 A 
ATOM     36  C   UNL     1      -6.205  16.739   2.243  0.00  0.00    +0.197 A 
ATOM     37  O   UNL     1      -5.422  15.678   1.978  0.00  0.00    -0.449 OA
ENDBRANCH  31  33
ENDBRANCH  28  29
ENDBRANCH  27  28
ENDBRANCH   6  27
TORSDOF 8
