REMARK  Name = ZINC36156887
REMARK  10 active torsions:
REMARK  status: ('A' for Active; 'I' for Inactive)
REMARK    1  A    between atoms: C_4  and  C_7
REMARK    2  A    between atoms: C_7  and  N_8
REMARK    3  A    between atoms: N_8  and  C_9
REMARK    4  A    between atoms: N_8  and  C_25
REMARK    5  A    between atoms: C_9  and  C_10
REMARK    6  A    between atoms: C_25  and  C_26
REMARK    7  A    between atoms: C_26  and  C_28
REMARK    8  A    between atoms: C_26  and  O_36
REMARK    9  A    between atoms: C_28  and  O_29
REMARK   10  A    between atoms: O_29  and  C_30
REMARK                            x       y       z     vdW  Elec       q    Type
REMARK                         _______ _______ _______ _____ _____    ______ ____
ROOT
ATOM      1  N   UNL     1       4.043  -0.939   1.433  0.00  0.00    +0.389 N 
ATOM      2  H   UNL     1       3.919  -0.067   1.926  0.00  0.00    -0.081 HD
ENDROOT
BRANCH   1   3
ATOM      3  C   UNL     1       3.831  -0.723  -0.005  0.00  0.00    -0.042 C 
BRANCH   3   7
ATOM      4  C   UNL     1       4.234  -4.436  -2.079  0.00  0.00    +0.000 A 
ATOM      5  C   UNL     1       2.994  -4.031  -1.620  0.00  0.00    +0.000 A 
ATOM      6  C   UNL     1       2.864  -2.830  -0.949  0.00  0.00    +0.002 A 
ATOM      7  C   UNL     1       3.973  -2.033  -0.736  0.00  0.00    -0.064 A 
ATOM      8  C   UNL     1       5.213  -2.438  -1.194  0.00  0.00    +0.002 A 
ATOM      9  C   UNL     1       5.343  -3.639  -1.867  0.00  0.00    +0.000 A 
ENDBRANCH   3   7
ENDBRANCH   1   3
BRANCH   1  10
ATOM     10  C   UNL     1       5.407  -1.438   1.657  0.00  0.00    -0.003 C 
BRANCH  10  11
ATOM     11  C   UNL     1       6.401  -0.378   1.262  0.00  0.00    +0.094 A 
ATOM     12  N   UNL     1       7.730  -0.631   1.383  0.00  0.00    -0.312 N 
ATOM     13  H   UNL     1       8.020  -1.492   1.722  0.00  0.00    +0.170 HD
ATOM     14  C   UNL     1       8.652   0.288   1.041  0.00  0.00    +0.260 A 
ATOM     15  O   UNL     1       9.841   0.045   1.155  0.00  0.00    -0.267 OA
ATOM     16  C   UNL     1       8.213   1.558   0.541  0.00  0.00    +0.075 A 
ATOM     17  C   UNL     1       9.025   2.696   0.113  0.00  0.00    -0.023 A 
ATOM     18  C   UNL     1       8.364   3.789  -0.323  0.00  0.00    -0.004 A 
ATOM     19  S   UNL     1       6.647   3.372  -0.192  0.00  0.00    -0.073 S 
ATOM     20  C   UNL     1       6.822   1.727   0.451  0.00  0.00    +0.116 A 
ATOM     21  N   UNL     1       5.970   0.767   0.804  0.00  0.00    -0.229 NA
ATOM     22  C   UNL     1       8.960   5.075  -0.810  0.00  0.00    +0.043 C 
ATOM     23  C   UNL     1      10.437   5.113  -0.394  0.00  0.00    +0.005 C 
ATOM     24  C   UNL     1      11.085   3.775  -0.762  0.00  0.00    +0.005 C 
ATOM     25  C   UNL     1      10.550   2.670   0.151  0.00  0.00    +0.037 C 
ENDBRANCH  10  11
ENDBRANCH   1  10
BRANCH   1  26
ATOM     26  C   UNL     1       3.073  -1.924   1.929  0.00  0.00    -0.043 C 
BRANCH  26  27
ATOM     27  C   UNL     1       1.661  -1.344   1.829  0.00  0.00    +0.135 C 
BRANCH  27  28
ATOM     28  O   UNL     1       1.563  -0.185   2.659  0.00  0.00    -0.390 OA
ATOM     29  H   UNL     1       1.736  -0.355   3.595  0.00  0.00    +0.210 HD
ENDBRANCH  27  28
BRANCH  27  30
ATOM     30  C   UNL     1       0.646  -2.391   2.294  0.00  0.00    +0.258 C 
BRANCH  30  31
ATOM     31  O   UNL     1      -0.678  -1.892   2.092  0.00  0.00    -0.489 OA
BRANCH  31  32
ATOM     32  C   UNL     1      -1.705  -2.705   2.455  0.00  0.00    +0.121 A 
ATOM     33  C   UNL     1      -1.444  -3.954   3.000  0.00  0.00    +0.045 A 
ATOM     34  C   UNL     1      -2.490  -4.778   3.369  0.00  0.00    +0.004 A 
ATOM     35  C   UNL     1      -3.796  -4.359   3.195  0.00  0.00    +0.000 A 
ATOM     36  C   UNL     1      -4.059  -3.115   2.652  0.00  0.00    +0.004 A 
ATOM     37  C   UNL     1      -3.017  -2.285   2.288  0.00  0.00    +0.045 A 
ENDBRANCH  31  32
ENDBRANCH  30  31
ENDBRANCH  27  30
ENDBRANCH  26  27
ENDBRANCH   1  26
TORSDOF 10
