REMARK  Name = ZINC40736160
REMARK  11 active torsions:
REMARK  status: ('A' for Active; 'I' for Inactive)
REMARK    1  A    between atoms: C_4  and  N_7
REMARK    2  A    between atoms: C_8  and  S_12
REMARK    3  A    between atoms: S_12  and  C_13
REMARK    4  A    between atoms: C_13  and  C_14
REMARK    5  A    between atoms: C_14  and  C_15
REMARK    6  A    between atoms: C_15  and  N_16
REMARK    7  A    between atoms: N_16  and  C_17
REMARK    8  A    between atoms: C_17  and  C_18
REMARK    9  A    between atoms: C_27  and  O_28
REMARK   10  A    between atoms: O_28  and  C_29
REMARK   11  A    between atoms: C_29  and  C_30
REMARK                            x       y       z     vdW  Elec       q    Type
REMARK                         _______ _______ _______ _____ _____    ______ ____
ROOT
ATOM      1  C   UNL     1       3.860  -8.437   4.551  0.00  0.00    -0.042 C 
ENDROOT
BRANCH   1   2
ATOM      2  C   UNL     1       3.033  -9.368   5.398  0.00  0.00    -0.015 A 
ATOM      3  C   UNL     1       2.989  -9.203   6.793  0.00  0.00    -0.013 A 
ATOM      4  C   UNL     1       3.707  -8.175   7.428  0.00  0.00    +0.009 A 
ATOM      5  C   UNL     1       3.641  -8.044   8.781  0.00  0.00    +0.001 A 
ATOM      6  C   UNL     1       2.871  -8.915   9.549  0.00  0.00    +0.001 A 
ATOM      7  C   UNL     1       2.162  -9.922   8.969  0.00  0.00    +0.008 A 
ATOM      8  C   UNL     1       2.205 -10.089   7.574  0.00  0.00    -0.017 A 
ATOM      9  C   UNL     1       1.485 -11.117   6.940  0.00  0.00    +0.012 A 
ATOM     10  C   UNL     1       1.549 -11.251   5.589  0.00  0.00    +0.046 A 
ATOM     11  C   UNL     1       2.317 -10.375   4.815  0.00  0.00    +0.123 A 
BRANCH  11  12
ATOM     12  O   UNL     1       2.356 -10.530   3.466  0.00  0.00    -0.487 OA
BRANCH  12  13
ATOM     13  C   UNL     1       1.587 -11.601   2.913  0.00  0.00    +0.264 C 
BRANCH  13  14
ATOM     14  C   UNL     1       1.752 -11.617   1.416  0.00  0.00    -0.009 A 
ATOM     15  C   UNL     1       0.891 -10.887   0.617  0.00  0.00    +0.007 A 
ATOM     16  C   UNL     1       1.042 -10.902  -0.757  0.00  0.00    +0.002 A 
ATOM     17  C   UNL     1       2.053 -11.647  -1.333  0.00  0.00    +0.020 A 
ATOM     18  C   UNL     1       2.915 -12.377  -0.535  0.00  0.00    +0.041 A 
ATOM     19  C   UNL     1       2.768 -12.357   0.841  0.00  0.00    +0.027 A 
ATOM     20 CL   UNL     1       4.186 -13.313  -1.259  0.00  0.00    -0.084 Cl
ENDBRANCH  13  14
ENDBRANCH  12  13
ENDBRANCH  11  12
ENDBRANCH   1   2
BRANCH   1  21
ATOM     21  N   UNL     1       3.041  -7.286   4.146  0.00  0.00    +0.382 N 
ATOM     22  H   UNL     1       2.719  -6.797   4.968  0.00  0.00    -0.085 HD
ATOM     23  H   UNL     1       2.247  -7.609   3.614  0.00  0.00    -0.085 HD
BRANCH  21  24
ATOM     24  C   UNL     1       3.848  -6.378   3.320  0.00  0.00    -0.081 C 
BRANCH  24  25
ATOM     25  C   UNL     1       2.995  -5.179   2.898  0.00  0.00    -0.008 C 
BRANCH  25  26
ATOM     26  C   UNL     1       3.835  -4.234   2.038  0.00  0.00    +0.075 C 
BRANCH  26  27
ATOM     27  S   UNL     1       2.824  -2.812   1.538  0.00  0.00    -0.084 S 
BRANCH  27  29
ATOM     28  N   UNL     1       3.624  -0.652  -0.037  0.00  0.00    -0.187 N 
ATOM     29  C   UNL     1       3.918  -1.831   0.567  0.00  0.00    +0.214 A 
ATOM     30  N   UNL     1       5.176  -2.102   0.291  0.00  0.00    -0.101 NA
ATOM     31  N   UNL     1       5.685  -1.178  -0.441  0.00  0.00    -0.022 NA
ATOM     32  N   UNL     1       4.809  -0.266  -0.689  0.00  0.00    -0.038 NA
BRANCH  28  36
ATOM     33  C   UNL     1      -0.017   1.379   0.010  0.00  0.00    +0.000 A 
ATOM     34  C   UNL     1       1.170   2.089   0.002  0.00  0.00    +0.002 A 
ATOM     35  C   UNL     1       2.377   1.419  -0.013  0.00  0.00    +0.028 A 
ATOM     36  C   UNL     1       2.399   0.031  -0.021  0.00  0.00    +0.070 A 
ATOM     37  C   UNL     1       1.207  -0.680  -0.013  0.00  0.00    +0.028 A 
ATOM     38  C   UNL     1       0.002  -0.004   0.002  0.00  0.00    +0.002 A 
ENDBRANCH  28  36
ENDBRANCH  27  29
ENDBRANCH  26  27
ENDBRANCH  25  26
ENDBRANCH  24  25
ENDBRANCH  21  24
ENDBRANCH   1  21
TORSDOF 11
