REMARK  Name = ZINC02728229
REMARK  9 active torsions:
REMARK  status: ('A' for Active; 'I' for Inactive)
REMARK    1  A    between atoms: C_1  and  C_2
REMARK    2  A    between atoms: C_2  and  C_3
REMARK    3  A    between atoms: C_3  and  C_5
REMARK    4  A    between atoms: C_3  and  O_19
REMARK    5  A    between atoms: N_7  and  N_8
REMARK    6  A    between atoms: C_9  and  C_10
REMARK    7  A    between atoms: C_12  and  N_16
REMARK    8  A    between atoms: C_13  and  C_15
REMARK    9  A    between atoms: O_19  and  C_20
REMARK                            x       y       z     vdW  Elec       q    Type
REMARK                         _______ _______ _______ _____ _____    ______ ____
ROOT
ATOM      1  C   UNL     1       3.322   7.412  -0.100  0.00  0.00    +0.260 C 
ENDROOT
BRANCH   1   2
ATOM      2  C   UNL     1       4.541   8.063   0.502  0.00  0.00    +0.273 C 
ATOM      3  O   UNL     1       5.461   7.382   0.889  0.00  0.00    -0.270 OA
ATOM      4  N   UNL     1       4.605   9.405   0.610  0.00  0.00    -0.204 N 
ATOM      5  H   UNL     1       3.866   9.952   0.299  0.00  0.00    +0.177 HD
BRANCH   4   6
ATOM      6  N   UNL     1       5.648   9.962   1.125  0.00  0.00    -0.187 NA
ATOM      7  C   UNL     1       5.711  11.295   1.232  0.00  0.00    +0.145 C 
BRANCH   7   8
ATOM      8  C   UNL     1       6.827  11.891   1.784  0.00  0.00    +0.034 A 
ATOM      9  C   UNL     1       7.109  13.331   1.998  0.00  0.00    +0.050 A 
ATOM     10  C   UNL     1       8.284  13.612   2.559  0.00  0.00    +0.137 A 
ATOM     11  C   UNL     1       9.158  12.564   2.903  0.00  0.00    +0.017 A 
ATOM     12  S   UNL     1       8.305  11.130   2.433  0.00  0.00    -0.090 S 
ATOM     13  C   UNL     1      10.520  12.665   3.541  0.00  0.00    +0.054 C 
BRANCH  10  14
ATOM     14  N   UNL     1       8.669  15.017   2.819  0.00  0.00    +0.057 N 
ATOM     15  O   UNL     1       7.848  15.995   2.495  0.00  0.00    -0.126 OA
ATOM     16  O   UNL     1       9.832  15.290   3.373  0.00  0.00    -0.126 OA
ENDBRANCH  10  14
ENDBRANCH   7   8
ENDBRANCH   4   6
ENDBRANCH   1   2
BRANCH   1  18
ATOM     17  C   UNL     1       1.906   7.252  -2.152  0.00  0.00    +0.008 C 
ATOM     18  C   UNL     1       3.208   7.810  -1.573  0.00  0.00    +0.051 C 
ENDBRANCH   1  18
BRANCH   1  19
ATOM     19  O   UNL     1       3.441   5.992   0.002  0.00  0.00    -0.478 OA
BRANCH  19  20
ATOM     20  C   UNL     1       2.293   5.289   0.189  0.00  0.00    +0.136 A 
ATOM     21  C   UNL     1       1.080   5.971   0.319  0.00  0.00    +0.047 A 
ATOM     22  C   UNL     1      -0.085   5.295   0.507  0.00  0.00    +0.012 A 
ATOM     23  C   UNL     1      -0.074   3.890   0.573  0.00  0.00    -0.017 A 
ATOM     24  C   UNL     1      -1.260   3.161   0.767  0.00  0.00    +0.008 A 
ATOM     25  C   UNL     1      -1.214   1.802   0.821  0.00  0.00    +0.001 A 
ATOM     26  C   UNL     1      -0.005   1.120   0.698  0.00  0.00    +0.001 A 
ATOM     27  C   UNL     1       1.163   1.792   0.509  0.00  0.00    +0.010 A 
ATOM     28  C   UNL     1       1.154   3.196   0.442  0.00  0.00    -0.000 A 
ATOM     29  C   UNL     1       2.341   3.924   0.248  0.00  0.00    +0.067 A 
ATOM     30 BR   UNL     1       3.993   3.021   0.071  0.00  0.00    -0.046 Br
ENDBRANCH  19  20
ENDBRANCH   1  19
TORSDOF 7
