REMARK  Name = ZINC14356500
REMARK  12 active torsions:
REMARK  status: ('A' for Active; 'I' for Inactive)
REMARK    1  A    between atoms: C_1  and  C_2
REMARK    2  A    between atoms: C_5  and  C_34
REMARK    3  A    between atoms: C_6  and  N_8
REMARK    4  A    between atoms: N_8  and  C_9
REMARK    5  A    between atoms: C_9  and  N_11
REMARK    6  A    between atoms: N_11  and  N_12
REMARK    7  A    between atoms: N_12  and  C_13
REMARK    8  A    between atoms: C_16  and  N_31
REMARK    9  A    between atoms: C_18  and  S_19
REMARK   10  A    between atoms: S_19  and  N_22
REMARK   11  A    between atoms: N_22  and  C_23
REMARK   12  A    between atoms: C_28  and  C_29
REMARK                            x       y       z     vdW  Elec       q    Type
REMARK                         _______ _______ _______ _____ _____    ______ ____
ROOT
ATOM      1  C   UNL     1       4.455   1.939  -0.665  0.00  0.00    +0.071 A 
ATOM      2  C   UNL     1       4.765   3.291  -0.591  0.00  0.00    +0.028 A 
ATOM      3  C   UNL     1       6.084   3.698  -0.639  0.00  0.00    +0.035 A 
ATOM      4  C   UNL     1       7.094   2.762  -0.772  0.00  0.00    +0.128 A 
ATOM      5  C   UNL     1       6.788   1.416  -0.851  0.00  0.00    +0.063 A 
ATOM      6  C   UNL     1       5.471   1.002  -0.798  0.00  0.00    +0.133 A 
ENDROOT
BRANCH   6   7
ATOM      7  S   UNL     1       5.082  -0.714  -0.899  0.00  0.00    +0.074 S 
ATOM      8  O   UNL     1       6.316  -1.402  -1.047  0.00  0.00    -0.150 OA
ATOM      9  O   UNL     1       4.178  -0.989   0.162  0.00  0.00    -0.150 OA
BRANCH   7  10
ATOM     10  N   UNL     1       4.242  -0.943  -2.308  0.00  0.00    -0.215 N 
ATOM     11  H   UNL     1       3.335  -1.287  -2.281  0.00  0.00    +0.174 HD
BRANCH  10  12
ATOM     12  C   UNL     1       4.834  -0.642  -3.527  0.00  0.00    +0.062 A 
ATOM     13  C   UNL     1       6.193  -0.865  -3.716  0.00  0.00    +0.025 A 
ATOM     14  C   UNL     1       6.779  -0.570  -4.930  0.00  0.00    +0.002 A 
ATOM     15  C   UNL     1       6.022  -0.041  -5.965  0.00  0.00    +0.001 A 
ATOM     16  C   UNL     1       4.676   0.191  -5.795  0.00  0.00    +0.017 A 
ATOM     17  C   UNL     1       4.066  -0.107  -4.572  0.00  0.00    +0.085 A 
BRANCH  17  18
ATOM     18  C   UNL     1       2.626   0.140  -4.383  0.00  0.00    +0.388 C 
ATOM     19  O   UNL     1       2.100  -0.121  -3.319  0.00  0.00    -0.241 OA
ATOM     20  O   UNL     1       1.892   0.654  -5.390  0.00  0.00    -0.241 OA
ENDBRANCH  17  18
ENDBRANCH  10  12
ENDBRANCH   7  10
ENDBRANCH   6   7
BRANCH   4  21
ATOM     21  N   UNL     1       8.506   3.203  -0.830  0.00  0.00    +0.056 N 
ATOM     22  O   UNL     1       9.396   2.380  -0.947  0.00  0.00    -0.126 OA
ATOM     23  O   UNL     1       8.777   4.388  -0.760  0.00  0.00    -0.126 OA
ENDBRANCH   4  21
BRANCH   1  24
ATOM     24  N   UNL     1       3.122   1.523  -0.611  0.00  0.00    -0.263 N 
ATOM     25  H   UNL     1       2.910   0.577  -0.595  0.00  0.00    +0.170 HD
BRANCH  24  26
ATOM     26  N   UNL     1       2.093   2.473  -0.581  0.00  0.00    -0.248 N 
ATOM     27  H   UNL     1       2.306   3.417  -0.531  0.00  0.00    +0.172 HD
BRANCH  26  28
ATOM     28  C   UNL     1       0.806   2.073  -0.622  0.00  0.00    +0.151 C 
ATOM     29  S   UNL     1      -0.448   3.234  -0.727  0.00  0.00    -0.017 S 
BRANCH  28  30
ATOM     30  N   UNL     1       0.507   0.760  -0.585  0.00  0.00    -0.296 N 
ATOM     31  H   UNL     1       0.174   0.316  -1.381  0.00  0.00    +0.154 HD
BRANCH  30  37
ATOM     32  C   UNL     1       1.608   0.684   4.205  0.00  0.00    +0.044 C 
ATOM     33  C   UNL     1       1.210  -0.026   2.937  0.00  0.00    -0.049 A 
ATOM     34  C   UNL     1       1.012  -1.395   2.944  0.00  0.00    +0.004 A 
ATOM     35  C   UNL     1       0.648  -2.050   1.782  0.00  0.00    +0.005 A 
ATOM     36  C   UNL     1       0.479  -1.338   0.610  0.00  0.00    -0.029 A 
ATOM     37  C   UNL     1       0.676   0.036   0.600  0.00  0.00    +0.036 A 
ATOM     38  C   UNL     1       1.048   0.690   1.768  0.00  0.00    +0.027 A 
ATOM     39  C   UNL     1       0.082  -2.053  -0.655  0.00  0.00    +0.045 C 
ENDBRANCH  30  37
ENDBRANCH  28  30
ENDBRANCH  26  28
ENDBRANCH  24  26
ENDBRANCH   1  24
TORSDOF 10
