REMARK  Name = ZINC09375038
REMARK  5 active torsions:
REMARK  status: ('A' for Active; 'I' for Inactive)
REMARK    1  A    between atoms: C_1  and  O_2
REMARK    2  A    between atoms: O_2  and  C_3
REMARK    3  A    between atoms: C_6  and  C_9
REMARK    4  A    between atoms: C_14  and  C_20
REMARK    5  A    between atoms: N_22  and  C_23
REMARK                            x       y       z     vdW  Elec       q    Type
REMARK                         _______ _______ _______ _____ _____    ______ ____
ROOT
ATOM      1  C   UNL     1       2.595  -2.551   4.305  0.00  0.00    +0.032 C 
ATOM      2  C   UNL     1       1.597  -3.447   5.042  0.00  0.00    +0.059 C 
ATOM      3  C   UNL     1       2.296  -4.170   6.167  0.00  0.00    +0.018 C 
ATOM      4  C   UNL     1       3.608  -4.476   6.082  0.00  0.00    +0.024 C 
ATOM      5  C   UNL     1       4.304  -5.167   7.231  0.00  0.00    +0.119 C 
ATOM      6  C   UNL     1       3.328  -6.112   7.932  0.00  0.00    +0.113 C 
ATOM      7  C   UNL     1       2.034  -5.381   8.186  0.00  0.00    +0.218 C 
ATOM      8  O   UNL     1       1.410  -5.588   9.205  0.00  0.00    -0.275 OA
ATOM      9  N   UNL     1       1.573  -4.500   7.284  0.00  0.00    -0.289 N 
ATOM     10  C   UNL     1       4.360  -4.159   4.938  0.00  0.00    +0.162 C 
ATOM     11  O   UNL     1       5.530  -4.483   4.882  0.00  0.00    -0.292 OA
ATOM     12  C   UNL     1       3.742  -3.421   3.780  0.00  0.00    +0.088 C 
ATOM     13  H   UNL     1       0.706  -4.088   7.425  0.00  0.00    +0.155 HD
ENDROOT
BRANCH   1  17
ATOM     14  C   UNL     1       0.644  -0.619   1.031  0.00  0.00    +0.120 A 
ATOM     15  C   UNL     1       1.226   0.138   2.037  0.00  0.00    +0.046 A 
ATOM     16  C   UNL     1       1.856  -0.489   3.095  0.00  0.00    +0.007 A 
ATOM     17  C   UNL     1       1.907  -1.870   3.151  0.00  0.00    -0.043 A 
ATOM     18  C   UNL     1       1.328  -2.626   2.149  0.00  0.00    +0.007 A 
ATOM     19  C   UNL     1       0.691  -2.004   1.092  0.00  0.00    +0.046 A 
BRANCH  14  21
ATOM     20  C   UNL     1       0.013   1.424  -0.008  0.00  0.00    +0.277 C 
ATOM     21  O   UNL     1       0.023  -0.005  -0.011  0.00  0.00    -0.495 OA
ENDBRANCH  14  21
ENDBRANCH   1  17
BRANCH   5  22
ATOM     22  C   UNL     1       4.794  -4.135   8.214  0.00  0.00    +0.225 C 
ATOM     23  O   UNL     1       4.598  -2.956   8.005  0.00  0.00    -0.275 OA
ATOM     24  N   UNL     1       5.449  -4.521   9.327  0.00  0.00    -0.285 N 
ATOM     25  H   UNL     1       5.548  -5.465   9.528  0.00  0.00    +0.155 HD
BRANCH  24  26
ATOM     26  C   UNL     1       5.988  -3.561  10.190  0.00  0.00    +0.033 A 
ATOM     27  C   UNL     1       7.186  -3.811  10.848  0.00  0.00    +0.023 A 
ATOM     28  C   UNL     1       7.715  -2.861  11.700  0.00  0.00    +0.002 A 
ATOM     29  C   UNL     1       7.054  -1.663  11.898  0.00  0.00    +0.000 A 
ATOM     30  C   UNL     1       5.861  -1.412  11.245  0.00  0.00    +0.002 A 
ATOM     31  C   UNL     1       5.330  -2.355  10.387  0.00  0.00    +0.023 A 
ENDBRANCH  24  26
ENDBRANCH   5  22
TORSDOF 4
