REMARK  Name = ZINC04016734
REMARK  9 active torsions:
REMARK  status: ('A' for Active; 'I' for Inactive)
REMARK    1  A    between atoms: C_1  and  C_2
REMARK    2  A    between atoms: C_2  and  O_4
REMARK    3  A    between atoms: O_4  and  C_5
REMARK    4  A    between atoms: C_7  and  N_30
REMARK    5  A    between atoms: C_13  and  C_16
REMARK    6  A    between atoms: C_14  and  O_15
REMARK    7  A    between atoms: C_17  and  C_18
REMARK    8  A    between atoms: C_27  and  C_28
REMARK    9  A    between atoms: C_27  and  C_29
REMARK                            x       y       z     vdW  Elec       q    Type
REMARK                         _______ _______ _______ _____ _____    ______ ____
ROOT
ATOM      1  C   UNL     1      -0.789  -2.466   0.007  0.00  0.00    +0.210 C 
ATOM      2  C   UNL     1      -2.171  -2.771   0.591  0.00  0.00    +0.015 C 
ATOM      3  C   UNL     1      -3.240  -2.250  -0.337  0.00  0.00    +0.026 A 
ATOM      4  C   UNL     1      -2.962  -1.942  -1.658  0.00  0.00    +0.127 A 
ATOM      5  C   UNL     1      -3.975  -1.467  -2.493  0.00  0.00    +0.047 A 
ATOM      6  C   UNL     1      -5.252  -1.297  -2.015  0.00  0.00    +0.015 A 
ATOM      7  C   UNL     1      -5.543  -1.602  -0.680  0.00  0.00    +0.017 A 
ATOM      8  C   UNL     1      -4.524  -2.082   0.158  0.00  0.00    +0.129 A 
ATOM      9  O   UNL     1      -1.715  -2.083  -2.177  0.00  0.00    -0.482 OA
ATOM     10  C   UNL     1      -0.782  -2.898  -1.465  0.00  0.00    +0.140 C 
ATOM     11  C   UNL     1      -1.194  -4.367  -1.573  0.00  0.00    +0.059 C 
ATOM     12  C   UNL     1       0.620  -2.710  -2.050  0.00  0.00    +0.059 C 
ENDROOT
BRANCH   2  13
ATOM     13  N   UNL     1      -2.302  -2.120   1.901  0.00  0.00    +0.387 N 
ATOM     14  C   UNL     1      -2.430  -0.670   1.715  0.00  0.00    -0.078 C 
ATOM     15  C   UNL     1      -2.648   0.005   3.071  0.00  0.00    -0.019 C 
ATOM     16  C   UNL     1      -1.453  -0.291   3.981  0.00  0.00    -0.004 C 
ATOM     17  C   UNL     1      -1.284  -1.808   4.108  0.00  0.00    -0.019 C 
ATOM     18  C   UNL     1      -1.116  -2.415   2.713  0.00  0.00    -0.078 C 
ATOM     19  H   UNL     1      -3.124  -2.471   2.369  0.00  0.00    -0.081 HD
ENDBRANCH   2  13
BRANCH   8  20
ATOM     20  O   UNL     1      -4.796  -2.381   1.454  0.00  0.00    -0.506 OA
ATOM     21  H   UNL     1      -4.761  -1.620   2.049  0.00  0.00    +0.292 HD
ENDBRANCH   8  20
BRANCH   7  22
ATOM     22  C   UNL     1      -6.903  -1.420  -0.160  0.00  0.00    +0.016 C 
ATOM     23  C   UNL     1      -7.881  -0.958  -0.971  0.00  0.00    +0.068 C 
BRANCH  23  24
ATOM     24  C   UNL     1      -9.195  -0.782  -0.468  0.00  0.00    +0.239 C 
ATOM     25  O   UNL     1      -9.422  -0.955   0.715  0.00  0.00    -0.271 OA
ATOM     26  N   UNL     1     -10.193  -0.425  -1.301  0.00  0.00    -0.298 N 
ATOM     27  C   UNL     1      -9.916  -0.113  -2.710  0.00  0.00    +0.108 C 
ATOM     28  C   UNL     1     -10.827  -0.973  -3.593  0.00  0.00    +0.019 C 
ATOM     29  C   UNL     1     -12.284  -0.759  -3.176  0.00  0.00    +0.003 C 
ATOM     30  C   UNL     1     -12.469  -1.197  -1.721  0.00  0.00    +0.019 C 
ATOM     31  C   UNL     1     -11.578  -0.346  -0.819  0.00  0.00    +0.108 C 
ENDBRANCH  23  24
ENDBRANCH   7  22
BRANCH   1  32
ATOM     32  O   UNL     1      -0.525  -1.065   0.100  0.00  0.00    -0.459 OA
BRANCH  32  34
ATOM     33  C   UNL     1       1.115   0.767   0.326  0.00  0.00    +0.136 C 
ATOM     34  C   UNL     1       0.759  -0.694   0.223  0.00  0.00    +0.304 C 
ATOM     35  O   UNL     1       1.630  -1.531   0.251  0.00  0.00    -0.251 OA
ENDBRANCH  32  34
ENDBRANCH   1  32
TORSDOF 6
