REMARK  Name = ZINC63350953
REMARK  5 active torsions:
REMARK  status: ('A' for Active; 'I' for Inactive)
REMARK    1  A    between atoms: C_1  and  O_2
REMARK    2  A    between atoms: O_2  and  C_3
REMARK    3  A    between atoms: C_6  and  C_9
REMARK    4  A    between atoms: N_10  and  N_11
REMARK    5  A    between atoms: C_12  and  C_31
REMARK                            x       y       z     vdW  Elec       q    Type
REMARK                         _______ _______ _______ _____ _____    ______ ____
ROOT
ATOM      1  N   UNL     1       3.244  -4.462   5.483  0.00  0.00    -0.170 N 
ATOM      2  C   UNL     1       3.415  -5.932   5.586  0.00  0.00    +0.202 C 
ATOM      3  N   UNL     1       3.647  -6.148   7.023  0.00  0.00    -0.265 NA
ATOM      4  C   UNL     1       4.295  -7.397   7.408  0.00  0.00    +0.116 C 
ATOM      5  C   UNL     1       4.305  -7.423   8.944  0.00  0.00    +0.120 C 
ATOM      6  C   UNL     1       4.899  -6.104   9.421  0.00  0.00    -0.035 C 
ATOM      7  C   UNL     1       5.866  -6.418  10.273  0.00  0.00    -0.001 A 
ATOM      8  C   UNL     1       6.727  -5.588  11.130  0.00  0.00    +0.010 A 
ATOM      9  C   UNL     1       7.645  -6.253  11.881  0.00  0.00    +0.001 A 
ATOM     10  C   UNL     1       7.791  -7.643  11.865  0.00  0.00    +0.002 A 
ATOM     11  C   UNL     1       7.037  -8.484  11.113  0.00  0.00    +0.026 A 
ATOM     12  C   UNL     1       6.032  -7.904  10.287  0.00  0.00    +0.043 A 
ATOM     13  N   UNL     1       5.155  -8.477   9.491  0.00  0.00    -0.376 N 
ATOM     14  C   UNL     1       4.464  -4.764   8.858  0.00  0.00    +0.062 C 
ATOM     15  C   UNL     1       4.505  -4.973   7.342  0.00  0.00    +0.151 C 
ATOM     16  C   UNL     1       3.864  -3.872   6.543  0.00  0.00    +0.254 C 
ATOM     17  O   UNL     1       3.892  -2.686   6.795  0.00  0.00    -0.272 OA
ATOM     18  H   UNL     1       5.082  -9.425   9.296  0.00  0.00    +0.160 HD
ENDROOT
BRANCH   2  19
ATOM     19  C   UNL     1       2.167  -6.645   5.133  0.00  0.00    -0.011 A 
ATOM     20  C   UNL     1       2.215  -7.501   4.049  0.00  0.00    +0.008 A 
ATOM     21  C   UNL     1       1.071  -8.156   3.633  0.00  0.00    +0.015 A 
ATOM     22  C   UNL     1      -0.123  -7.954   4.302  0.00  0.00    +0.018 A 
ATOM     23  C   UNL     1      -0.171  -7.096   5.387  0.00  0.00    +0.015 A 
ATOM     24  C   UNL     1       0.975  -6.446   5.805  0.00  0.00    +0.008 A 
ATOM     25 BR   UNL     1      -1.689  -8.848   3.734  0.00  0.00    -0.050 Br
ENDBRANCH   2  19
BRANCH   1  27
ATOM     26  C   UNL     1       2.482  -2.495   4.476  0.00  0.00    +0.138 C 
ATOM     27  N   UNL     1       2.561  -3.791   4.461  0.00  0.00    -0.183 NA
BRANCH  26  31
ATOM     28  C   UNL     1       0.413  -0.460   1.377  0.00  0.00    +0.120 A 
ATOM     29  C   UNL     1       1.004   0.263   2.405  0.00  0.00    +0.046 A 
ATOM     30  C   UNL     1       1.676  -0.394   3.413  0.00  0.00    +0.013 A 
ATOM     31  C   UNL     1       1.763  -1.788   3.400  0.00  0.00    -0.005 A 
ATOM     32  C   UNL     1       1.167  -2.511   2.363  0.00  0.00    +0.013 A 
ATOM     33  C   UNL     1       0.492  -1.846   1.362  0.00  0.00    +0.046 A 
BRANCH  28  35
ATOM     34  C   UNL     1      -0.292   1.618   0.462  0.00  0.00    +0.277 C 
ATOM     35  O   UNL     1      -0.249   0.192   0.385  0.00  0.00    -0.495 OA
ENDBRANCH  28  35
ENDBRANCH  26  31
ENDBRANCH   1  27
TORSDOF 4
