REMARK  Name = ZINC20881968
REMARK  11 active torsions:
REMARK  status: ('A' for Active; 'I' for Inactive)
REMARK    1  A    between atoms: C_1  and  O_2
REMARK    2  A    between atoms: O_2  and  C_3
REMARK    3  A    between atoms: C_6  and  C_11
REMARK    4  A    between atoms: C_8  and  O_9
REMARK    5  A    between atoms: O_9  and  C_10
REMARK    6  A    between atoms: C_16  and  C_26
REMARK    7  A    between atoms: C_28  and  O_35
REMARK    8  A    between atoms: C_29  and  O_34
REMARK    9  A    between atoms: C_30  and  O_32
REMARK   10  A    between atoms: O_32  and  C_33
REMARK   11  A    between atoms: O_35  and  C_36
REMARK                            x       y       z     vdW  Elec       q    Type
REMARK                         _______ _______ _______ _____ _____    ______ ____
ROOT
ATOM      1  C   UNL     1      -1.039  -1.272   4.901  0.00  0.00    +0.032 C 
ATOM      2  C   UNL     1      -1.514  -2.503   4.131  0.00  0.00    +0.059 C 
ATOM      3  C   UNL     1      -1.322  -2.290   2.639  0.00  0.00    +0.017 C 
ATOM      4  C   UNL     1      -1.419  -1.060   2.107  0.00  0.00    +0.036 C 
ATOM      5  C   UNL     1      -1.258  -0.711   0.647  0.00  0.00    +0.136 C 
ATOM      6  N   UNL     1      -1.235  -1.853  -0.243  0.00  0.00    -0.331 N 
ATOM      7  C   UNL     1      -0.208  -2.791  -0.186  0.00  0.00    +0.049 A 
ATOM      8  C   UNL     1       0.709  -2.925  -1.216  0.00  0.00    +0.025 A 
ATOM      9  C   UNL     1       1.779  -3.791  -1.064  0.00  0.00    +0.002 A 
ATOM     10  C   UNL     1       1.933  -4.516   0.103  0.00  0.00    +0.002 A 
ATOM     11  C   UNL     1       1.006  -4.400   1.125  0.00  0.00    +0.025 A 
ATOM     12  C   UNL     1      -0.074  -3.549   0.968  0.00  0.00    +0.052 A 
ATOM     13  N   UNL     1      -1.067  -3.420   1.932  0.00  0.00    -0.316 N 
ATOM     14  C   UNL     1      -1.695   0.055   2.934  0.00  0.00    +0.163 C 
ATOM     15  O   UNL     1      -1.797   1.153   2.424  0.00  0.00    -0.292 OA
ATOM     16  C   UNL     1      -1.864  -0.073   4.418  0.00  0.00    +0.088 C 
ATOM     17  H   UNL     1      -2.040  -1.992  -0.980  0.00  0.00    +0.147 HD
ATOM     18  H   UNL     1      -1.669  -4.324   2.104  0.00  0.00    +0.152 HD
ENDROOT
BRANCH   1  22
ATOM     19  C   UNL     1      -1.653  -1.858   9.093  0.00  0.00    +0.161 A 
ATOM     20  C   UNL     1      -2.725  -1.925   8.217  0.00  0.00    +0.049 A 
ATOM     21  C   UNL     1      -2.523  -1.734   6.862  0.00  0.00    +0.008 A 
ATOM     22  C   UNL     1      -1.254  -1.478   6.379  0.00  0.00    -0.040 A 
ATOM     23  C   UNL     1      -0.179  -1.415   7.247  0.00  0.00    +0.053 A 
ATOM     24  C   UNL     1      -0.375  -1.599   8.606  0.00  0.00    +0.162 A 
BRANCH  19  26
ATOM     25  C   UNL     1      -3.188  -2.308  10.853  0.00  0.00    +0.277 C 
ATOM     26  O   UNL     1      -1.850  -2.046  10.425  0.00  0.00    -0.491 OA
ENDBRANCH  19  26
BRANCH  24  27
ATOM     27  O   UNL     1       0.679  -1.533   9.462  0.00  0.00    -0.491 OA
ATOM     28  C   UNL     1       1.962  -1.264   8.891  0.00  0.00    +0.277 C 
ENDBRANCH  24  27
ENDBRANCH   1  22
BRANCH   5  29
ATOM     29  C   UNL     1       0.031   0.051   0.478  0.00  0.00    -0.016 A 
ATOM     30  C   UNL     1       1.232  -0.541   0.823  0.00  0.00    +0.055 A 
ATOM     31  C   UNL     1       2.420   0.157   0.669  0.00  0.00    +0.165 A 
ATOM     32  C   UNL     1       2.403   1.453   0.166  0.00  0.00    +0.201 A 
ATOM     33  C   UNL     1       1.194   2.044  -0.180  0.00  0.00    +0.165 A 
ATOM     34  C   UNL     1       0.010   1.339  -0.023  0.00  0.00    +0.055 A 
BRANCH  33  35
ATOM     35  O   UNL     1       1.171   3.311  -0.673  0.00  0.00    -0.491 OA
ATOM     36  C   UNL     1      -0.112   3.899  -0.893  0.00  0.00    +0.277 C 
ENDBRANCH  33  35
BRANCH  32  37
ATOM     37  O   UNL     1       3.567   2.141   0.014  0.00  0.00    -0.501 OA
ATOM     38  H   UNL     1       3.552   3.166  -0.384  0.00  0.00    +0.292 HD
ENDBRANCH  32  37
BRANCH  31  39
ATOM     39  O   UNL     1       3.601  -0.425   1.009  0.00  0.00    -0.491 OA
ATOM     40  C   UNL     1       3.543  -1.759   1.519  0.00  0.00    +0.277 C 
ENDBRANCH  31  39
ENDBRANCH   5  29
TORSDOF 7
