REMARK  Name = ZINC06195629
REMARK  12 active torsions:
REMARK  status: ('A' for Active; 'I' for Inactive)
REMARK    1  A    between atoms: C_1  and  C_2
REMARK    2  A    between atoms: C_5  and  C_38
REMARK    3  A    between atoms: C_6  and  N_8
REMARK    4  A    between atoms: C_13  and  C_15
REMARK    5  A    between atoms: C_13  and  C_29
REMARK    6  A    between atoms: C_13  and  N_72
REMARK    7  A    between atoms: C_18  and  C_28
REMARK    8  A    between atoms: C_20  and  C_27
REMARK    9  A    between atoms: N_33  and  C_34
REMARK   10  A    between atoms: C_34  and  C_35
REMARK   11  A    between atoms: C_35  and  O_36
REMARK   12  A    between atoms: O_36  and  C_37
REMARK                            x       y       z     vdW  Elec       q    Type
REMARK                         _______ _______ _______ _____ _____    ______ ____
ROOT
ATOM      1  C   UNL     1       4.838   4.233   0.028  0.00  0.00    +0.039 C 
ENDROOT
BRANCH   1   2
ATOM      2  C   UNL     1       3.666   3.295   0.160  0.00  0.00    +0.011 A 
ATOM      3  C   UNL     1       3.875   1.956   0.204  0.00  0.00    +0.018 A 
ATOM      4  C   UNL     1       2.715   1.071   0.333  0.00  0.00    +0.002 A 
ATOM      5  C   UNL     1       2.867  -0.319   0.383  0.00  0.00    -0.041 A 
ATOM      6  C   UNL     1       1.765  -1.116   0.503  0.00  0.00    +0.007 A 
ATOM      7  C   UNL     1       0.495  -0.560   0.577  0.00  0.00    -0.048 A 
ATOM      8  C   UNL     1       0.321   0.806   0.530  0.00  0.00    +0.029 A 
ATOM      9  C   UNL     1       1.429   1.639   0.407  0.00  0.00    +0.050 A 
ATOM     10  N   UNL     1       1.285   3.009   0.357  0.00  0.00    -0.322 N 
ATOM     11  H   UNL     1       0.398   3.398   0.409  0.00  0.00    +0.169 HD
ATOM     12  C   UNL     1       2.356   3.813   0.238  0.00  0.00    +0.251 A 
ATOM     13  O   UNL     1       2.191   5.020   0.197  0.00  0.00    -0.268 OA
ATOM     14  C   UNL     1      -0.707  -1.460   0.711  0.00  0.00    +0.044 C 
ATOM     15  C   UNL     1       4.241  -0.933   0.304  0.00  0.00    +0.044 C 
ENDBRANCH   1   2
BRANCH   1  21
ATOM     16  N   UNL     1       5.791   6.681   3.336  0.00  0.00    -0.333 N 
ATOM     17  C   UNL     1       4.736   5.672   3.507  0.00  0.00    +0.086 C 
ATOM     18  C   UNL     1       4.876   4.603   2.421  0.00  0.00    -0.058 C 
ATOM     19  C   UNL     1       5.839   6.246   0.927  0.00  0.00    -0.058 C 
ATOM     20  C   UNL     1       5.700   7.315   2.014  0.00  0.00    +0.086 C 
ATOM     21  N   UNL     1       4.760   5.251   1.097  0.00  0.00    +0.391 N 
ATOM     22  H   UNL     1       3.853   5.728   1.037  0.00  0.00    -0.080 HD
BRANCH  16  28
ATOM     23  C   UNL     1       3.403  10.339   5.588  0.00  0.00    +0.044 C 
ATOM     24  C   UNL     1       4.594   9.423   5.470  0.00  0.00    -0.049 A 
ATOM     25  C   UNL     1       5.638   9.527   6.371  0.00  0.00    +0.004 A 
ATOM     26  C   UNL     1       6.732   8.688   6.267  0.00  0.00    +0.005 A 
ATOM     27  C   UNL     1       6.784   7.740   5.264  0.00  0.00    -0.029 A 
ATOM     28  C   UNL     1       5.740   7.636   4.354  0.00  0.00    +0.033 A 
ATOM     29  C   UNL     1       4.642   8.480   4.462  0.00  0.00    +0.026 A 
ATOM     30  C   UNL     1       7.974   6.822   5.154  0.00  0.00    +0.045 C 
ENDBRANCH  16  28
ENDBRANCH   1  21
BRANCH   1  31
ATOM     31  C   UNL     1       4.781   4.922  -1.311  0.00  0.00    +0.143 A 
ATOM     32  N   UNL     1       3.967   5.888  -1.660  0.00  0.00    -0.115 NA
ATOM     33  N   UNL     1       4.231   6.210  -2.880  0.00  0.00    -0.023 NA
ATOM     34  N   UNL     1       5.186   5.468  -3.321  0.00  0.00    -0.044 NA
ATOM     35  N   UNL     1       5.553   4.661  -2.383  0.00  0.00    -0.228 N 
BRANCH  35  36
ATOM     36  C   UNL     1       6.611   3.651  -2.468  0.00  0.00    +0.175 C 
BRANCH  36  37
ATOM     37  C   UNL     1       6.015   2.329  -2.956  0.00  0.00    +0.183 C 
BRANCH  37  38
ATOM     38  O   UNL     1       7.046   1.344  -3.039  0.00  0.00    -0.381 OA
ATOM     39  C   UNL     1       6.594   0.064  -3.487  0.00  0.00    +0.194 C 
ENDBRANCH  37  38
ENDBRANCH  36  37
ENDBRANCH  35  36
ENDBRANCH   1  31
TORSDOF 7
