REMARK  Name = ZINC40003970
REMARK  9 active torsions:
REMARK  status: ('A' for Active; 'I' for Inactive)
REMARK    1  A    between atoms: C_1  and  C_2
REMARK    2  A    between atoms: C_9  and  C_40
REMARK    3  A    between atoms: C_10  and  C_11
REMARK    4  A    between atoms: C_11  and  C_13
REMARK    5  A    between atoms: N_17  and  C_33
REMARK    6  A    between atoms: C_18  and  C_20
REMARK    7  A    between atoms: C_24  and  O_26
REMARK    8  A    between atoms: O_26  and  C_27
REMARK    9  A    between atoms: C_33  and  C_34
REMARK                            x       y       z     vdW  Elec       q    Type
REMARK                         _______ _______ _______ _____ _____    ______ ____
ROOT
ATOM      1  C   UNL     1      -0.167  -4.721   4.590  0.00  0.00    +0.078 C 
ATOM      2  C   UNL     1      -0.200  -5.904   5.244  0.00  0.00    +0.249 C 
ATOM      3  C   UNL     1      -0.623  -5.676   6.639  0.00  0.00    +0.288 C 
ATOM      4  O   UNL     1      -0.749  -6.545   7.480  0.00  0.00    -0.266 OA
ATOM      5  N   UNL     1      -0.848  -4.365   6.844  0.00  0.00    -0.276 N 
ATOM      6  C   UNL     1      -0.577  -3.660   5.585  0.00  0.00    +0.145 C 
ATOM      7  O   UNL     1       0.106  -7.107   4.704  0.00  0.00    -0.282 OA
ENDROOT
BRANCH   6   8
ATOM      8  C   UNL     1       0.540  -2.667   5.775  0.00  0.00    -0.019 A 
ATOM      9  C   UNL     1       1.709  -3.054   6.403  0.00  0.00    +0.006 A 
ATOM     10  C   UNL     1       2.736  -2.144   6.578  0.00  0.00    +0.004 A 
ATOM     11  C   UNL     1       2.596  -0.847   6.126  0.00  0.00    +0.046 A 
ATOM     12  C   UNL     1       1.424  -0.456   5.495  0.00  0.00    +0.129 A 
ATOM     13  C   UNL     1       0.397  -1.372   5.316  0.00  0.00    +0.052 A 
BRANCH  12  14
ATOM     14  O   UNL     1       1.283   0.820   5.049  0.00  0.00    -0.456 OA
BRANCH  14  15
ATOM     15  C   UNL     1       0.080   1.188   4.536  0.00  0.00    +0.128 A 
ATOM     16  C   UNL     1      -0.988   1.444   5.383  0.00  0.00    +0.046 A 
ATOM     17  C   UNL     1      -2.210   1.818   4.859  0.00  0.00    +0.004 A 
ATOM     18  C   UNL     1      -2.370   1.935   3.490  0.00  0.00    +0.000 A 
ATOM     19  C   UNL     1      -1.307   1.680   2.644  0.00  0.00    +0.004 A 
ATOM     20  C   UNL     1      -0.081   1.312   3.163  0.00  0.00    +0.046 A 
ENDBRANCH  14  15
ENDBRANCH  12  14
ENDBRANCH   6   8
BRANCH   1  21
ATOM     21  C   UNL     1       0.204  -4.507   3.186  0.00  0.00    +0.213 C 
ATOM     22  O   UNL     1       1.304  -4.060   2.906  0.00  0.00    -0.285 OA
BRANCH  21  32
ATOM     23  C   UNL     1      -2.969  -5.614  -1.923  0.00  0.00    +0.047 C 
ATOM     24  C   UNL     1      -1.700  -5.196  -1.227  0.00  0.00    -0.008 A 
ATOM     25  C   UNL     1      -0.596  -4.857  -1.953  0.00  0.00    +0.008 A 
ATOM     26  C   UNL     1       0.577  -4.470  -1.291  0.00  0.00    +0.018 A 
ATOM     27  C   UNL     1       0.612  -4.433   0.062  0.00  0.00    +0.093 A 
ATOM     28  N   UNL     1      -0.484  -4.769   0.792  0.00  0.00    -0.296 N 
ATOM     29  C   UNL     1      -1.644  -5.145   0.176  0.00  0.00    +0.141 A 
ATOM     30  N   UNL     1      -2.556  -5.412   1.112  0.00  0.00    -0.232 NA
ATOM     31  C   UNL     1      -2.038  -5.220   2.312  0.00  0.00    +0.068 A 
ATOM     32  C   UNL     1      -0.717  -4.819   2.155  0.00  0.00    +0.116 A 
ATOM     33  C   UNL     1      -2.752  -5.415   3.625  0.00  0.00    +0.068 C 
ENDBRANCH  21  32
ENDBRANCH   1  21
BRANCH   5  34
ATOM     34  C   UNL     1      -1.282  -3.751   8.101  0.00  0.00    +0.183 C 
BRANCH  34  35
ATOM     35  C   UNL     1      -0.074  -3.366   8.915  0.00  0.00    +0.122 A 
ATOM     36  C   UNL     1       0.562  -2.181   8.867  0.00  0.00    +0.046 A 
ATOM     37  C   UNL     1       1.633  -2.253   9.788  0.00  0.00    +0.041 A 
ATOM     38  C   UNL     1       1.586  -3.477  10.344  0.00  0.00    +0.195 A 
ATOM     39  O   UNL     1       0.547  -4.144   9.816  0.00  0.00    -0.466 OA
ENDBRANCH  34  35
ENDBRANCH   5  34
TORSDOF 7
