REMARK  Name = ZINC40823717
REMARK  7 active torsions:
REMARK  status: ('A' for Active; 'I' for Inactive)
REMARK    1  A    between atoms: C_1  and  C_2
REMARK    2  A    between atoms: C_6  and  C_7
REMARK    3  A    between atoms: N_9  and  N_10
REMARK    4  A    between atoms: N_10  and  C_11
REMARK    5  A    between atoms: N_10  and  C_17
REMARK    6  A    between atoms: N_27  and  N_28
REMARK    7  A    between atoms: C_29  and  C_31
REMARK                            x       y       z     vdW  Elec       q    Type
REMARK                         _______ _______ _______ _____ _____    ______ ____
ROOT
ATOM      1  C   UNL     1      -0.637  -1.131  -0.510  0.00  0.00    +0.048 C 
ATOM      2  C   UNL     1      -0.640  -2.450   0.220  0.00  0.00    +0.009 A 
ATOM      3  C   UNL     1      -0.799  -3.722  -0.343  0.00  0.00    +0.042 A 
ATOM      4  C   UNL     1      -0.739  -4.637   0.682  0.00  0.00    +0.115 A 
ATOM      5  O   UNL     1      -0.549  -3.970   1.818  0.00  0.00    -0.454 OA
ATOM      6  C   UNL     1      -0.482  -2.643   1.564  0.00  0.00    +0.194 A 
ATOM      7  C   UNL     1      -0.877  -6.122   0.464  0.00  0.00    +0.075 C 
ATOM      8  C   UNL     1      -1.577  -6.377  -0.874  0.00  0.00    +0.014 C 
ATOM      9  C   UNL     1      -0.867  -5.630  -2.007  0.00  0.00    +0.058 C 
ATOM     10  C   UNL     1      -0.999  -4.136  -1.749  0.00  0.00    +0.070 C 
ATOM     11  N   UNL     1      -1.268  -3.288  -2.694  0.00  0.00    -0.184 NA
ENDROOT
BRANCH   6  12
ATOM     12  C   UNL     1      -0.278  -1.589   2.564  0.00  0.00    +0.296 C 
ATOM     13  O   UNL     1      -0.237  -0.423   2.219  0.00  0.00    -0.265 OA
ATOM     14  N   UNL     1      -0.135  -1.913   3.865  0.00  0.00    -0.223 N 
ATOM     15  H   UNL     1      -0.167  -2.842   4.140  0.00  0.00    +0.174 HD
BRANCH  14  16
ATOM     16  N   UNL     1       0.060  -0.906   4.819  0.00  0.00    -0.219 N 
BRANCH  16  17
ATOM     17  C   UNL     1      -1.012  -0.103   5.218  0.00  0.00    +0.053 A 
ATOM     18  C   UNL     1      -0.788   1.013   6.013  0.00  0.00    +0.025 A 
ATOM     19  C   UNL     1      -1.850   1.804   6.405  0.00  0.00    +0.002 A 
ATOM     20  C   UNL     1      -3.135   1.486   6.006  0.00  0.00    +0.000 A 
ATOM     21  C   UNL     1      -3.362   0.374   5.215  0.00  0.00    +0.002 A 
ATOM     22  C   UNL     1      -2.304  -0.417   4.815  0.00  0.00    +0.025 A 
ENDBRANCH  16  17
BRANCH  16  23
ATOM     23  C   UNL     1       1.327  -0.704   5.373  0.00  0.00    +0.053 A 
ATOM     24  C   UNL     1       2.422  -0.487   4.546  0.00  0.00    +0.025 A 
ATOM     25  C   UNL     1       3.673  -0.288   5.097  0.00  0.00    +0.002 A 
ATOM     26  C   UNL     1       3.836  -0.306   6.470  0.00  0.00    +0.000 A 
ATOM     27  C   UNL     1       2.748  -0.522   7.296  0.00  0.00    +0.002 A 
ATOM     28  C   UNL     1       1.494  -0.716   6.752  0.00  0.00    +0.025 A 
ENDBRANCH  16  23
ENDBRANCH  14  16
ENDBRANCH   6  12
BRANCH  11  29
ATOM     29  N   UNL     1      -1.447  -3.737  -4.008  0.00  0.00    -0.202 N 
ATOM     30  C   UNL     1      -1.726  -2.856  -4.989  0.00  0.00    +0.270 C 
ATOM     31  O   UNL     1      -1.822  -1.669  -4.733  0.00  0.00    -0.268 OA
ATOM     32  H   UNL     1      -1.370  -4.682  -4.213  0.00  0.00    +0.178 HD
BRANCH  30  33
ATOM     33  C   UNL     1      -1.913  -3.325  -6.365  0.00  0.00    +0.075 A 
ATOM     34  C   UNL     1      -2.197  -2.593  -7.508  0.00  0.00    +0.021 A 
ATOM     35  C   UNL     1      -2.318  -3.320  -8.668  0.00  0.00    +0.008 A 
ATOM     36  C   UNL     1      -2.156  -4.665  -8.622  0.00  0.00    +0.046 A 
ATOM     37  S   UNL     1      -1.828  -4.986  -7.006  0.00  0.00    -0.092 S 
ENDBRANCH  30  33
ENDBRANCH  11  29
TORSDOF 6
