REMARK  Name = ZINC59168586
REMARK  3 active torsions:
REMARK  status: ('A' for Active; 'I' for Inactive)
REMARK    1  A    between atoms: C_5  and  C_7
REMARK    2  A    between atoms: C_13  and  C_16
REMARK    3  A    between atoms: C_19  and  O_22
REMARK                            x       y       z     vdW  Elec       q    Type
REMARK                         _______ _______ _______ _____ _____    ______ ____
ROOT
ATOM      1  C   UNL     1       1.249  -2.161  -0.022  0.00  0.00    +0.183 A 
ATOM      2  N   UNL     1       2.321  -2.913  -0.032  0.00  0.00    -0.127 NA
ATOM      3  N   UNL     1       1.986  -4.155  -0.049  0.00  0.00    -0.120 NA
ATOM      4  C   UNL     1       0.691  -4.258  -0.068  0.00  0.00    +0.211 A 
ATOM      5  N   UNL     1       0.141  -3.002  -0.016  0.00  0.00    -0.220 N 
ATOM      6  N   UNL     1      -1.215  -2.872   0.044  0.00  0.00    -0.263 N 
ATOM      7  C   UNL     1      -1.981  -4.049  -0.445  0.00  0.00    +0.183 C 
ATOM      8  S   UNL     1      -0.713  -5.351  -0.134  0.00  0.00    -0.056 S 
ATOM      9  H   UNL     1      -1.512  -2.607   0.971  0.00  0.00    +0.168 HD
ENDROOT
BRANCH   1  14
ATOM     10  C   UNL     1      -0.017   1.375   0.010  0.00  0.00    +0.001 A 
ATOM     11  C   UNL     1       1.170   2.087   0.002  0.00  0.00    +0.001 A 
ATOM     12  C   UNL     1       2.383   1.422  -0.013  0.00  0.00    +0.021 A 
ATOM     13  C   UNL     1       2.416   0.041  -0.021  0.00  0.00    +0.052 A 
ATOM     14  C   UNL     1       1.222  -0.683  -0.013  0.00  0.00    +0.039 A 
ATOM     15  C   UNL     1       0.002  -0.004   0.002  0.00  0.00    +0.013 A 
ATOM     16 CL   UNL     1       3.939  -0.792  -0.042  0.00  0.00    -0.083 Cl
ENDBRANCH   1  14
BRANCH   7  17
ATOM     17  C   UNL     1      -3.229  -4.276   0.368  0.00  0.00    -0.015 A 
ATOM     18  C   UNL     1      -3.262  -3.907   1.700  0.00  0.00    +0.010 A 
ATOM     19  C   UNL     1      -4.405  -4.114   2.447  0.00  0.00    +0.046 A 
ATOM     20  C   UNL     1      -5.521  -4.692   1.860  0.00  0.00    +0.117 A 
ATOM     21  C   UNL     1      -5.486  -5.060   0.523  0.00  0.00    +0.046 A 
ATOM     22  C   UNL     1      -4.343  -4.846  -0.222  0.00  0.00    +0.010 A 
BRANCH  20  23
ATOM     23  O   UNL     1      -6.647  -4.897   2.594  0.00  0.00    -0.507 OA
ATOM     24  H   UNL     1      -7.267  -4.155   2.578  0.00  0.00    +0.292 HD
ENDBRANCH  20  23
ENDBRANCH   7  17
TORSDOF 3
