REMARK  Name = ZINC15008089
REMARK  9 active torsions:
REMARK  status: ('A' for Active; 'I' for Inactive)
REMARK    1  A    between atoms: C_1  and  C_2
REMARK    2  A    between atoms: C_3  and  C_4
REMARK    3  A    between atoms: C_4  and  N_5
REMARK    4  A    between atoms: C_8  and  C_12
REMARK    5  A    between atoms: C_8  and  C_21
REMARK    6  A    between atoms: C_12  and  C_13
REMARK    7  A    between atoms: C_13  and  C_14
REMARK    8  A    between atoms: C_14  and  C_15
REMARK    9  A    between atoms: C_26  and  N_70
REMARK                            x       y       z     vdW  Elec       q    Type
REMARK                         _______ _______ _______ _____ _____    ______ ____
ROOT
ATOM      1  N   UNL     1       1.075   1.917  -0.014  0.00  0.00    -0.212 N 
ATOM      2  C   UNL     1       0.806   3.238  -0.016  0.00  0.00    +0.248 C 
ATOM      3  O   UNL     1       1.606   4.149  -0.037  0.00  0.00    -0.273 OA
ATOM      4  C   UNL     1      -0.706   3.348   0.013  0.00  0.00    +0.115 C 
ATOM      5  N   UNL     1      -1.155   1.945   0.024  0.00  0.00    -0.285 N 
ATOM      6  C   UNL     1      -0.045   1.186   0.012  0.00  0.00    +0.310 C 
ATOM      7  O   UNL     1      -0.058  -0.030   0.019  0.00  0.00    -0.252 OA
ATOM      8  H   UNL     1      -2.072   1.630   0.039  0.00  0.00    +0.151 HD
ENDROOT
BRANCH   4   9
ATOM      9  C   UNL     1      -1.218   4.066  -1.238  0.00  0.00    +0.018 C 
ATOM     10  C   UNL     1      -2.746   4.145  -1.192  0.00  0.00    -0.013 C 
ATOM     11  C   UNL     1      -3.256   4.807  -2.475  0.00  0.00    -0.078 C 
ATOM     12  C   UNL     1      -1.356   3.976  -3.729  0.00  0.00    -0.078 C 
ATOM     13  C   UNL     1      -0.790   3.288  -2.485  0.00  0.00    -0.013 C 
ATOM     14  N   UNL     1      -2.832   3.997  -3.636  0.00  0.00    +0.382 N 
ATOM     15  H   UNL     1      -3.171   3.036  -3.513  0.00  0.00    -0.081 HD
BRANCH  14  16
ATOM     16  C   UNL     1      -3.407   4.555  -4.877  0.00  0.00    -0.060 C 
ATOM     17  C   UNL     1      -4.949   4.519  -4.814  0.00  0.00    +0.020 C 
ATOM     18  C   UNL     1      -5.397   4.201  -6.224  0.00  0.00    -0.046 A 
ATOM     19  C   UNL     1      -6.634   4.351  -6.828  0.00  0.00    +0.004 A 
ATOM     20  C   UNL     1      -6.811   3.986  -8.149  0.00  0.00    +0.000 A 
ATOM     21  C   UNL     1      -5.751   3.471  -8.871  0.00  0.00    +0.000 A 
ATOM     22  C   UNL     1      -4.516   3.322  -8.270  0.00  0.00    +0.004 A 
ATOM     23  C   UNL     1      -4.336   3.687  -6.946  0.00  0.00    -0.046 A 
ATOM     24  C   UNL     1      -3.104   3.623  -6.070  0.00  0.00    +0.020 C 
ENDBRANCH  14  16
ENDBRANCH   4   9
BRANCH   1  25
ATOM     25  C   UNL     1       2.426   1.353  -0.039  0.00  0.00    +0.206 C 
BRANCH  25  28
ATOM     26  C   UNL     1       3.614   0.803  -3.943  0.00  0.00    +0.106 C 
ATOM     27  C   UNL     1       3.190   1.000  -2.547  0.00  0.00    -0.104 C 
ATOM     28  C   UNL     1       2.851   1.157  -1.434  0.00  0.00    -0.083 C 
ENDBRANCH  25  28
ENDBRANCH   1  25
BRANCH   4  29
ATOM     29  C   UNL     1      -1.168   4.076   1.277  0.00  0.00    +0.036 C 
BRANCH  29  30
ATOM     30  C   UNL     1      -0.689   3.310   2.511  0.00  0.00    +0.007 C 
BRANCH  30  31
ATOM     31  C   UNL     1      -1.151   4.039   3.775  0.00  0.00    +0.035 C 
BRANCH  31  32
ATOM     32  C   UNL     1      -0.678   3.284   4.991  0.00  0.00    -0.047 A 
ATOM     33  C   UNL     1      -1.477   2.304   5.549  0.00  0.00    +0.003 A 
ATOM     34  C   UNL     1      -1.042   1.609   6.662  0.00  0.00    +0.000 A 
ATOM     35  C   UNL     1       0.188   1.900   7.222  0.00  0.00    +0.000 A 
ATOM     36  C   UNL     1       0.984   2.884   6.666  0.00  0.00    +0.000 A 
ATOM     37  C   UNL     1       0.551   3.576   5.551  0.00  0.00    +0.003 A 
ENDBRANCH  31  32
ENDBRANCH  30  31
ENDBRANCH  29  30
ENDBRANCH   4  29
TORSDOF 8
