REMARK  Name = ZINC13143491
REMARK  6 active torsions:
REMARK  status: ('A' for Active; 'I' for Inactive)
REMARK    1  A    between atoms: C_1  and  C_2
REMARK    2  A    between atoms: N_4  and  S_5
REMARK    3  A    between atoms: S_5  and  C_8
REMARK    4  A    between atoms: C_11  and  N_14
REMARK    5  A    between atoms: C_15  and  C_17
REMARK    6  A    between atoms: C_24  and  C_26
REMARK                            x       y       z     vdW  Elec       q    Type
REMARK                         _______ _______ _______ _____ _____    ______ ____
ROOT
ATOM      1  N   UNL     1      -2.870  -1.962   5.138  0.00  0.00    -0.285 N 
ATOM      2  C   UNL     1      -2.453  -3.242   5.193  0.00  0.00    +0.222 C 
ATOM      3  O   UNL     1      -1.942  -3.756   4.221  0.00  0.00    -0.275 OA
ATOM      4  H   UNL     1      -3.254  -1.468   6.043  0.00  0.00    +0.155 HD
ENDROOT
BRANCH   2   5
ATOM      5  C   UNL     1      -2.622  -4.035   6.464  0.00  0.00    +0.096 C 
ATOM      6  C   UNL     1      -2.019  -5.467   6.302  0.00  0.00    +0.025 C 
ATOM      7  C   UNL     1      -1.699  -5.811   7.803  0.00  0.00    +0.016 C 
ATOM      8  C   UNL     1      -0.783  -4.547   7.993  0.00  0.00    +0.027 C 
ATOM      9  C   UNL     1      -1.789  -3.410   7.610  0.00  0.00    +0.121 C 
ATOM     10  C   UNL     1       0.114  -4.686   6.758  0.00  0.00    -0.027 C 
ATOM     11  C   UNL     1      -0.605  -5.217   5.762  0.00  0.00    -0.027 C 
BRANCH   9  12
ATOM     12  C   UNL     1      -2.674  -3.065   8.780  0.00  0.00    +0.360 C 
ATOM     13  O   UNL     1      -3.860  -3.287   8.727  0.00  0.00    -0.246 OA
ATOM     14  O   UNL     1      -2.143  -2.510   9.881  0.00  0.00    -0.246 OA
ENDBRANCH   9  12
ENDBRANCH   2   5
BRANCH   1  18
ATOM     15  C   UNL     1      -2.708   0.128   1.537  0.00  0.00    +0.113 A 
ATOM     16  C   UNL     1      -2.503   0.794   2.731  0.00  0.00    +0.031 A 
ATOM     17  C   UNL     1      -2.561   0.105   3.927  0.00  0.00    +0.025 A 
ATOM     18  C   UNL     1      -2.815  -1.260   3.928  0.00  0.00    +0.034 A 
ATOM     19  C   UNL     1      -3.016  -1.927   2.727  0.00  0.00    +0.025 A 
ATOM     20  C   UNL     1      -2.962  -1.232   1.535  0.00  0.00    +0.031 A 
BRANCH  15  21
ATOM     21  S   UNL     1      -2.639   1.011   0.014  0.00  0.00    +0.102 S 
ATOM     22  O   UNL     1      -2.319   0.061  -0.993  0.00  0.00    -0.146 OA
ATOM     23  O   UNL     1      -1.848   2.167   0.251  0.00  0.00    -0.146 OA
BRANCH  21  27
ATOM     24  C   UNL     1      -6.151   2.940   0.202  0.00  0.00    +0.116 C 
ATOM     25  C   UNL     1      -4.758   2.449   0.501  0.00  0.00    +0.262 C 
ATOM     26  O   UNL     1      -4.162   2.869   1.470  0.00  0.00    -0.270 OA
ATOM     27  N   UNL     1      -4.173   1.546  -0.311  0.00  0.00    -0.091 NA
ENDBRANCH  21  27
ENDBRANCH  15  21
ENDBRANCH   1  18
TORSDOF 5
