REMARK  Name = ZINC12647411
REMARK  8 active torsions:
REMARK  status: ('A' for Active; 'I' for Inactive)
REMARK    1  A    between atoms: C_1  and  N_2
REMARK    2  A    between atoms: C_6  and  S_7
REMARK    3  A    between atoms: S_7  and  C_8
REMARK    4  A    between atoms: C_11  and  N_14
REMARK    5  A    between atoms: N_14  and  S_15
REMARK    6  A    between atoms: S_15  and  C_18
REMARK    7  A    between atoms: C_23  and  O_24
REMARK    8  A    between atoms: O_24  and  C_25
REMARK                            x       y       z     vdW  Elec       q    Type
REMARK                         _______ _______ _______ _____ _____    ______ ____
ROOT
ATOM      1  N   UNL     1      -2.988   1.197   1.557  0.00  0.00    -0.216 N 
ATOM      2  H   UNL     1      -3.678   0.892   2.166  0.00  0.00    +0.174 HD
ENDROOT
BRANCH   1   6
ATOM      3  C   UNL     1      -0.590   4.449   2.586  0.00  0.00    +0.016 A 
ATOM      4  C   UNL     1      -1.965   4.514   2.772  0.00  0.00    +0.017 A 
ATOM      5  C   UNL     1      -2.759   3.437   2.431  0.00  0.00    +0.025 A 
ATOM      6  C   UNL     1      -2.183   2.289   1.903  0.00  0.00    +0.048 A 
ATOM      7  C   UNL     1      -0.807   2.222   1.722  0.00  0.00    +0.025 A 
ATOM      8  C   UNL     1      -0.014   3.301   2.058  0.00  0.00    +0.017 A 
BRANCH   3   9
ATOM      9  S   UNL     1       0.424   5.822   3.022  0.00  0.00    -0.052 S 
BRANCH   9  15
ATOM     10  C   UNL     1       2.169   7.439   5.271  0.00  0.00    +0.151 C 
ATOM     11  N   UNL     1       1.637   6.096   5.516  0.00  0.00    -0.328 N 
ATOM     12  C   UNL     1       1.781   5.356   6.667  0.00  0.00    +0.107 A 
ATOM     13  C   UNL     1       1.146   4.189   6.465  0.00  0.00    +0.131 A 
ATOM     14  N   UNL     1       0.618   4.203   5.230  0.00  0.00    -0.230 NA
ATOM     15  C   UNL     1       0.903   5.345   4.649  0.00  0.00    +0.173 A 
ENDBRANCH   9  15
ENDBRANCH   3   9
ENDBRANCH   1   6
BRANCH   1  16
ATOM     16  S   UNL     1      -2.762   0.428   0.108  0.00  0.00    +0.076 S 
ATOM     17  O   UNL     1      -3.759  -0.582   0.025  0.00  0.00    -0.150 OA
ATOM     18  O   UNL     1      -1.374   0.137   0.014  0.00  0.00    -0.150 OA
BRANCH  16  19
ATOM     19  C   UNL     1      -3.119   1.595  -1.163  0.00  0.00    +0.151 A 
ATOM     20  C   UNL     1      -2.125   1.994  -2.034  0.00  0.00    +0.047 A 
ATOM     21  C   UNL     1      -2.403   2.914  -3.029  0.00  0.00    +0.020 A 
ATOM     22  C   UNL     1      -3.680   3.433  -3.155  0.00  0.00    +0.019 A 
ATOM     23  C   UNL     1      -4.678   3.033  -2.289  0.00  0.00    +0.049 A 
ATOM     24  C   UNL     1      -4.401   2.110  -1.292  0.00  0.00    +0.147 A 
ATOM     25 BR   UNL     1      -1.038   3.464  -4.216  0.00  0.00    -0.050 Br
BRANCH  24  26
ATOM     26  O   UNL     1      -5.382   1.714  -0.438  0.00  0.00    -0.493 OA
ATOM     27  C   UNL     1      -6.644   2.376  -0.550  0.00  0.00    +0.277 C 
ENDBRANCH  24  26
ENDBRANCH  16  19
ENDBRANCH   1  16
TORSDOF 6
