REMARK  Name = ZINC09441376
REMARK  6 active torsions:
REMARK  status: ('A' for Active; 'I' for Inactive)
REMARK    1  A    between atoms: C_1  and  C_2
REMARK    2  A    between atoms: C_3  and  C_20
REMARK    3  A    between atoms: C_4  and  C_10
REMARK    4  A    between atoms: C_14  and  N_16
REMARK    5  A    between atoms: N_22  and  C_23
REMARK    6  A    between atoms: C_28  and  C_29
REMARK                            x       y       z     vdW  Elec       q    Type
REMARK                         _______ _______ _______ _____ _____    ______ ____
ROOT
ATOM      1  C   UNL     1       3.190   3.487  -0.754  0.00  0.00    +0.061 C 
ATOM      2  C   UNL     1       2.127   2.545  -0.250  0.00  0.00    +0.019 C 
ATOM      3  C   UNL     1       2.450   1.262   0.018  0.00  0.00    +0.056 C 
ATOM      4  C   UNL     1       1.352   0.349   0.522  0.00  0.00    +0.142 C 
ATOM      5  N   UNL     1       0.012   0.940   0.680  0.00  0.00    -0.288 N 
ATOM      6  C   UNL     1      -0.156   2.241   0.370  0.00  0.00    +0.304 C 
ATOM      7  O   UNL     1      -1.259   2.737   0.492  0.00  0.00    -0.252 OA
ATOM      8  N   UNL     1       0.852   3.003  -0.072  0.00  0.00    -0.273 N 
ATOM      9  H   UNL     1      -0.732   0.405   0.998  0.00  0.00    +0.151 HD
ATOM     10  H   UNL     1       0.667   3.933  -0.278  0.00  0.00    +0.156 HD
ENDROOT
BRANCH   4  11
ATOM     11  C   UNL     1       1.238  -0.812  -0.432  0.00  0.00    -0.020 A 
ATOM     12  C   UNL     1       0.483  -0.688  -1.584  0.00  0.00    +0.007 A 
ATOM     13  C   UNL     1       0.378  -1.752  -2.459  0.00  0.00    +0.022 A 
ATOM     14  C   UNL     1       1.030  -2.942  -2.183  0.00  0.00    +0.071 A 
ATOM     15  C   UNL     1       1.785  -3.065  -1.031  0.00  0.00    +0.145 A 
ATOM     16  C   UNL     1       1.893  -1.998  -0.159  0.00  0.00    +0.040 A 
ATOM     17 CL   UNL     1       0.898  -4.279  -3.282  0.00  0.00    -0.081 Cl
BRANCH  15  18
ATOM     18  N   UNL     1       2.482  -4.336  -0.735  0.00  0.00    +0.058 N 
ATOM     19  O   UNL     1       3.066  -4.479   0.325  0.00  0.00    -0.126 OA
ATOM     20  O   UNL     1       2.471  -5.241  -1.551  0.00  0.00    -0.126 OA
ENDBRANCH  15  18
ENDBRANCH   4  11
BRANCH   3  21
ATOM     21  C   UNL     1       3.772   0.786  -0.167  0.00  0.00    +0.248 C 
ATOM     22  O   UNL     1       4.522   0.687   0.787  0.00  0.00    -0.270 OA
ATOM     23  N   UNL     1       4.198   0.442  -1.398  0.00  0.00    -0.281 N 
ATOM     24  H   UNL     1       3.574   0.424  -2.140  0.00  0.00    +0.155 HD
BRANCH  23  25
ATOM     25  C   UNL     1       5.541   0.112  -1.606  0.00  0.00    +0.045 A 
ATOM     26  C   UNL     1       6.277  -0.482  -0.589  0.00  0.00    +0.024 A 
ATOM     27  C   UNL     1       7.603  -0.807  -0.797  0.00  0.00    +0.002 A 
ATOM     28  C   UNL     1       8.198  -0.541  -2.017  0.00  0.00    +0.001 A 
ATOM     29  C   UNL     1       7.469   0.051  -3.031  0.00  0.00    +0.014 A 
ATOM     30  C   UNL     1       6.140   0.374  -2.831  0.00  0.00    +0.076 A 
BRANCH  30  31
ATOM     31  C   UNL     1       5.344   1.013  -3.939  0.00  0.00    +0.419 C 
ATOM     32  F   UNL     1       6.150   1.149  -5.074  0.00  0.00    -0.166 F 
ATOM     33  F   UNL     1       4.241   0.209  -4.244  0.00  0.00    -0.166 F 
ATOM     34  F   UNL     1       4.902   2.275  -3.527  0.00  0.00    -0.166 F 
ENDBRANCH  30  31
ENDBRANCH  23  25
ENDBRANCH   3  21
TORSDOF 5
