REMARK  Name = ZINC22684084
REMARK  11 active torsions:
REMARK  status: ('A' for Active; 'I' for Inactive)
REMARK    1  A    between atoms: C_1  and  C_2
REMARK    2  A    between atoms: C_2  and  C_3
REMARK    3  A    between atoms: C_6  and  C_9
REMARK    4  A    between atoms: C_9  and  C_11
REMARK    5  A    between atoms: C_9  and  N_30
REMARK    6  A    between atoms: C_11  and  N_12
REMARK    7  A    between atoms: C_13  and  C_15
REMARK    8  A    between atoms: C_19  and  C_29
REMARK    9  A    between atoms: N_20  and  C_22
REMARK   10  A    between atoms: N_30  and  C_31
REMARK   11  A    between atoms: N_30  and  C_32
REMARK                            x       y       z     vdW  Elec       q    Type
REMARK                         _______ _______ _______ _____ _____    ______ ____
ROOT
ATOM      1  N   UNL     1       0.654  -5.168   1.897  0.00  0.00    -0.311 N 
ATOM      2  C   UNL     1      -0.003  -4.641   0.844  0.00  0.00    +0.268 C 
ATOM      3  O   UNL     1       0.082  -5.165  -0.250  0.00  0.00    -0.268 OA
ATOM      4  H   UNL     1       0.577  -4.693   2.886  0.00  0.00    +0.149 HD
ENDROOT
BRANCH   2   5
ATOM      5  C   UNL     1      -0.825  -3.427   1.019  0.00  0.00    +0.192 A 
ATOM      6  C   UNL     1      -1.546  -2.840  -0.121  0.00  0.00    +0.213 A 
ATOM      7  O   UNL     1      -1.487  -3.336  -1.235  0.00  0.00    -0.285 OA
ATOM      8  C   UNL     1      -2.318  -1.676   0.130  0.00  0.00    +0.076 A 
ATOM      9  C   UNL     1      -2.328  -1.184   1.392  0.00  0.00    +0.044 A 
ATOM     10  N   UNL     1      -1.630  -1.794   2.381  0.00  0.00    -0.236 N 
ATOM     11  N   UNL     1      -0.925  -2.849   2.197  0.00  0.00    -0.158 NA
ATOM     12  C   UNL     1      -3.130   0.054   1.702  0.00  0.00    +0.066 C 
BRANCH  10  13
ATOM     13  C   UNL     1      -1.682  -1.245   3.667  0.00  0.00    +0.066 A 
ATOM     14  C   UNL     1      -1.513   0.122   3.847  0.00  0.00    +0.029 A 
ATOM     15  C   UNL     1      -1.570   0.662   5.117  0.00  0.00    +0.022 A 
ATOM     16  C   UNL     1      -1.785  -0.160   6.210  0.00  0.00    +0.041 A 
ATOM     17  C   UNL     1      -1.947  -1.523   6.034  0.00  0.00    +0.022 A 
ATOM     18  C   UNL     1      -1.896  -2.067   4.766  0.00  0.00    +0.029 A 
ATOM     19 CL   UNL     1      -1.849   0.521   7.806  0.00  0.00    -0.084 Cl
ENDBRANCH  10  13
ENDBRANCH   2   5
BRANCH   1  20
ATOM     20  C   UNL     1       1.469  -6.372   1.723  0.00  0.00    +0.094 C 
BRANCH  20  21
ATOM     21  C   UNL     1       2.232  -6.663   3.017  0.00  0.00    -0.021 C 
BRANCH  21  25
ATOM     22  C   UNL     1       4.178 -10.452   2.703  0.00  0.00    -0.048 A 
ATOM     23  C   UNL     1       2.887 -10.377   3.193  0.00  0.00    +0.004 A 
ATOM     24  C   UNL     1       2.258  -9.150   3.295  0.00  0.00    +0.002 A 
ATOM     25  C   UNL     1       2.918  -8.000   2.907  0.00  0.00    -0.059 A 
ATOM     26  C   UNL     1       4.207  -8.076   2.412  0.00  0.00    +0.002 A 
ATOM     27  C   UNL     1       4.838  -9.302   2.315  0.00  0.00    +0.004 A 
BRANCH  22  29
ATOM     28  C   UNL     1       4.579 -12.396   1.216  0.00  0.00    +0.009 C 
ATOM     29  C   UNL     1       4.864 -11.789   2.591  0.00  0.00    +0.032 C 
ENDBRANCH  22  29
ENDBRANCH  21  25
BRANCH  21  30
ATOM     30  N   UNL     1       3.236  -5.614   3.240  0.00  0.00    +0.382 N 
ATOM     31  C   UNL     1       3.762  -5.110   1.964  0.00  0.00    -0.096 C 
ATOM     32  C   UNL     1       2.683  -4.520   4.050  0.00  0.00    -0.096 C 
ATOM     33  H   UNL     1       4.072  -6.059   3.799  0.00  0.00    -0.082 HD
ENDBRANCH  21  30
ENDBRANCH  20  21
ENDBRANCH   1  20
TORSDOF 7
