REMARK  Name = ZINC08854691
REMARK  10 active torsions:
REMARK  status: ('A' for Active; 'I' for Inactive)
REMARK    1  A    between atoms: C_1  and  C_2
REMARK    2  A    between atoms: C_2  and  O_3
REMARK    3  A    between atoms: O_3  and  C_4
REMARK    4  A    between atoms: C_4  and  C_6
REMARK    5  A    between atoms: C_7  and  C_37
REMARK    6  A    between atoms: C_14  and  C_15
REMARK    7  A    between atoms: C_20  and  O_21
REMARK    8  A    between atoms: C_23  and  C_25
REMARK    9  A    between atoms: C_28  and  O_35
REMARK   10  A    between atoms: O_35  and  C_36
REMARK                            x       y       z     vdW  Elec       q    Type
REMARK                         _______ _______ _______ _____ _____    ______ ____
ROOT
ATOM      1  C   UNL     1      -5.800  -2.199  -0.180  0.00  0.00    +0.085 C 
ATOM      2  C   UNL     1      -6.692  -1.230  -0.546  0.00  0.00    +0.053 C 
ATOM      3  N   UNL     1      -6.297   0.027  -0.704  0.00  0.00    -0.228 NA
ATOM      4  C   UNL     1      -5.071   0.452  -0.532  0.00  0.00    +0.178 A 
ATOM      5  N   UNL     1      -4.020  -0.357  -0.164  0.00  0.00    -0.275 N 
ATOM      6  C   UNL     1      -2.807   0.192  -0.020  0.00  0.00    +0.268 A 
ATOM      7  O   UNL     1      -1.848  -0.484   0.305  0.00  0.00    -0.266 OA
ATOM      8  C   UNL     1      -2.669   1.634  -0.265  0.00  0.00    +0.081 A 
ATOM      9  C   UNL     1      -1.564   2.421  -0.188  0.00  0.00    +0.032 C 
ATOM     10  S   UNL     1      -4.348   2.074  -0.684  0.00  0.00    -0.046 S 
ATOM     11  C   UNL     1      -4.361  -1.793   0.038  0.00  0.00    +0.162 C 
ATOM     12  C   UNL     1      -8.137  -1.593  -0.774  0.00  0.00    +0.066 C 
ENDROOT
BRANCH  11  13
ATOM     13  C   UNL     1      -3.503  -2.609  -0.895  0.00  0.00    -0.012 A 
ATOM     14  C   UNL     1      -3.476  -2.320  -2.226  0.00  0.00    +0.010 A 
ATOM     15  C   UNL     1      -2.686  -3.056  -3.104  0.00  0.00    +0.046 A 
ATOM     16  C   UNL     1      -1.923  -4.099  -2.658  0.00  0.00    +0.128 A 
ATOM     17  C   UNL     1      -1.932  -4.429  -1.288  0.00  0.00    +0.024 A 
ATOM     18  C   UNL     1      -2.733  -3.673  -0.396  0.00  0.00    -0.009 A 
ATOM     19  C   UNL     1      -2.741  -4.002   0.970  0.00  0.00    +0.009 A 
ATOM     20  C   UNL     1      -1.983  -5.040   1.417  0.00  0.00    +0.001 A 
ATOM     21  C   UNL     1      -1.196  -5.783   0.540  0.00  0.00    +0.001 A 
ATOM     22  C   UNL     1      -1.162  -5.493  -0.789  0.00  0.00    +0.012 A 
BRANCH  16  23
ATOM     23  O   UNL     1      -1.163  -4.811  -3.529  0.00  0.00    -0.495 OA
ATOM     24  C   UNL     1      -1.206  -4.417  -4.902  0.00  0.00    +0.277 C 
ENDBRANCH  16  23
ENDBRANCH  11  13
BRANCH   9  25
ATOM     25  C   UNL     1      -0.317   1.882   0.369  0.00  0.00    +0.018 A 
ATOM     26  C   UNL     1      -0.342   1.119   1.542  0.00  0.00    +0.011 A 
ATOM     27  C   UNL     1       0.832   0.613   2.056  0.00  0.00    +0.001 A 
ATOM     28  C   UNL     1       2.038   0.855   1.416  0.00  0.00    +0.004 A 
ATOM     29  C   UNL     1       2.077   1.607   0.258  0.00  0.00    +0.046 A 
ATOM     30  C   UNL     1       0.907   2.125  -0.275  0.00  0.00    +0.124 A 
BRANCH  30  31
ATOM     31  O   UNL     1       0.945   2.863  -1.413  0.00  0.00    -0.506 OA
ATOM     32  H   UNL     1       1.063   3.811  -1.264  0.00  0.00    +0.292 HD
ENDBRANCH  30  31
ENDBRANCH   9  25
BRANCH   1  33
ATOM     33  C   UNL     1      -6.209  -3.532  -0.012  0.00  0.00    +0.339 C 
ATOM     34  O   UNL     1      -7.393  -3.815  -0.054  0.00  0.00    -0.245 OA
BRANCH  33  35
ATOM     35  O   UNL     1      -5.290  -4.499   0.196  0.00  0.00    -0.462 OA
BRANCH  35  37
ATOM     36  C   UNL     1      -4.609  -6.782   0.604  0.00  0.00    +0.048 C 
ATOM     37  C   UNL     1      -5.765  -5.846   0.245  0.00  0.00    +0.229 C 
ENDBRANCH  35  37
ENDBRANCH  33  35
ENDBRANCH   1  33
TORSDOF 7
