REMARK  Name = ZINC20114771
REMARK  8 active torsions:
REMARK  status: ('A' for Active; 'I' for Inactive)
REMARK    1  A    between atoms: C_4  and  C_7
REMARK    2  A    between atoms: C_10  and  O_14
REMARK    3  A    between atoms: O_14  and  C_15
REMARK    4  A    between atoms: C_15  and  C_16
REMARK    5  A    between atoms: N_18  and  C_19
REMARK    6  A    between atoms: C_22  and  C_25
REMARK    7  A    between atoms: N_27  and  C_28
REMARK    8  A    between atoms: C_28  and  C_29
REMARK                            x       y       z     vdW  Elec       q    Type
REMARK                         _______ _______ _______ _____ _____    ______ ____
ROOT
ATOM      1  C   UNL     1       2.400  -2.740  -0.137  0.00  0.00    +0.255 C 
ATOM      2  O   UNL     1       3.445  -2.125  -0.144  0.00  0.00    -0.272 OA
ATOM      3  N   UNL     1       1.231  -2.079  -0.020  0.00  0.00    -0.283 N 
ATOM      4  H   UNL     1       0.288  -2.640   0.062  0.00  0.00    +0.155 HD
ENDROOT
BRANCH   3   5
ATOM      5  C   UNL     1       1.216  -0.685  -0.004  0.00  0.00    +0.034 A 
ATOM      6  C   UNL     1       2.255   0.013   0.603  0.00  0.00    +0.024 A 
ATOM      7  C   UNL     1       2.244   1.390   0.620  0.00  0.00    +0.015 A 
ATOM      8  C   UNL     1       1.188   2.086   0.026  0.00  0.00    +0.037 A 
ATOM      9  C   UNL     1       0.146   1.382  -0.583  0.00  0.00    +0.015 A 
ATOM     10  C   UNL     1       0.163   0.005  -0.596  0.00  0.00    +0.024 A 
BRANCH   8  11
ATOM     11  C   UNL     1       1.173   3.562   0.043  0.00  0.00    +0.244 C 
ATOM     12  O   UNL     1       2.080   4.173   0.574  0.00  0.00    -0.270 OA
ATOM     13  N   UNL     1       0.153   4.232  -0.530  0.00  0.00    -0.304 N 
ATOM     14  H   UNL     1      -0.668   3.679  -1.010  0.00  0.00    +0.149 HD
BRANCH  13  15
ATOM     15  C   UNL     1       0.138   5.696  -0.513  0.00  0.00    +0.179 C 
BRANCH  15  16
ATOM     16  C   UNL     1      -1.100   6.194  -1.214  0.00  0.00    +0.122 A 
ATOM     17  C   UNL     1      -2.289   6.437  -0.633  0.00  0.00    +0.046 A 
ATOM     18  C   UNL     1      -3.159   6.886  -1.653  0.00  0.00    +0.041 A 
ATOM     19  C   UNL     1      -2.450   6.889  -2.796  0.00  0.00    +0.195 A 
ATOM     20  O   UNL     1      -1.202   6.475  -2.523  0.00  0.00    -0.466 OA
ENDBRANCH  15  16
ENDBRANCH  13  15
ENDBRANCH   8  11
ENDBRANCH   3   5
BRANCH   1  21
ATOM     21  C   UNL     1       2.408  -4.242  -0.258  0.00  0.00    +0.324 C 
BRANCH  21  22
ATOM     22  O   UNL     1       3.756  -4.704  -0.368  0.00  0.00    -0.482 OA
BRANCH  22  26
ATOM     23  C   UNL     1       4.317  -8.779  -0.725  0.00  0.00    -0.017 A 
ATOM     24  C   UNL     1       3.029  -8.258  -0.614  0.00  0.00    +0.012 A 
ATOM     25  C   UNL     1       2.845  -6.897  -0.489  0.00  0.00    +0.047 A 
ATOM     26  C   UNL     1       3.940  -6.045  -0.486  0.00  0.00    +0.135 A 
ATOM     27  C   UNL     1       5.225  -6.560  -0.597  0.00  0.00    +0.060 A 
ATOM     28  C   UNL     1       5.416  -7.922  -0.716  0.00  0.00    +0.027 A 
ATOM     29 BR   UNL     1       6.715  -5.395  -0.584  0.00  0.00    -0.046 Br
BRANCH  23  33
ATOM     30  C   UNL     1       4.894 -12.976  -1.094  0.00  0.00    +0.000 A 
ATOM     31  C   UNL     1       3.614 -12.463  -0.983  0.00  0.00    +0.001 A 
ATOM     32  C   UNL     1       3.421 -11.102  -0.863  0.00  0.00    +0.008 A 
ATOM     33  C   UNL     1       4.519 -10.243  -0.854  0.00  0.00    -0.018 A 
ATOM     34  C   UNL     1       5.805 -10.765  -0.972  0.00  0.00    +0.008 A 
ATOM     35  C   UNL     1       5.987 -12.128  -1.086  0.00  0.00    +0.001 A 
ENDBRANCH  23  33
ENDBRANCH  22  26
ENDBRANCH  21  22
ENDBRANCH   1  21
TORSDOF 8
