REMARK  Name = ZINC04718145
REMARK  5 active torsions:
REMARK  status: ('A' for Active; 'I' for Inactive)
REMARK    1  A    between atoms: C_3  and  C_9
REMARK    2  A    between atoms: C_9  and  C_11
REMARK    3  A    between atoms: C_9  and  N_14
REMARK    4  A    between atoms: C_11  and  C_12
REMARK    5  A    between atoms: C_15  and  C_17
REMARK                            x       y       z     vdW  Elec       q    Type
REMARK                         _______ _______ _______ _____ _____    ______ ____
ROOT
ATOM      1  N   UNL     1      -1.888   5.808  -0.721  0.00  0.00    -0.307 N 
ATOM      2  C   UNL     1      -1.150   5.394   0.328  0.00  0.00    +0.220 C 
ATOM      3  O   UNL     1      -0.680   6.205   1.097  0.00  0.00    -0.275 OA
ATOM      4  H   UNL     1      -2.202   5.166  -1.377  0.00  0.00    +0.149 HD
ENDROOT
BRANCH   2   5
ATOM      5  C   UNL     1      -0.908   3.922   0.545  0.00  0.00    +0.048 C 
ATOM      6  C   UNL     1      -0.184   3.339  -0.669  0.00  0.00    +0.019 C 
ATOM      7  C   UNL     1       0.061   1.845  -0.449  0.00  0.00    -0.009 C 
ATOM      8  C   UNL     1       0.922   1.649   0.801  0.00  0.00    +0.007 C 
ATOM      9  C   UNL     1       0.197   2.232   2.016  0.00  0.00    -0.009 C 
ATOM     10  C   UNL     1      -0.048   3.726   1.795  0.00  0.00    +0.019 C 
ATOM     11  C   UNL     1      -1.143   1.517   2.201  0.00  0.00    +0.007 C 
ATOM     12  C   UNL     1      -2.003   1.713   0.952  0.00  0.00    -0.009 C 
ATOM     13  C   UNL     1      -1.278   1.131  -0.263  0.00  0.00    +0.007 C 
ATOM     14  C   UNL     1      -2.248   3.207   0.731  0.00  0.00    +0.019 C 
ENDBRANCH   2   5
BRANCH   1  15
ATOM     15  C   UNL     1      -2.215   7.228  -0.871  0.00  0.00    +0.115 C 
BRANCH  15  18
ATOM     16  C   UNL     1      -5.431   6.870   1.073  0.00  0.00    +0.020 A 
ATOM     17  C   UNL     1      -4.330   6.569   0.294  0.00  0.00    +0.008 A 
ATOM     18  C   UNL     1      -3.419   7.558  -0.027  0.00  0.00    -0.008 A 
ATOM     19  C   UNL     1      -3.616   8.852   0.421  0.00  0.00    +0.047 A 
ATOM     20  C   UNL     1      -4.721   9.155   1.196  0.00  0.00    +0.040 A 
ATOM     21  C   UNL     1      -5.629   8.163   1.522  0.00  0.00    +0.042 A 
ATOM     22 CL   UNL     1      -7.016   8.542   2.495  0.00  0.00    -0.083 Cl
ATOM     23 CL   UNL     1      -2.477  10.096   0.011  0.00  0.00    -0.083 Cl
ENDBRANCH  15  18
BRANCH  15  24
ATOM     24  C   UNL     1      -2.524   7.527  -2.340  0.00  0.00    +0.152 C 
BRANCH  24  25
ATOM     25  C   UNL     1      -1.276   7.342  -3.163  0.00  0.00    +0.358 C 
ATOM     26  O   UNL     1      -0.266   6.927  -2.645  0.00  0.00    -0.246 OA
ATOM     27  O   UNL     1      -1.286   7.637  -4.473  0.00  0.00    -0.246 OA
ENDBRANCH  24  25
ENDBRANCH  15  24
ENDBRANCH   1  15
TORSDOF 5
