REMARK  Name = ZINC40804692
REMARK  5 active torsions:
REMARK  status: ('A' for Active; 'I' for Inactive)
REMARK    1  A    between atoms: C_1  and  C_2
REMARK    2  A    between atoms: C_5  and  C_8
REMARK    3  A    between atoms: N_10  and  N_11
REMARK    4  A    between atoms: C_18  and  C_29
REMARK    5  A    between atoms: C_19  and  C_21
REMARK                            x       y       z     vdW  Elec       q    Type
REMARK                         _______ _______ _______ _____ _____    ______ ____
ROOT
ATOM      1  N   UNL     1       0.095  -6.332   1.134  0.00  0.00    -0.184 NA
ATOM      2  C   UNL     1       0.109  -6.987   2.255  0.00  0.00    +0.070 C 
ATOM      3  C   UNL     1       0.100  -6.290   3.607  0.00  0.00    +0.058 C 
ATOM      4  C   UNL     1       1.093  -7.011   4.525  0.00  0.00    +0.014 C 
ATOM      5  C   UNL     1       0.636  -8.447   4.793  0.00  0.00    +0.075 C 
ATOM      6  C   UNL     1       0.377  -9.143   3.481  0.00  0.00    +0.115 A 
ATOM      7  C   UNL     1       0.130  -8.465   2.309  0.00  0.00    +0.042 A 
ATOM      8  C   UNL     1      -0.069  -9.419   1.304  0.00  0.00    +0.009 A 
ATOM      9  C   UNL     1       0.058 -10.640   1.905  0.00  0.00    +0.193 A 
ATOM     10  O   UNL     1       0.333 -10.447   3.218  0.00  0.00    -0.454 OA
ATOM     11  C   UNL     1      -0.363  -9.153  -0.150  0.00  0.00    +0.048 C 
ENDROOT
BRANCH   9  12
ATOM     12  C   UNL     1      -0.070 -11.941   1.239  0.00  0.00    +0.285 C 
ATOM     13  O   UNL     1      -0.310 -11.993   0.047  0.00  0.00    -0.266 OA
ATOM     14  N   UNL     1       0.077 -13.078   1.947  0.00  0.00    -0.258 N 
ATOM     15  C   UNL     1      -0.044 -14.309   1.316  0.00  0.00    +0.165 A 
ATOM     16  N   UNL     1      -0.293 -14.557   0.048  0.00  0.00    -0.233 NA
ATOM     17  C   UNL     1      -0.378 -15.796  -0.401  0.00  0.00    +0.120 A 
ATOM     18  C   UNL     1      -0.199 -16.792   0.501  0.00  0.00    +0.068 A 
ATOM     19  S   UNL     1       0.097 -15.847   1.986  0.00  0.00    -0.061 S 
ATOM     20  H   UNL     1       0.268 -13.037   2.897  0.00  0.00    +0.157 HD
ENDBRANCH   9  12
BRANCH   1  23
ATOM     21  C   UNL     1       0.061  -4.251  -0.021  0.00  0.00    +0.263 C 
ATOM     22  O   UNL     1       0.063  -4.853  -1.078  0.00  0.00    -0.268 OA
ATOM     23  N   UNL     1       0.076  -4.931   1.142  0.00  0.00    -0.203 N 
ATOM     24  H   UNL     1       0.073  -4.451   1.985  0.00  0.00    +0.178 HD
BRANCH  21  29
ATOM     25  C   UNL     1      -0.018   1.503   0.010  0.00  0.00    +0.044 C 
ATOM     26  C   UNL     1       0.002  -0.004   0.002  0.00  0.00    -0.050 A 
ATOM     27  C   UNL     1       0.006  -0.686  -1.202  0.00  0.00    +0.004 A 
ATOM     28  C   UNL     1       0.025  -2.066  -1.216  0.00  0.00    +0.013 A 
ATOM     29  C   UNL     1       0.041  -2.773  -0.013  0.00  0.00    +0.038 A 
ATOM     30  C   UNL     1       0.037  -2.079   1.198  0.00  0.00    +0.013 A 
ATOM     31  C   UNL     1       0.023  -0.699   1.198  0.00  0.00    +0.004 A 
ENDBRANCH  21  29
ENDBRANCH   1  23
TORSDOF 3
