REMARK  Name = ZINC03011736
REMARK  5 active torsions:
REMARK  status: ('A' for Active; 'I' for Inactive)
REMARK    1  A    between atoms: C_1  and  C_2
REMARK    2  A    between atoms: C_5  and  C_8
REMARK    3  A    between atoms: C_11  and  C_34
REMARK    4  A    between atoms: C_16  and  C_18
REMARK    5  A    between atoms: N_23  and  C_26
REMARK                            x       y       z     vdW  Elec       q    Type
REMARK                         _______ _______ _______ _____ _____    ______ ____
ROOT
ATOM      1  C   UNL     1       0.127  -4.625   0.022  0.00  0.00    +0.104 C 
ATOM      2  C   UNL     1       1.372  -5.473   0.303  0.00  0.00    +0.063 C 
ATOM      3  C   UNL     1       2.036  -5.011   1.605  0.00  0.00    +0.215 C 
ATOM      4  N   UNL     1       1.017  -4.933   2.655  0.00  0.00    -0.238 N 
ATOM      5  C   UNL     1      -0.324  -4.858   2.406  0.00  0.00    +0.119 A 
ATOM      6  C   UNL     1      -0.968  -4.803   3.589  0.00  0.00    +0.078 A 
ATOM      7  C   UNL     1       0.009  -4.844   4.609  0.00  0.00    +0.149 A 
ATOM      8  N   UNL     1       1.198  -4.922   4.038  0.00  0.00    -0.164 NA
ATOM      9  N   UNL     1      -0.850  -4.842   1.107  0.00  0.00    -0.322 N 
ATOM     10  H   UNL     1      -1.795  -4.969   0.929  0.00  0.00    +0.148 HD
ENDROOT
BRANCH   7  11
ATOM     11  C   UNL     1      -0.254  -4.807   6.063  0.00  0.00    +0.267 C 
ATOM     12  O   UNL     1      -1.396  -4.861   6.476  0.00  0.00    -0.268 OA
ATOM     13  N   UNL     1       0.773  -4.713   6.931  0.00  0.00    -0.293 N 
ATOM     14  C   UNL     1       2.142  -4.482   6.448  0.00  0.00    +0.127 C 
ATOM     15  C   UNL     1       2.703  -3.236   7.144  0.00  0.00    +0.124 C 
ATOM     16  N   UNL     1       2.474  -3.363   8.590  0.00  0.00    -0.327 N 
ATOM     17  C   UNL     1       1.105  -3.594   9.073  0.00  0.00    +0.124 C 
ATOM     18  C   UNL     1       0.543  -4.835   8.377  0.00  0.00    +0.127 C 
BRANCH  16  19
ATOM     19  C   UNL     1       3.538  -3.266   9.490  0.00  0.00    +0.031 A 
ATOM     20  C   UNL     1       4.792  -2.867   9.044  0.00  0.00    +0.023 A 
ATOM     21  C   UNL     1       5.842  -2.771   9.936  0.00  0.00    +0.003 A 
ATOM     22  C   UNL     1       5.647  -3.072  11.271  0.00  0.00    +0.020 A 
ATOM     23  C   UNL     1       4.399  -3.470  11.719  0.00  0.00    +0.043 A 
ATOM     24  C   UNL     1       3.343  -3.562  10.833  0.00  0.00    +0.043 A 
ATOM     25 CL   UNL     1       4.160  -3.848  13.397  0.00  0.00    -0.083 Cl
ENDBRANCH  16  19
ENDBRANCH   7  11
BRANCH   1  30
ATOM     26  C   UNL     1       1.589   0.963  -0.179  0.00  0.00    +0.044 C 
ATOM     27  C   UNL     1       1.208  -0.495  -0.126  0.00  0.00    -0.050 A 
ATOM     28  C   UNL     1       1.027  -1.204  -1.299  0.00  0.00    +0.004 A 
ATOM     29  C   UNL     1       0.677  -2.541  -1.251  0.00  0.00    +0.006 A 
ATOM     30  C   UNL     1       0.509  -3.168  -0.031  0.00  0.00    -0.027 A 
ATOM     31  C   UNL     1       0.692  -2.459   1.142  0.00  0.00    +0.006 A 
ATOM     32  C   UNL     1       1.045  -1.123   1.094  0.00  0.00    +0.004 A 
ENDBRANCH   1  30
BRANCH   3  33
ATOM     33  C   UNL     1       3.119  -6.012   2.011  0.00  0.00    +0.412 C 
ATOM     34  F   UNL     1       4.083  -6.092   1.000  0.00  0.00    -0.168 F 
ATOM     35  F   UNL     1       3.724  -5.588   3.200  0.00  0.00    -0.168 F 
ATOM     36  F   UNL     1       2.541  -7.271   2.206  0.00  0.00    -0.168 F 
ENDBRANCH   3  33
TORSDOF 4
