REMARK  Name = ZINC02400929
REMARK  7 active torsions:
REMARK  status: ('A' for Active; 'I' for Inactive)
REMARK    1  A    between atoms: C_1  and  N_54
REMARK    2  A    between atoms: N_11  and  C_25
REMARK    3  A    between atoms: C_12  and  S_14
REMARK    4  A    between atoms: S_14  and  C_15
REMARK    5  A    between atoms: C_15  and  C_16
REMARK    6  A    between atoms: N_18  and  C_19
REMARK    7  A    between atoms: C_19  and  C_20
REMARK                            x       y       z     vdW  Elec       q    Type
REMARK                         _______ _______ _______ _____ _____    ______ ____
ROOT
ATOM      1  C   UNL     1       4.942   3.141  -2.494  0.00  0.00    -0.096 C 
ATOM      2  C   UNL     1       2.778   3.680  -1.550  0.00  0.00    -0.074 C 
ATOM      3  C   UNL     1       1.304   3.268  -1.567  0.00  0.00    +0.018 C 
ATOM      4  C   UNL     1       1.192   1.868  -0.968  0.00  0.00    -0.026 A 
ATOM      5  C   UNL     1       2.291   1.090  -0.869  0.00  0.00    -0.021 A 
ATOM      6  S   UNL     1       1.723  -0.415  -0.130  0.00  0.00    -0.075 S 
ATOM      7  C   UNL     1       0.007   0.005   0.045  0.00  0.00    +0.117 A 
ATOM      8  C   UNL     1      -0.067   1.307  -0.480  0.00  0.00    +0.076 A 
ATOM      9  C   UNL     1      -1.365   1.909  -0.472  0.00  0.00    +0.268 A 
ATOM     10  O   UNL     1      -1.525   3.037  -0.906  0.00  0.00    -0.267 OA
ATOM     11  N   UNL     1      -2.404   1.218   0.032  0.00  0.00    -0.255 N 
ATOM     12  C   UNL     1      -2.243  -0.047   0.523  0.00  0.00    +0.178 A 
ATOM     13  N   UNL     1      -1.059  -0.626   0.523  0.00  0.00    -0.215 NA
ATOM     14  C   UNL     1       3.680   1.446  -1.302  0.00  0.00    -0.036 C 
ATOM     15  N   UNL     1       3.588   2.626  -2.195  0.00  0.00    +0.381 N 
ATOM     16  H   UNL     1       3.135   2.347  -3.073  0.00  0.00    -0.082 HD
ENDROOT
BRANCH  11  17
ATOM     17  C   UNL     1      -3.676   1.805   0.048  0.00  0.00    +0.052 A 
ATOM     18  C   UNL     1      -4.086   2.547   1.147  0.00  0.00    +0.028 A 
ATOM     19  C   UNL     1      -5.339   3.129   1.158  0.00  0.00    +0.022 A 
ATOM     20  C   UNL     1      -6.189   2.964   0.079  0.00  0.00    +0.041 A 
ATOM     21  C   UNL     1      -5.785   2.221  -1.016  0.00  0.00    +0.022 A 
ATOM     22  C   UNL     1      -4.532   1.641  -1.034  0.00  0.00    +0.028 A 
ATOM     23 CL   UNL     1      -7.766   3.691   0.099  0.00  0.00    -0.084 Cl
ENDBRANCH  11  17
BRANCH  12  24
ATOM     24  S   UNL     1      -3.636  -0.915   1.165  0.00  0.00    -0.078 S 
BRANCH  24  25
ATOM     25  C   UNL     1      -2.843  -2.469   1.647  0.00  0.00    +0.173 C 
BRANCH  25  26
ATOM     26  C   UNL     1      -3.873  -3.396   2.239  0.00  0.00    +0.224 C 
ATOM     27  O   UNL     1      -5.030  -3.040   2.326  0.00  0.00    -0.275 OA
ATOM     28  N   UNL     1      -3.510  -4.619   2.671  0.00  0.00    -0.308 N 
ATOM     29  H   UNL     1      -2.585  -4.903   2.601  0.00  0.00    +0.149 HD
BRANCH  28  30
ATOM     30  C   UNL     1      -4.511  -5.520   3.247  0.00  0.00    +0.178 C 
BRANCH  30  31
ATOM     31  C   UNL     1      -3.851  -6.814   3.649  0.00  0.00    +0.122 A 
ATOM     32  C   UNL     1      -3.306  -7.080   4.849  0.00  0.00    +0.046 A 
ATOM     33  C   UNL     1      -2.805  -8.400   4.788  0.00  0.00    +0.041 A 
ATOM     34  C   UNL     1      -3.074  -8.863   3.554  0.00  0.00    +0.195 A 
ATOM     35  O   UNL     1      -3.713  -7.900   2.870  0.00  0.00    -0.466 OA
ENDBRANCH  30  31
ENDBRANCH  28  30
ENDBRANCH  25  26
ENDBRANCH  24  25
ENDBRANCH  12  24
TORSDOF 6
