REMARK  Name = ZINC47550431
REMARK  11 active torsions:
REMARK  status: ('A' for Active; 'I' for Inactive)
REMARK    1  A    between atoms: C_1  and  C_2
REMARK    2  A    between atoms: C_2  and  C_4
REMARK    3  A    between atoms: C_2  and  N_7
REMARK    4  A    between atoms: C_4  and  C_5
REMARK    5  A    between atoms: C_4  and  C_6
REMARK    6  A    between atoms: N_7  and  C_8
REMARK    7  A    between atoms: N_7  and  C_16
REMARK    8  A    between atoms: C_8  and  C_9
REMARK    9  A    between atoms: N_14  and  C_15
REMARK   10  A    between atoms: C_16  and  C_17
REMARK   11  A    between atoms: N_22  and  C_23
REMARK                            x       y       z     vdW  Elec       q    Type
REMARK                         _______ _______ _______ _____ _____    ______ ____
ROOT
ATOM      1  N   UNL     1       0.852  -0.380  -1.391  0.00  0.00    +0.393 N 
ATOM      2  H   UNL     1       1.772  -0.264  -0.992  0.00  0.00    -0.080 HD
ENDROOT
BRANCH   1   4
ATOM      3  C   UNL     1       0.325  -0.844   0.955  0.00  0.00    -0.013 C 
ATOM      4  C   UNL     1      -0.162  -0.199  -0.344  0.00  0.00    -0.068 C 
BRANCH   4   5
ATOM      5  C   UNL     1      -1.470  -0.861  -0.783  0.00  0.00    -0.031 C 
ATOM      6  C   UNL     1      -1.681  -0.630  -2.280  0.00  0.00    +0.005 C 
ATOM      7  C   UNL     1      -1.401  -2.363  -0.502  0.00  0.00    +0.005 C 
ENDBRANCH   4   5
ENDBRANCH   1   4
BRANCH   1   8
ATOM      8  C   UNL     1       0.733  -1.728  -1.962  0.00  0.00    +0.020 C 
BRANCH   8   9
ATOM      9  C   UNL     1       1.385  -2.724  -1.039  0.00  0.00    +0.204 C 
ATOM     10  O   UNL     1       1.940  -2.343  -0.031  0.00  0.00    -0.277 OA
ATOM     11  N   UNL     1       1.351  -4.039  -1.334  0.00  0.00    -0.242 N 
ATOM     12  C   UNL     1       1.935  -4.930  -0.508  0.00  0.00    +0.306 C 
ATOM     13  O   UNL     1       2.491  -4.548   0.503  0.00  0.00    -0.252 OA
ATOM     14  N   UNL     1       1.901  -6.245  -0.803  0.00  0.00    -0.302 N 
ATOM     15  C   UNL     1       2.535  -7.213   0.094  0.00  0.00    +0.129 C 
ATOM     16  H   UNL     1       0.907  -4.343  -2.141  0.00  0.00    +0.159 HD
ATOM     17  H   UNL     1       1.457  -6.549  -1.610  0.00  0.00    +0.150 HD
ENDBRANCH   8   9
ENDBRANCH   1   8
BRANCH   1  18
ATOM     18  C   UNL     1       0.648   0.620  -2.448  0.00  0.00    +0.020 C 
BRANCH  18  19
ATOM     19  C   UNL     1       0.959   1.992  -1.909  0.00  0.00    +0.204 C 
ATOM     20  O   UNL     1       1.419   2.115  -0.793  0.00  0.00    -0.277 OA
ATOM     21  N   UNL     1       0.726   3.083  -2.666  0.00  0.00    -0.242 N 
ATOM     22  C   UNL     1       1.004   4.310  -2.183  0.00  0.00    +0.306 C 
ATOM     23  O   UNL     1       1.465   4.434  -1.065  0.00  0.00    -0.252 OA
ATOM     24  N   UNL     1       0.771   5.400  -2.940  0.00  0.00    -0.302 N 
ATOM     25  C   UNL     1       1.073   6.735  -2.416  0.00  0.00    +0.129 C 
ATOM     26  H   UNL     1       0.359   2.984  -3.558  0.00  0.00    +0.159 HD
ATOM     27  H   UNL     1       0.404   5.302  -3.833  0.00  0.00    +0.150 HD
ENDBRANCH  18  19
ENDBRANCH   1  18
TORSDOF 6
