REMARK  Name = ZINC00646548
REMARK  12 active torsions:
REMARK  status: ('A' for Active; 'I' for Inactive)
REMARK    1  A    between atoms: C_1  and  O_2
REMARK    2  A    between atoms: O_2  and  C_3
REMARK    3  A    between atoms: C_3  and  C_5
REMARK    4  A    between atoms: C_8  and  C_31
REMARK    5  A    between atoms: C_9  and  N_11
REMARK    6  A    between atoms: C_12  and  C_14
REMARK    7  A    between atoms: C_14  and  S_15
REMARK    8  A    between atoms: S_15  and  C_16
REMARK    9  A    between atoms: C_18  and  C_26
REMARK   10  A    between atoms: C_20  and  C_22
REMARK   11  A    between atoms: C_31  and  O_33
REMARK   12  A    between atoms: O_33  and  C_34
REMARK                            x       y       z     vdW  Elec       q    Type
REMARK                         _______ _______ _______ _____ _____    ______ ____
ROOT
ATOM      1  N   UNL     1       1.942  -4.396  -3.401  0.00  0.00    -0.284 N 
ATOM      2  C   UNL     1       2.508  -3.519  -4.253  0.00  0.00    +0.228 C 
ATOM      3  O   UNL     1       2.538  -2.338  -3.976  0.00  0.00    -0.275 OA
ATOM      4  H   UNL     1       1.988  -5.348  -3.583  0.00  0.00    +0.155 HD
ENDROOT
BRANCH   1   9
ATOM      5  C   UNL     1       1.198  -2.466  -0.356  0.00  0.00    +0.061 A 
ATOM      6  C   UNL     1      -0.024  -3.028   0.023  0.00  0.00    +0.016 A 
ATOM      7  C   UNL     1      -0.586  -4.034  -0.729  0.00  0.00    +0.017 A 
ATOM      8  C   UNL     1       0.064  -4.499  -1.875  0.00  0.00    +0.080 A 
ATOM      9  C   UNL     1       1.290  -3.937  -2.259  0.00  0.00    +0.048 A 
ATOM     10  C   UNL     1       1.850  -2.918  -1.501  0.00  0.00    +0.039 A 
BRANCH   5  11
ATOM     11  C   UNL     1       1.797  -1.385   0.457  0.00  0.00    +0.339 C 
ATOM     12  O   UNL     1       2.857  -0.892   0.125  0.00  0.00    -0.245 OA
BRANCH  11  14
ATOM     13  C   UNL     1       1.804   0.100   2.300  0.00  0.00    +0.280 C 
ATOM     14  O   UNL     1       1.168  -0.946   1.564  0.00  0.00    -0.464 OA
ENDBRANCH  11  14
ENDBRANCH   5  11
BRANCH   8  15
ATOM     15  C   UNL     1      -0.539  -5.578  -2.681  0.00  0.00    +0.341 C 
ATOM     16  O   UNL     1       0.010  -5.958  -3.695  0.00  0.00    -0.245 OA
BRANCH  15  17
ATOM     17  O   UNL     1      -1.699  -6.143  -2.291  0.00  0.00    -0.464 OA
ATOM     18  C   UNL     1      -2.225  -7.182  -3.118  0.00  0.00    +0.280 C 
ENDBRANCH  15  17
ENDBRANCH   8  15
ENDBRANCH   1   9
BRANCH   2  19
ATOM     19  C   UNL     1       3.104  -4.004  -5.549  0.00  0.00    +0.173 C 
BRANCH  19  20
ATOM     20  S   UNL     1       3.782  -2.595  -6.468  0.00  0.00    -0.077 S 
BRANCH  20  21
ATOM     21  C   UNL     1       4.432  -3.318  -7.938  0.00  0.00    +0.190 A 
ATOM     22  N   UNL     1       5.014  -2.539  -8.837  0.00  0.00    -0.219 NA
ATOM     23  C   UNL     1       5.516  -3.056  -9.959  0.00  0.00    +0.111 A 
ATOM     24  C   UNL     1       5.417  -4.437 -10.172  0.00  0.00    +0.064 A 
ATOM     25  C   UNL     1       4.802  -5.210  -9.206  0.00  0.00    +0.149 A 
ATOM     26  N   UNL     1       4.331  -4.628  -8.113  0.00  0.00    -0.218 NA
BRANCH  23  27
ATOM     27  C   UNL     1       6.164  -2.187 -10.960  0.00  0.00    +0.153 A 
ATOM     28  C   UNL     1       6.324  -0.839 -10.864  0.00  0.00    +0.051 A 
ATOM     29  C   UNL     1       6.987  -0.426 -12.035  0.00  0.00    +0.042 A 
ATOM     30  C   UNL     1       7.199  -1.530 -12.780  0.00  0.00    +0.196 A 
ATOM     31  O   UNL     1       6.705  -2.592 -12.126  0.00  0.00    -0.461 OA
ENDBRANCH  23  27
BRANCH  25  32
ATOM     32  C   UNL     1       4.672  -6.700  -9.391  0.00  0.00    +0.434 C 
ATOM     33  F   UNL     1       5.793  -7.336  -8.848  0.00  0.00    -0.164 F 
ATOM     34  F   UNL     1       3.519  -7.152  -8.741  0.00  0.00    -0.164 F 
ATOM     35  F   UNL     1       4.583  -6.994 -10.756  0.00  0.00    -0.164 F 
ENDBRANCH  25  32
ENDBRANCH  20  21
ENDBRANCH  19  20
ENDBRANCH   2  19
TORSDOF 10
