REMARK  Name = ZINC22239147
REMARK  6 active torsions:
REMARK  status: ('A' for Active; 'I' for Inactive)
REMARK    1  A    between atoms: C_1  and  C_2
REMARK    2  A    between atoms: C_3  and  C_30
REMARK    3  A    between atoms: C_4  and  C_21
REMARK    4  A    between atoms: C_10  and  C_15
REMARK    5  A    between atoms: C_24  and  N_27
REMARK    6  A    between atoms: N_32  and  C_33
REMARK                            x       y       z     vdW  Elec       q    Type
REMARK                         _______ _______ _______ _____ _____    ______ ____
ROOT
ATOM      1  C   UNL     1       5.034   2.580   2.459  0.00  0.00    +0.061 C 
ATOM      2  C   UNL     1       4.281   2.263   1.193  0.00  0.00    +0.014 C 
ATOM      3  C   UNL     1       3.257   1.395   1.226  0.00  0.00    +0.043 C 
ATOM      4  C   UNL     1       2.479   1.061  -0.013  0.00  0.00    +0.090 C 
ATOM      5  C   UNL     1       3.240   1.453  -1.254  0.00  0.00    +0.024 C 
ATOM      6  C   UNL     1       4.273   2.320  -1.184  0.00  0.00    +0.016 C 
ATOM      7  N   UNL     1       4.646   2.861   0.018  0.00  0.00    -0.321 N 
ATOM      8  C   UNL     1       5.044   2.713  -2.420  0.00  0.00    +0.059 C 
ATOM      9  C   UNL     1       4.119   2.669  -3.638  0.00  0.00    +0.032 C 
ATOM     10  C   UNL     1       3.546   1.253  -3.763  0.00  0.00    +0.088 C 
ATOM     11  C   UNL     1       2.845   0.894  -2.481  0.00  0.00    +0.162 C 
ATOM     12  O   UNL     1       1.921   0.106  -2.508  0.00  0.00    -0.292 OA
ATOM     13  H   UNL     1       5.243   3.784   0.033  0.00  0.00    +0.152 HD
ENDROOT
BRANCH   9  14
ATOM     14  C   UNL     1       4.900   3.011  -4.880  0.00  0.00    -0.044 A 
ATOM     15  C   UNL     1       5.982   2.235  -5.251  0.00  0.00    +0.004 A 
ATOM     16  C   UNL     1       6.697   2.545  -6.393  0.00  0.00    +0.000 A 
ATOM     17  C   UNL     1       6.335   3.638  -7.158  0.00  0.00    +0.000 A 
ATOM     18  C   UNL     1       5.256   4.418  -6.784  0.00  0.00    +0.000 A 
ATOM     19  C   UNL     1       4.539   4.104  -5.645  0.00  0.00    +0.004 A 
ENDBRANCH   9  14
BRANCH   4  20
ATOM     20  C   UNL     1       1.165   1.799   0.015  0.00  0.00    -0.035 A 
ATOM     21  C   UNL     1      -0.024   1.093   0.025  0.00  0.00    +0.007 A 
ATOM     22  C   UNL     1      -1.229   1.770   0.044  0.00  0.00    +0.033 A 
ATOM     23  C   UNL     1      -1.245   3.152   0.065  0.00  0.00    +0.126 A 
ATOM     24  C   UNL     1      -0.057   3.857   0.055  0.00  0.00    +0.033 A 
ATOM     25  C   UNL     1       1.148   3.181   0.030  0.00  0.00    +0.007 A 
BRANCH  23  26
ATOM     26  N   UNL     1      -2.536   3.877   0.091  0.00  0.00    +0.056 N 
ATOM     27  O   UNL     1      -2.550   5.094   0.104  0.00  0.00    -0.126 OA
ATOM     28  O   UNL     1      -3.583   3.255   0.100  0.00  0.00    -0.126 OA
ENDBRANCH  23  26
ENDBRANCH   4  20
BRANCH   3  29
ATOM     29  C   UNL     1       2.905   0.782   2.453  0.00  0.00    +0.247 C 
ATOM     30  O   UNL     1       3.529   1.044   3.466  0.00  0.00    -0.270 OA
ATOM     31  N   UNL     1       1.880  -0.092   2.501  0.00  0.00    -0.282 N 
ATOM     32  H   UNL     1       1.268  -0.272   1.604  0.00  0.00    +0.155 HD
BRANCH  31  33
ATOM     33  C   UNL     1       1.593  -0.769   3.691  0.00  0.00    +0.034 A 
ATOM     34  C   UNL     1       1.123  -2.076   3.652  0.00  0.00    +0.026 A 
ATOM     35  C   UNL     1       0.846  -2.745   4.828  0.00  0.00    +0.040 A 
ATOM     36  C   UNL     1       1.025  -2.110   6.045  0.00  0.00    +0.124 A 
ATOM     37  C   UNL     1       1.488  -0.806   6.087  0.00  0.00    +0.040 A 
ATOM     38  C   UNL     1       1.772  -0.135   4.913  0.00  0.00    +0.026 A 
ATOM     39  F   UNL     1       0.748  -2.765   7.194  0.00  0.00    -0.205 F 
ENDBRANCH  31  33
ENDBRANCH   3  29
TORSDOF 5
