REMARK  Name = ZINC39357181
REMARK  6 active torsions:
REMARK  status: ('A' for Active; 'I' for Inactive)
REMARK    1  A    between atoms: C_1  and  C_2
REMARK    2  A    between atoms: C_4  and  C_21
REMARK    3  A    between atoms: N_12  and  C_13
REMARK    4  A    between atoms: C_13  and  C_14
REMARK    5  A    between atoms: C_22  and  C_23
REMARK    6  A    between atoms: C_22  and  C_25
REMARK                            x       y       z     vdW  Elec       q    Type
REMARK                         _______ _______ _______ _____ _____    ______ ____
ROOT
ATOM      1  C   UNL     1      -0.019   1.526   0.010  0.00  0.00    +0.029 C 
ATOM      2  C   UNL     1       0.002  -0.004   0.002  0.00  0.00    +0.082 C 
ATOM      3  C   UNL     1       0.748  -0.521  -1.239  0.00  0.00    +0.065 C 
ATOM      4  C   UNL     1       1.915  -1.304  -0.682  0.00  0.00    -0.018 A 
ATOM      5  C   UNL     1       2.929  -1.994  -1.317  0.00  0.00    +0.006 A 
ATOM      6  C   UNL     1       3.900  -2.642  -0.576  0.00  0.00    +0.000 A 
ATOM      7  C   UNL     1       3.853  -2.597   0.806  0.00  0.00    +0.002 A 
ATOM      8  C   UNL     1       2.844  -1.909   1.444  0.00  0.00    +0.023 A 
ATOM      9  C   UNL     1       1.860  -1.252   0.702  0.00  0.00    +0.034 A 
ATOM     10  N   UNL     1       0.764  -0.508   1.148  0.00  0.00    -0.322 N 
ENDROOT
BRANCH   3  11
ATOM     11  C   UNL     1      -0.147  -1.416  -2.056  0.00  0.00    +0.001 C 
ATOM     12  C   UNL     1      -0.434  -1.100  -3.316  0.00  0.00    +0.068 C 
BRANCH  12  13
ATOM     13  C   UNL     1      -1.329  -1.996  -4.133  0.00  0.00    +0.216 C 
ATOM     14  N   UNL     1      -0.634  -2.426  -5.353  0.00  0.00    -0.359 N 
ATOM     15  C   UNL     1      -1.325  -1.994  -6.368  0.00  0.00    +0.060 A 
ATOM     16  C   UNL     1      -1.140  -2.106  -7.822  0.00  0.00    +0.027 A 
ATOM     17  C   UNL     1      -2.041  -1.543  -8.652  0.00  0.00    +0.002 A 
ATOM     18  C   UNL     1      -3.167  -0.842  -8.185  0.00  0.00    +0.002 A 
ATOM     19  C   UNL     1      -3.430  -0.680  -6.873  0.00  0.00    +0.027 A 
ATOM     20  C   UNL     1      -2.517  -1.252  -5.875  0.00  0.00    +0.060 A 
ATOM     21  N   UNL     1      -2.518  -1.254  -4.573  0.00  0.00    -0.359 N 
ATOM     22  H   UNL     1       0.188  -2.938  -5.394  0.00  0.00    +0.162 HD
ATOM     23  H   UNL     1      -3.182  -0.842  -3.999  0.00  0.00    +0.162 HD
ENDBRANCH  12  13
BRANCH  12  24
ATOM     24  C   UNL     1       0.108   0.091  -3.896  0.00  0.00    +0.098 C 
ATOM     25  N   UNL     1       0.538   1.037  -4.357  0.00  0.00    -0.191 NA
ENDBRANCH  12  24
ENDBRANCH   3  11
BRANCH  10  26
ATOM     26  C   UNL     1       0.425  -0.267   2.553  0.00  0.00    +0.143 C 
BRANCH  26  27
ATOM     27  C   UNL     1      -0.486  -1.362   3.045  0.00  0.00    +0.005 A 
ATOM     28  C   UNL     1      -1.849  -1.145   3.118  0.00  0.00    +0.008 A 
ATOM     29  C   UNL     1      -2.686  -2.149   3.570  0.00  0.00    +0.000 A 
ATOM     30  C   UNL     1      -2.160  -3.371   3.948  0.00  0.00    +0.003 A 
ATOM     31  C   UNL     1      -0.797  -3.589   3.875  0.00  0.00    +0.038 A 
ATOM     32  C   UNL     1       0.041  -2.586   3.418  0.00  0.00    +0.128 A 
ATOM     33  F   UNL     1       1.373  -2.801   3.342  0.00  0.00    -0.205 F 
ENDBRANCH  26  27
ENDBRANCH  10  26
TORSDOF 5
