REMARK  Name = ZINC09922455
REMARK  14 active torsions:
REMARK  status: ('A' for Active; 'I' for Inactive)
REMARK    1  A    between atoms: C_1  and  C_2
REMARK    2  A    between atoms: C_2  and  C_3
REMARK    3  A    between atoms: C_2  and  C_4
REMARK    4  A    between atoms: N_6  and  C_7
REMARK    5  A    between atoms: C_9  and  O_30
REMARK    6  A    between atoms: C_10  and  O_28
REMARK    7  A    between atoms: C_12  and  C_13
REMARK    8  A    between atoms: C_13  and  O_15
REMARK    9  A    between atoms: O_15  and  C_16
REMARK   10  A    between atoms: C_16  and  C_17
REMARK   11  A    between atoms: N_19  and  C_20
REMARK   12  A    between atoms: C_21  and  C_25
REMARK   13  A    between atoms: O_28  and  C_29
REMARK   14  A    between atoms: O_30  and  C_31
REMARK                            x       y       z     vdW  Elec       q    Type
REMARK                         _______ _______ _______ _____ _____    ______ ____
ROOT
ATOM      1  C   UNL     1      -3.829   1.538  -0.714  0.00  0.00    +0.342 C 
ATOM      2  O   UNL     1      -4.018   2.737  -0.638  0.00  0.00    -0.245 OA
ENDROOT
BRANCH   1   8
ATOM      3  C   UNL     1      -6.125   1.085   0.139  0.00  0.00    +0.051 A 
ATOM      4  C   UNL     1      -7.132   0.195   0.480  0.00  0.00    +0.073 A 
ATOM      5  C   UNL     1      -6.924  -1.169   0.358  0.00  0.00    +0.163 A 
ATOM      6  C   UNL     1      -5.704  -1.655  -0.115  0.00  0.00    +0.162 A 
ATOM      7  C   UNL     1      -4.697  -0.780  -0.464  0.00  0.00    +0.066 A 
ATOM      8  C   UNL     1      -4.899   0.600  -0.343  0.00  0.00    +0.084 A 
BRANCH   3  11
ATOM      9  C   UNL     1      -7.503   3.002  -0.117  0.00  0.00    +0.220 C 
ATOM     10  O   UNL     1      -8.412   2.288  -0.484  0.00  0.00    -0.275 OA
ATOM     11  N   UNL     1      -6.332   2.457   0.269  0.00  0.00    -0.284 N 
ATOM     12  H   UNL     1      -5.633   3.021   0.637  0.00  0.00    +0.155 HD
BRANCH   9  14
ATOM     13  C   UNL     1      -9.091   4.850  -0.576  0.00  0.00    +0.017 C 
ATOM     14  C   UNL     1      -7.683   4.498  -0.094  0.00  0.00    +0.069 C 
ATOM     15  C   UNL     1      -7.489   5.012   1.334  0.00  0.00    +0.017 C 
ENDBRANCH   9  14
ENDBRANCH   3  11
BRANCH   6  16
ATOM     16  O   UNL     1      -5.508  -2.997  -0.233  0.00  0.00    -0.491 OA
ATOM     17  C   UNL     1      -4.236  -3.425  -0.724  0.00  0.00    +0.277 C 
ENDBRANCH   6  16
BRANCH   5  18
ATOM     18  O   UNL     1      -7.911  -2.037   0.699  0.00  0.00    -0.491 OA
ATOM     19  C   UNL     1      -9.135  -1.473   1.176  0.00  0.00    +0.277 C 
ENDBRANCH   5  18
ENDBRANCH   1   8
BRANCH   1  20
ATOM     20  O   UNL     1      -2.638   1.069  -1.137  0.00  0.00    -0.452 OA
BRANCH  20  21
ATOM     21  C   UNL     1      -1.628   2.053  -1.486  0.00  0.00    +0.328 C 
BRANCH  21  22
ATOM     22  C   UNL     1      -0.374   1.347  -1.933  0.00  0.00    +0.255 C 
ATOM     23  O   UNL     1      -0.334   0.136  -1.956  0.00  0.00    -0.272 OA
ATOM     24  N   UNL     1       0.703   2.064  -2.313  0.00  0.00    -0.277 N 
ATOM     25  H   UNL     1       0.672   3.033  -2.295  0.00  0.00    +0.155 HD
BRANCH  24  26
ATOM     26  C   UNL     1       1.855   1.415  -2.730  0.00  0.00    +0.084 A 
ATOM     27  C   UNL     1       3.053   1.974  -3.161  0.00  0.00    +0.065 A 
ATOM     28  C   UNL     1       4.100   1.054  -3.536  0.00  0.00    +0.022 A 
ATOM     29  C   UNL     1       3.825  -0.260  -3.447  0.00  0.00    +0.048 A 
ATOM     30  S   UNL     1       2.148  -0.288  -2.848  0.00  0.00    -0.081 S 
BRANCH  27  31
ATOM     31  C   UNL     1       3.244   3.426  -3.228  0.00  0.00    +0.244 C 
ATOM     32  O   UNL     1       2.341   4.174  -2.901  0.00  0.00    -0.270 OA
ATOM     33  N   UNL     1       4.419   3.932  -3.650  0.00  0.00    -0.325 N 
ATOM     34  H   UNL     1       5.139   3.336  -3.911  0.00  0.00    +0.145 HD
ATOM     35  H   UNL     1       4.546   4.893  -3.694  0.00  0.00    +0.145 HD
ENDBRANCH  27  31
ENDBRANCH  24  26
ENDBRANCH  21  22
ENDBRANCH  20  21
ENDBRANCH   1  20
TORSDOF 10
