REMARK  Name = ZINC59170466
REMARK  7 active torsions:
REMARK  status: ('A' for Active; 'I' for Inactive)
REMARK    1  A    between atoms: C_1  and  C_2
REMARK    2  A    between atoms: C_5  and  S_8
REMARK    3  A    between atoms: S_8  and  N_11
REMARK    4  A    between atoms: N_11  and  N_12
REMARK    5  A    between atoms: C_14  and  C_27
REMARK    6  A    between atoms: N_29  and  C_30
REMARK    7  A    between atoms: C_35  and  C_36
REMARK                            x       y       z     vdW  Elec       q    Type
REMARK                         _______ _______ _______ _____ _____    ______ ____
ROOT
ATOM      1  N   UNL     1       2.921  -3.916   0.139  0.00  0.00    -0.260 N 
ATOM      2  C   UNL     1       4.135  -4.389   0.172  0.00  0.00    +0.225 A 
ATOM      3  C   UNL     1       4.983  -4.247   1.378  0.00  0.00    +0.099 A 
ATOM      4  C   UNL     1       5.985  -5.187   1.560  0.00  0.00    +0.030 A 
ATOM      5  C   UNL     1       6.149  -6.191   0.575  0.00  0.00    +0.026 A 
ATOM      6  C   UNL     1       7.032  -7.333   0.811  0.00  0.00    -0.007 A 
ATOM      7  C   UNL     1       7.757  -7.464   2.000  0.00  0.00    +0.009 A 
ATOM      8  C   UNL     1       8.569  -8.546   2.179  0.00  0.00    +0.001 A 
ATOM      9  C   UNL     1       8.686  -9.522   1.193  0.00  0.00    +0.001 A 
ATOM     10  C   UNL     1       7.994  -9.424   0.024  0.00  0.00    +0.008 A 
ATOM     11  C   UNL     1       7.148  -8.323  -0.193  0.00  0.00    -0.017 A 
ATOM     12  C   UNL     1       6.416  -8.189  -1.388  0.00  0.00    +0.012 A 
ATOM     13  C   UNL     1       5.607  -7.117  -1.596  0.00  0.00    +0.047 A 
ATOM     14  C   UNL     1       5.462  -6.110  -0.642  0.00  0.00    +0.138 A 
ATOM     15  O   UNL     1       4.671  -5.041  -0.901  0.00  0.00    -0.437 OA
ATOM     16  H   UNL     1       2.530  -3.527   0.937  0.00  0.00    +0.189 HD
ENDROOT
BRANCH   3  17
ATOM     17  C   UNL     1       4.772  -3.155   2.341  0.00  0.00    +0.253 C 
ATOM     18  O   UNL     1       3.841  -2.385   2.193  0.00  0.00    -0.270 OA
ATOM     19  N   UNL     1       5.608  -3.008   3.387  0.00  0.00    -0.281 N 
ATOM     20  H   UNL     1       6.388  -3.580   3.469  0.00  0.00    +0.155 HD
BRANCH  19  21
ATOM     21  C   UNL     1       5.353  -2.031   4.355  0.00  0.00    +0.037 A 
ATOM     22  C   UNL     1       4.075  -1.502   4.489  0.00  0.00    +0.023 A 
ATOM     23  C   UNL     1       3.826  -0.538   5.445  0.00  0.00    +0.002 A 
ATOM     24  C   UNL     1       4.847  -0.098   6.269  0.00  0.00    +0.000 A 
ATOM     25  C   UNL     1       6.120  -0.623   6.137  0.00  0.00    +0.005 A 
ATOM     26  C   UNL     1       6.374  -1.593   5.187  0.00  0.00    -0.029 A 
ATOM     27  C   UNL     1       7.760  -2.169   5.050  0.00  0.00    +0.045 C 
ENDBRANCH  19  21
ENDBRANCH   3  17
BRANCH   1  28
ATOM     28  N   UNL     1       2.181  -3.968  -1.050  0.00  0.00    -0.157 N 
ATOM     29  H   UNL     1       2.543  -4.422  -1.827  0.00  0.00    +0.194 HD
BRANCH  28  30
ATOM     30  S   UNL     1       0.689  -3.254  -1.128  0.00  0.00    +0.085 S 
ATOM     31  O   UNL     1      -0.061  -3.761  -0.033  0.00  0.00    -0.149 OA
ATOM     32  O   UNL     1       0.250  -3.377  -2.474  0.00  0.00    -0.149 OA
BRANCH  30  37
ATOM     33  C   UNL     1       1.470   2.640  -0.103  0.00  0.00    +0.044 C 
ATOM     34  C   UNL     1       1.275   1.168  -0.359  0.00  0.00    -0.050 A 
ATOM     35  C   UNL     1       1.446   0.659  -1.633  0.00  0.00    +0.005 A 
ATOM     36  C   UNL     1       1.267  -0.691  -1.868  0.00  0.00    +0.029 A 
ATOM     37  C   UNL     1       0.918  -1.533  -0.829  0.00  0.00    +0.110 A 
ATOM     38  C   UNL     1       0.748  -1.025   0.445  0.00  0.00    +0.029 A 
ATOM     39  C   UNL     1       0.931   0.325   0.681  0.00  0.00    +0.005 A 
ENDBRANCH  30  37
ENDBRANCH  28  30
ENDBRANCH   1  28
TORSDOF 5
