REMARK  Name = ZINC09547837
REMARK  5 active torsions:
REMARK  status: ('A' for Active; 'I' for Inactive)
REMARK    1  A    between atoms: C_1  and  C_2
REMARK    2  A    between atoms: C_8  and  C_9
REMARK    3  A    between atoms: C_8  and  N_55
REMARK    4  A    between atoms: C_10  and  O_31
REMARK    5  A    between atoms: C_17  and  C_18
REMARK                            x       y       z     vdW  Elec       q    Type
REMARK                         _______ _______ _______ _____ _____    ______ ____
ROOT
ATOM      1  C   UNL     1       1.118   2.146   0.839  0.00  0.00    +0.020 A 
ATOM      2  C   UNL     1      -0.082   1.481   1.033  0.00  0.00    +0.122 A 
ATOM      3  C   UNL     1      -1.288   2.176   1.008  0.00  0.00    +0.046 A 
ATOM      4  C   UNL     1      -1.298   3.527   0.802  0.00  0.00    +0.019 A 
ATOM      5  C   UNL     1      -0.098   4.209   0.605  0.00  0.00    +0.068 A 
ATOM      6  C   UNL     1       1.125   3.518   0.622  0.00  0.00    +0.144 A 
ATOM      7  O   UNL     1       2.140   4.384   0.410  0.00  0.00    -0.451 OA
ATOM      8  C   UNL     1       1.694   5.652   0.243  0.00  0.00    +0.176 C 
ATOM      9  C   UNL     1       2.461   6.748   0.013  0.00  0.00    +0.061 C 
ATOM     10  C   UNL     1       0.229   5.625   0.357  0.00  0.00    +0.231 C 
ATOM     11  O   UNL     1      -0.544   6.564   0.267  0.00  0.00    -0.283 OA
ENDROOT
BRANCH   9  12
ATOM     12  C   UNL     1       3.922   6.655   0.110  0.00  0.00    +0.022 A 
ATOM     13  C   UNL     1       4.550   5.404   0.099  0.00  0.00    +0.027 A 
ATOM     14  C   UNL     1       5.923   5.326   0.191  0.00  0.00    +0.019 A 
ATOM     15  C   UNL     1       6.684   6.480   0.296  0.00  0.00    +0.024 A 
ATOM     16  C   UNL     1       6.077   7.722   0.309  0.00  0.00    +0.022 A 
ATOM     17  C   UNL     1       4.700   7.822   0.209  0.00  0.00    +0.136 A 
ATOM     18  O   UNL     1       4.091   9.035   0.218  0.00  0.00    -0.465 OA
ATOM     19  C   UNL     1       4.864  10.145   0.685  0.00  0.00    +0.395 C 
ATOM     20  O   UNL     1       6.149  10.105   0.051  0.00  0.00    -0.339 OA
ATOM     21  C   UNL     1       6.925   8.964   0.430  0.00  0.00    +0.202 C 
ATOM     22 BR   UNL     1       6.772   3.637   0.173  0.00  0.00    -0.050 Br
ENDBRANCH   9  12
BRANCH   2  23
ATOM     23  O   UNL     1      -0.082   0.141   1.244  0.00  0.00    -0.506 OA
ATOM     24  H   UNL     1      -0.016  -0.111   2.175  0.00  0.00    +0.292 HD
ENDBRANCH   2  23
BRANCH   1  25
ATOM     25  C   UNL     1       2.416   1.381   0.863  0.00  0.00    -0.036 C 
BRANCH  25  32
ATOM     26  C   UNL     1       5.248  -1.577  -1.864  0.00  0.00    +0.005 C 
ATOM     27  C   UNL     1       4.067  -0.604  -1.879  0.00  0.00    -0.031 C 
ATOM     28  C   UNL     1       4.361   0.541  -2.852  0.00  0.00    -0.001 C 
ATOM     29  C   UNL     1       3.201   1.540  -2.817  0.00  0.00    -0.018 C 
ATOM     30  C   UNL     1       3.015   2.050  -1.385  0.00  0.00    -0.078 C 
ATOM     31  C   UNL     1       3.857  -0.033  -0.475  0.00  0.00    -0.075 C 
ATOM     32  N   UNL     1       2.712   0.902  -0.504  0.00  0.00    +0.383 N 
ATOM     33  H   UNL     1       1.889   0.410  -0.870  0.00  0.00    -0.081 HD
ENDBRANCH  25  32
ENDBRANCH   1  25
TORSDOF 4
