REMARK  Name = ZINC25784022
REMARK  4 active torsions:
REMARK  status: ('A' for Active; 'I' for Inactive)
REMARK    1  A    between atoms: C_1  and  O_2
REMARK    2  A    between atoms: O_2  and  C_3
REMARK    3  A    between atoms: C_7  and  C_9
REMARK    4  A    between atoms: C_20  and  C_22
REMARK                            x       y       z     vdW  Elec       q    Type
REMARK                         _______ _______ _______ _____ _____    ______ ____
ROOT
ATOM      1  C   UNL     1       0.981  -4.416   2.936  0.00  0.00    +0.159 C 
ATOM      2  C   UNL     1      -0.411  -4.689   3.460  0.00  0.00    +0.027 C 
ATOM      3  C   UNL     1      -0.538  -5.485   4.542  0.00  0.00    +0.083 C 
ATOM      4  C   UNL     1      -1.911  -5.752   5.039  0.00  0.00    +0.042 A 
ATOM      5  C   UNL     1      -2.135  -6.280   6.303  0.00  0.00    +0.013 A 
ATOM      6  C   UNL     1      -3.430  -6.510   6.726  0.00  0.00    +0.001 A 
ATOM      7  C   UNL     1      -4.497  -6.217   5.896  0.00  0.00    +0.004 A 
ATOM      8  C   UNL     1      -4.283  -5.693   4.635  0.00  0.00    +0.046 A 
ATOM      9  C   UNL     1      -2.991  -5.457   4.197  0.00  0.00    +0.131 A 
ATOM     10  O   UNL     1      -2.751  -4.949   2.961  0.00  0.00    -0.479 OA
ATOM     11  C   UNL     1      -1.622  -4.088   2.808  0.00  0.00    +0.234 C 
ATOM     12  N   UNL     1       0.544  -6.026   5.155  0.00  0.00    -0.213 NA
ATOM     13  C   UNL     1       1.784  -5.840   4.767  0.00  0.00    +0.237 C 
ATOM     14  N   UNL     1       2.078  -5.053   3.675  0.00  0.00    -0.208 N 
ATOM     15  N   UNL     1       3.468  -5.066   3.539  0.00  0.00    -0.251 N 
ATOM     16  C   UNL     1       3.947  -5.848   4.546  0.00  0.00    +0.203 C 
ATOM     17  N   UNL     1       2.960  -6.296   5.254  0.00  0.00    -0.205 NA
ATOM     18  H   UNL     1       3.989  -4.609   2.860  0.00  0.00    +0.171 HD
ENDROOT
BRANCH  11  19
ATOM     19  C   UNL     1      -1.921  -2.755   3.445  0.00  0.00    -0.002 A 
ATOM     20  C   UNL     1      -2.390  -2.701   4.745  0.00  0.00    +0.007 A 
ATOM     21  C   UNL     1      -2.665  -1.479   5.330  0.00  0.00    +0.001 A 
ATOM     22  C   UNL     1      -2.471  -0.311   4.616  0.00  0.00    +0.015 A 
ATOM     23  C   UNL     1      -2.001  -0.365   3.317  0.00  0.00    +0.018 A 
ATOM     24  C   UNL     1      -1.721  -1.588   2.733  0.00  0.00    +0.022 A 
ATOM     25 BR   UNL     1      -1.735   1.232   2.339  0.00  0.00    -0.050 Br
ENDBRANCH  11  19
BRANCH   1  30
ATOM     26  C   UNL     1       1.716  -0.915   4.154  0.00  0.00    +0.120 A 
ATOM     27  C   UNL     1       1.618  -0.189   2.976  0.00  0.00    +0.045 A 
ATOM     28  C   UNL     1       1.315  -0.833   1.792  0.00  0.00    +0.004 A 
ATOM     29  C   UNL     1       1.109  -2.200   1.780  0.00  0.00    +0.006 A 
ATOM     30  C   UNL     1       1.206  -2.926   2.953  0.00  0.00    -0.018 A 
ATOM     31  C   UNL     1       1.515  -2.288   4.138  0.00  0.00    +0.051 A 
BRANCH  26  33
ATOM     32  C   UNL     1       2.095   1.142   5.283  0.00  0.00    +0.277 C 
ATOM     33  O   UNL     1       2.015  -0.284   5.320  0.00  0.00    -0.495 OA
ENDBRANCH  26  33
ENDBRANCH   1  30
TORSDOF 3
