REMARK  Name = ZINC44713679
REMARK  8 active torsions:
REMARK  status: ('A' for Active; 'I' for Inactive)
REMARK    1  A    between atoms: C_1  and  C_2
REMARK    2  A    between atoms: C_3  and  C_9
REMARK    3  A    between atoms: C_4  and  C_8
REMARK    4  A    between atoms: C_9  and  C_11
REMARK    5  A    between atoms: C_9  and  N_12
REMARK    6  A    between atoms: C_13  and  C_15
REMARK    7  A    between atoms: C_26  and  C_28
REMARK    8  A    between atoms: C_33  and  C_34
REMARK                            x       y       z     vdW  Elec       q    Type
REMARK                         _______ _______ _______ _____ _____    ______ ____
ROOT
ATOM      1  C   UNL     1      -2.299  -0.549  -5.258  0.00  0.00    +0.100 C 
ATOM      2  C   UNL     1      -3.510  -1.175  -4.530  0.00  0.00    +0.121 C 
ATOM      3  N   UNL     1      -4.648  -0.286  -4.864  0.00  0.00    -0.296 N 
ATOM      4  C   UNL     1      -4.433   0.068  -6.287  0.00  0.00    +0.115 C 
ATOM      5  C   UNL     1      -2.909   0.263  -6.413  0.00  0.00    -0.004 C 
ATOM      6  C   UNL     1      -2.417  -0.273  -7.754  0.00  0.00    -0.010 C 
ATOM      7  C   UNL     1      -2.990   0.587  -8.884  0.00  0.00    -0.082 C 
ATOM      8  N   UNL     1      -2.565   1.980  -8.705  0.00  0.00    +0.379 N 
ATOM      9  C   UNL     1      -3.121   2.517  -7.457  0.00  0.00    -0.082 C 
ATOM     10  C   UNL     1      -2.553   1.739  -6.267  0.00  0.00    -0.010 C 
ATOM     11  C   UNL     1      -5.651   0.110  -4.056  0.00  0.00    +0.247 C 
ATOM     12  O   UNL     1      -6.573   0.762  -4.507  0.00  0.00    -0.270 OA
ATOM     13  H   UNL     1      -1.557   2.021  -8.668  0.00  0.00    -0.086 HD
ATOM     14  H   UNL     1      -2.893   2.533  -9.483  0.00  0.00    -0.086 HD
ENDROOT
BRANCH  11  15
ATOM     15  C   UNL     1      -5.631  -0.249  -2.622  0.00  0.00    +0.049 A 
ATOM     16  C   UNL     1      -5.154  -1.497  -2.219  0.00  0.00    +0.013 A 
ATOM     17  C   UNL     1      -5.137  -1.826  -0.879  0.00  0.00    +0.001 A 
ATOM     18  C   UNL     1      -5.593  -0.921   0.064  0.00  0.00    +0.001 A 
ATOM     19  C   UNL     1      -6.068   0.317  -0.329  0.00  0.00    +0.013 A 
ATOM     20  C   UNL     1      -6.084   0.660  -1.666  0.00  0.00    +0.067 A 
BRANCH  20  21
ATOM     21  C   UNL     1      -6.596   2.012  -2.092  0.00  0.00    +0.418 C 
ATOM     22  F   UNL     1      -6.990   2.739  -0.963  0.00  0.00    -0.166 F 
ATOM     23  F   UNL     1      -5.582   2.705  -2.762  0.00  0.00    -0.166 F 
ATOM     24  F   UNL     1      -7.692   1.848  -2.946  0.00  0.00    -0.166 F 
ENDBRANCH  20  21
ENDBRANCH  11  15
BRANCH   1  26
ATOM     25  N   UNL     1      -0.209   0.523  -4.483  0.00  0.00    -0.308 N 
ATOM     26  C   UNL     1      -1.537   0.356  -4.325  0.00  0.00    +0.219 C 
ATOM     27  O   UNL     1      -2.119   0.936  -3.433  0.00  0.00    -0.275 OA
ATOM     28  H   UNL     1       0.257   0.059  -5.197  0.00  0.00    +0.149 HD
BRANCH  25  29
ATOM     29  C   UNL     1       0.532   1.403  -3.576  0.00  0.00    +0.104 C 
ATOM     30  C   UNL     1       0.352   2.857  -4.016  0.00  0.00    +0.033 C 
BRANCH  29  33
ATOM     31  C   UNL     1       2.233   0.866  -6.146  0.00  0.00    +0.065 C 
ATOM     32  C   UNL     1       2.731   0.813  -4.725  0.00  0.00    +0.038 A 
ATOM     33  C   UNL     1       1.996   1.045  -3.613  0.00  0.00    +0.015 A 
ATOM     34  C   UNL     1       2.834   0.894  -2.503  0.00  0.00    +0.065 A 
ATOM     35  N   UNL     1       4.030   0.583  -2.934  0.00  0.00    -0.179 NA
ATOM     36  N   UNL     1       3.989   0.520  -4.333  0.00  0.00    -0.281 N 
ATOM     37  H   UNL     1       4.733   0.307  -4.917  0.00  0.00    +0.189 HD
ATOM     38  C   UNL     1       2.430   1.062  -1.061  0.00  0.00    +0.068 C 
ENDBRANCH  29  33
ENDBRANCH  25  29
ENDBRANCH   1  26
TORSDOF 5
