REMARK  Name = ZINC40010066
REMARK  9 active torsions:
REMARK  status: ('A' for Active; 'I' for Inactive)
REMARK    1  A    between atoms: C_1  and  C_2
REMARK    2  A    between atoms: C_7  and  N_8
REMARK    3  A    between atoms: N_11  and  C_12
REMARK    4  A    between atoms: N_11  and  C_26
REMARK    5  A    between atoms: C_12  and  C_13
REMARK    6  A    between atoms: N_15  and  C_16
REMARK    7  A    between atoms: C_17  and  C_23
REMARK    8  A    between atoms: C_18  and  C_22
REMARK    9  A    between atoms: C_19  and  C_21
REMARK                            x       y       z     vdW  Elec       q    Type
REMARK                         _______ _______ _______ _____ _____    ______ ____
ROOT
ATOM      1  N   UNL     1      -0.065  -0.041   2.455  0.00  0.00    -0.269 N 
ATOM      2  C   UNL     1       0.316  -0.700   3.567  0.00  0.00    +0.307 C 
ATOM      3  O   UNL     1       0.528  -1.896   3.522  0.00  0.00    -0.252 OA
ATOM      4  N   UNL     1       0.462  -0.033   4.729  0.00  0.00    -0.274 N 
ATOM      5  H   UNL     1      -0.147   0.926   2.468  0.00  0.00    +0.156 HD
ENDROOT
BRANCH   1  12
ATOM      6  C   UNL     1      -0.432   1.433   0.049  0.00  0.00    +0.045 C 
ATOM      7  C   UNL     1      -0.529  -0.071   0.085  0.00  0.00    -0.029 A 
ATOM      8  C   UNL     1      -0.798  -0.774  -1.073  0.00  0.00    +0.005 A 
ATOM      9  C   UNL     1      -0.887  -2.154  -1.040  0.00  0.00    +0.000 A 
ATOM     10  C   UNL     1      -0.708  -2.833   0.151  0.00  0.00    +0.002 A 
ATOM     11  C   UNL     1      -0.439  -2.135   1.312  0.00  0.00    +0.023 A 
ATOM     12  C   UNL     1      -0.343  -0.750   1.281  0.00  0.00    +0.038 A 
ENDBRANCH   1  12
BRANCH   4  13
ATOM     13  C   UNL     1       0.333   1.426   4.758  0.00  0.00    +0.078 C 
ATOM     14  C   UNL     1      -1.025   1.848   4.160  0.00  0.00    +0.022 C 
ATOM     15  C   UNL     1      -0.709   3.152   3.385  0.00  0.00    +0.002 C 
ATOM     16  C   UNL     1       0.685   2.859   2.776  0.00  0.00    +0.002 C 
ATOM     17  C   UNL     1       1.420   2.068   3.878  0.00  0.00    +0.022 C 
ENDBRANCH   4  13
BRANCH   4  18
ATOM     18  C   UNL     1       0.749  -0.767   5.964  0.00  0.00    +0.205 C 
BRANCH  18  19
ATOM     19  C   UNL     1       2.241  -0.891   6.139  0.00  0.00    +0.235 C 
ATOM     20  O   UNL     1       2.990  -0.413   5.314  0.00  0.00    -0.274 OA
ATOM     21  N   UNL     1       2.743  -1.533   7.213  0.00  0.00    -0.278 N 
ATOM     22  H   UNL     1       2.143  -1.916   7.873  0.00  0.00    +0.155 HD
BRANCH  21  23
ATOM     23  C   UNL     1       4.115  -1.647   7.374  0.00  0.00    +0.084 A 
ATOM     24  C   UNL     1       4.804  -2.272   8.403  0.00  0.00    +0.068 A 
ATOM     25  C   UNL     1       6.247  -2.244   8.325  0.00  0.00    -0.027 A 
ATOM     26  C   UNL     1       6.764  -1.611   7.257  0.00  0.00    -0.008 A 
ATOM     27  S   UNL     1       5.324  -1.067   6.365  0.00  0.00    -0.078 S 
ATOM     28  C   UNL     1       8.215  -1.415   6.898  0.00  0.00    +0.052 C 
ATOM     29  C   UNL     1       7.117  -2.883   9.376  0.00  0.00    +0.045 C 
BRANCH  24  30
ATOM     30  C   UNL     1       4.104  -2.927   9.513  0.00  0.00    +0.244 C 
ATOM     31  O   UNL     1       3.802  -4.103   9.433  0.00  0.00    -0.270 OA
ATOM     32  N   UNL     1       3.795  -2.226  10.622  0.00  0.00    -0.325 N 
ATOM     33  H   UNL     1       4.036  -1.288  10.686  0.00  0.00    +0.145 HD
ATOM     34  H   UNL     1       3.333  -2.659  11.356  0.00  0.00    +0.145 HD
ENDBRANCH  24  30
ENDBRANCH  21  23
ENDBRANCH  18  19
ENDBRANCH   4  18
TORSDOF 6
