REMARK  Name = ZINC14368105
REMARK  7 active torsions:
REMARK  status: ('A' for Active; 'I' for Inactive)
REMARK    1  A    between atoms: C_1  and  C_2
REMARK    2  A    between atoms: C_2  and  C_4
REMARK    3  A    between atoms: C_2  and  N_11
REMARK    4  A    between atoms: C_12  and  C_14
REMARK    5  A    between atoms: C_14  and  N_15
REMARK    6  A    between atoms: C_18  and  C_22
REMARK    7  A    between atoms: C_18  and  C_23
REMARK                            x       y       z     vdW  Elec       q    Type
REMARK                         _______ _______ _______ _____ _____    ______ ____
ROOT
ATOM      1  N   UNL     1      -0.150  -1.201   4.706  0.00  0.00    -0.215 N 
ATOM      2  C   UNL     1      -0.377  -0.185   5.562  0.00  0.00    +0.251 C 
ATOM      3  O   UNL     1       0.131   0.916   5.543  0.00  0.00    -0.272 OA
ATOM      4  C   UNL     1      -1.399  -0.705   6.553  0.00  0.00    +0.135 C 
ATOM      5  N   UNL     1      -1.654  -2.082   6.098  0.00  0.00    -0.281 N 
ATOM      6  C   UNL     1      -0.883  -2.277   5.013  0.00  0.00    +0.310 C 
ATOM      7  O   UNL     1      -0.854  -3.316   4.383  0.00  0.00    -0.252 OA
ATOM      8  C   UNL     1      -2.681   0.128   6.491  0.00  0.00    +0.047 C 
ATOM      9  H   UNL     1      -2.261  -2.723   6.500  0.00  0.00    +0.152 HD
ENDROOT
BRANCH   4  10
ATOM     10  C   UNL     1      -0.832  -0.704   7.950  0.00  0.00    -0.012 A 
ATOM     11  C   UNL     1       0.114   0.238   8.309  0.00  0.00    +0.010 A 
ATOM     12  C   UNL     1       0.639   0.245   9.589  0.00  0.00    +0.050 A 
ATOM     13  C   UNL     1       0.212  -0.696  10.511  0.00  0.00    +0.162 A 
ATOM     14  C   UNL     1      -0.738  -1.641  10.150  0.00  0.00    +0.162 A 
ATOM     15  C   UNL     1      -1.264  -1.643   8.870  0.00  0.00    +0.055 A 
ATOM     16  O   UNL     1      -1.153  -2.563  11.067  0.00  0.00    -0.488 OA
ATOM     17  C   UNL     1      -0.181  -3.535  11.459  0.00  0.00    +0.232 C 
ATOM     18  C   UNL     1       0.705  -2.995  12.570  0.00  0.00    +0.082 C 
ATOM     19  C   UNL     1       1.548  -1.814  12.115  0.00  0.00    +0.232 C 
ATOM     20  O   UNL     1       0.720  -0.700  11.777  0.00  0.00    -0.488 OA
ENDBRANCH   4  10
BRANCH   1  21
ATOM     21  C   UNL     1       0.780  -1.133   3.576  0.00  0.00    +0.213 C 
BRANCH  21  23
ATOM     22  N   UNL     1       0.711  -0.489   1.189  0.00  0.00    -0.307 N 
ATOM     23  C   UNL     1       0.051  -0.633   2.355  0.00  0.00    +0.231 C 
ATOM     24  O   UNL     1      -1.129  -0.361   2.423  0.00  0.00    -0.274 OA
ATOM     25  H   UNL     1       1.654  -0.707   1.135  0.00  0.00    +0.149 HD
BRANCH  22  27
ATOM     26  C   UNL     1      -0.019   1.526   0.010  0.00  0.00    +0.033 C 
ATOM     27  C   UNL     1       0.002  -0.004   0.002  0.00  0.00    +0.100 C 
BRANCH  27  28
ATOM     28  C   UNL     1       0.707  -0.490  -1.238  0.00  0.00    -0.027 A 
ATOM     29  C   UNL     1       2.089  -0.511  -1.284  0.00  0.00    +0.007 A 
ATOM     30  C   UNL     1       2.736  -0.956  -2.421  0.00  0.00    +0.020 A 
ATOM     31  C   UNL     1       2.002  -1.382  -3.513  0.00  0.00    +0.041 A 
ATOM     32  C   UNL     1       0.619  -1.361  -3.466  0.00  0.00    +0.020 A 
ATOM     33  C   UNL     1      -0.027  -0.920  -2.327  0.00  0.00    +0.007 A 
ATOM     34 CL   UNL     1       2.814  -1.941  -4.941  0.00  0.00    -0.084 Cl
ENDBRANCH  27  28
ENDBRANCH  22  27
ENDBRANCH  21  23
ENDBRANCH   1  21
TORSDOF 5
