REMARK  Name = ZINC35707296
REMARK  7 active torsions:
REMARK  status: ('A' for Active; 'I' for Inactive)
REMARK    1  A    between atoms: N_9  and  C_11
REMARK    2  A    between atoms: C_14  and  N_26
REMARK    3  A    between atoms: C_16  and  C_17
REMARK    4  A    between atoms: N_19  and  C_20
REMARK    5  A    between atoms: C_27  and  C_29
REMARK    6  A    between atoms: C_30  and  C_31
REMARK    7  A    between atoms: C_34  and  N_37
REMARK                            x       y       z     vdW  Elec       q    Type
REMARK                         _______ _______ _______ _____ _____    ______ ____
ROOT
ATOM      1  C   UNL     1       4.421  -2.747   0.970  0.00  0.00    +0.042 A 
ATOM      2  C   UNL     1       5.513  -3.458   0.488  0.00  0.00    +0.026 A 
ATOM      3  C   UNL     1       6.341  -4.132   1.361  0.00  0.00    +0.025 A 
ATOM      4  C   UNL     1       6.090  -4.106   2.729  0.00  0.00    +0.034 A 
ATOM      5  C   UNL     1       5.008  -3.401   3.225  0.00  0.00    +0.038 A 
ATOM      6  C   UNL     1       4.166  -2.711   2.349  0.00  0.00    +0.059 A 
ENDROOT
BRANCH   1  15
ATOM      7  C   UNL     1       2.301  -1.702  -4.731  0.00  0.00    +0.000 A 
ATOM      8  C   UNL     1       1.552  -2.753  -4.235  0.00  0.00    +0.000 A 
ATOM      9  C   UNL     1       1.627  -3.074  -2.896  0.00  0.00    +0.005 A 
ATOM     10  C   UNL     1       2.452  -2.353  -2.043  0.00  0.00    -0.027 A 
ATOM     11  C   UNL     1       3.206  -1.312  -2.538  0.00  0.00    -0.041 A 
ATOM     12  C   UNL     1       3.122  -0.986  -3.886  0.00  0.00    +0.004 A 
ATOM     13  C   UNL     1       4.144  -0.504  -1.681  0.00  0.00    +0.054 C 
ATOM     14  C   UNL     1       3.783  -0.637  -0.203  0.00  0.00    +0.110 C 
ATOM     15  N   UNL     1       3.587  -2.067   0.089  0.00  0.00    -0.325 N 
ATOM     16  C   UNL     1       2.477  -2.747  -0.588  0.00  0.00    +0.140 C 
ENDBRANCH   1  15
BRANCH   6  17
ATOM     17  C   UNL     1       3.014  -1.954   2.870  0.00  0.00    +0.246 C 
ATOM     18  O   UNL     1       2.228  -1.436   2.100  0.00  0.00    -0.270 OA
ATOM     19  N   UNL     1       2.830  -1.837   4.200  0.00  0.00    -0.308 N 
ATOM     20  H   UNL     1       3.457  -2.250   4.815  0.00  0.00    +0.149 HD
BRANCH  19  21
ATOM     21  C   UNL     1       1.685  -1.084   4.718  0.00  0.00    +0.073 C 
ATOM     22  C   UNL     1       2.038   0.403   4.783  0.00  0.00    +0.022 C 
ATOM     23  C   UNL     1       0.842   1.188   5.324  0.00  0.00    +0.002 C 
ATOM     24  C   UNL     1       0.493   0.685   6.726  0.00  0.00    +0.000 C 
ATOM     25  C   UNL     1       0.140  -0.802   6.661  0.00  0.00    +0.002 C 
ATOM     26  C   UNL     1       1.336  -1.588   6.120  0.00  0.00    +0.022 C 
ENDBRANCH  19  21
ENDBRANCH   6  17
BRANCH   4  27
ATOM     27  N   UNL     1       6.937  -4.794   3.608  0.00  0.00    -0.282 N 
ATOM     28  C   UNL     1       8.258  -4.868   3.351  0.00  0.00    +0.241 C 
ATOM     29  O   UNL     1       8.703  -4.410   2.315  0.00  0.00    -0.270 OA
ATOM     30  H   UNL     1       6.573  -5.217   4.401  0.00  0.00    +0.155 HD
BRANCH  28  31
ATOM     31  C   UNL     1       9.157  -5.501   4.317  0.00  0.00    +0.068 C 
ATOM     32  C   UNL     1      10.479  -5.575   4.060  0.00  0.00    +0.013 C 
BRANCH  32  33
ATOM     33  C   UNL     1      11.383  -6.211   5.032  0.00  0.00    -0.025 A 
ATOM     34  C   UNL     1      10.875  -6.744   6.221  0.00  0.00    +0.010 A 
ATOM     35  C   UNL     1      11.728  -7.338   7.127  0.00  0.00    +0.033 A 
ATOM     36  C   UNL     1      13.085  -7.407   6.862  0.00  0.00    +0.126 A 
ATOM     37  C   UNL     1      13.596  -6.881   5.688  0.00  0.00    +0.033 A 
ATOM     38  C   UNL     1      12.754  -6.290   4.769  0.00  0.00    +0.010 A 
BRANCH  36  39
ATOM     39  N   UNL     1      13.994  -8.046   7.839  0.00  0.00    +0.056 N 
ATOM     40  O   UNL     1      13.551  -8.506   8.866  0.00  0.00    -0.126 OA
ATOM     41  O   UNL     1      15.180  -8.109   7.611  0.00  0.00    -0.126 OA
ENDBRANCH  36  39
ENDBRANCH  32  33
ENDBRANCH  28  31
ENDBRANCH   4  27
TORSDOF 7
