REMARK  Name = ZINC12278568
REMARK  8 active torsions:
REMARK  status: ('A' for Active; 'I' for Inactive)
REMARK    1  A    between atoms: C_4  and  C_7
REMARK    2  A    between atoms: C_7  and  C_8
REMARK    3  A    between atoms: C_8  and  C_10
REMARK    4  A    between atoms: C_8  and  N_26
REMARK    5  A    between atoms: C_15  and  C_16
REMARK    6  A    between atoms: C_15  and  N_72
REMARK    7  A    between atoms: N_26  and  C_27
REMARK    8  A    between atoms: C_30  and  C_32
REMARK                            x       y       z     vdW  Elec       q    Type
REMARK                         _______ _______ _______ _____ _____    ______ ____
ROOT
ATOM      1  C   UNL     1       5.747  -2.796  -6.200  0.00  0.00    +0.084 C 
ENDROOT
BRANCH   1   2
ATOM      2  C   UNL     1       5.958  -2.543  -4.705  0.00  0.00    +0.006 C 
ATOM      3  C   UNL     1       7.229  -1.713  -4.501  0.00  0.00    -0.013 C 
ATOM      4  C   UNL     1       7.402  -1.412  -3.011  0.00  0.00    -0.078 C 
ATOM      5  C   UNL     1       5.004  -1.472  -2.662  0.00  0.00    -0.078 C 
ATOM      6  C   UNL     1       4.760  -1.775  -4.142  0.00  0.00    -0.013 C 
ATOM      7  N   UNL     1       6.227  -0.651  -2.536  0.00  0.00    +0.382 N 
ATOM      8  H   UNL     1       6.122   0.193  -3.111  0.00  0.00    -0.081 HD
BRANCH   7   9
ATOM      9  C   UNL     1       6.422  -0.249  -1.127  0.00  0.00    -0.043 C 
BRANCH   9  10
ATOM     10  C   UNL     1       5.321   0.704  -0.738  0.00  0.00    -0.060 A 
ATOM     11  C   UNL     1       4.151   0.217  -0.185  0.00  0.00    +0.005 A 
ATOM     12  C   UNL     1       3.138   1.087   0.172  0.00  0.00    +0.049 A 
ATOM     13  C   UNL     1       3.294   2.452  -0.024  0.00  0.00    +0.162 A 
ATOM     14  C   UNL     1       4.471   2.941  -0.577  0.00  0.00    +0.162 A 
ATOM     15  C   UNL     1       5.483   2.062  -0.934  0.00  0.00    +0.051 A 
ATOM     16  O   UNL     1       4.647   4.277  -0.770  0.00  0.00    -0.485 OA
ATOM     17  C   UNL     1       3.470   5.091  -0.749  0.00  0.00    +0.270 C 
ATOM     18  C   UNL     1       2.624   4.680   0.464  0.00  0.00    +0.270 C 
ATOM     19  O   UNL     1       2.284   3.296   0.324  0.00  0.00    -0.485 OA
ENDBRANCH   9  10
ENDBRANCH   7   9
ENDBRANCH   1   2
BRANCH   1  20
ATOM     20  N   UNL     1       4.532  -3.591  -6.394  0.00  0.00    -0.290 N 
ATOM     21  C   UNL     1       3.449  -3.035  -6.972  0.00  0.00    +0.265 C 
ATOM     22  O   UNL     1       2.430  -3.684  -7.102  0.00  0.00    -0.268 OA
BRANCH  21  23
ATOM     23  C   UNL     1       3.501  -1.633  -7.449  0.00  0.00    +0.126 A 
ATOM     24  C   UNL     1       2.655  -1.222  -8.477  0.00  0.00    +0.033 A 
ATOM     25  C   UNL     1       2.715   0.092  -8.912  0.00  0.00    +0.004 A 
ATOM     26  C   UNL     1       3.619   0.950  -8.304  0.00  0.00    +0.020 A 
ATOM     27  C   UNL     1       4.430   0.472  -7.287  0.00  0.00    +0.111 A 
ATOM     28  N   UNL     1       4.349  -0.779  -6.890  0.00  0.00    -0.250 NA
ENDBRANCH  21  23
BRANCH  20  29
ATOM     29  C   UNL     1       4.494  -4.989  -5.959  0.00  0.00    +0.077 C 
ATOM     30  C   UNL     1       3.385  -5.876  -6.528  0.00  0.00    +0.024 C 
ATOM     31  C   UNL     1       3.327  -5.421  -5.069  0.00  0.00    +0.024 C 
ENDBRANCH  20  29
ENDBRANCH   1  20
BRANCH   1  32
ATOM     32  C   UNL     1       6.949  -3.557  -6.763  0.00  0.00    +0.058 C 
BRANCH  32  36
ATOM     33  C   UNL     1       6.525  -3.958 -10.995  0.00  0.00    +0.000 A 
ATOM     34  C   UNL     1       7.175  -2.858 -10.466  0.00  0.00    +0.000 A 
ATOM     35  C   UNL     1       7.312  -2.728  -9.097  0.00  0.00    +0.004 A 
ATOM     36  C   UNL     1       6.799  -3.698  -8.256  0.00  0.00    -0.046 A 
ATOM     37  C   UNL     1       6.154  -4.801  -8.784  0.00  0.00    +0.004 A 
ATOM     38  C   UNL     1       6.012  -4.928 -10.154  0.00  0.00    +0.000 A 
ENDBRANCH  32  36
ENDBRANCH   1  32
TORSDOF 8
