REMARK  Name = ZINC36724795
REMARK  4 active torsions:
REMARK  status: ('A' for Active; 'I' for Inactive)
REMARK    1  A    between atoms: C_1  and  C_2
REMARK    2  A    between atoms: N_5  and  C_8
REMARK    3  A    between atoms: C_11  and  N_22
REMARK    4  A    between atoms: C_13  and  C_14
REMARK                            x       y       z     vdW  Elec       q    Type
REMARK                         _______ _______ _______ _____ _____    ______ ____
ROOT
ATOM      1  C   UNL     1      -1.069  -3.489   1.979  0.00  0.00    +0.042 A 
ATOM      2  C   UNL     1      -1.004  -4.846   1.687  0.00  0.00    +0.026 A 
ATOM      3  C   UNL     1      -1.509  -5.770   2.578  0.00  0.00    +0.034 A 
ATOM      4  C   UNL     1      -2.084  -5.355   3.769  0.00  0.00    +0.127 A 
ATOM      5  C   UNL     1      -2.158  -4.014   4.077  0.00  0.00    +0.047 A 
ATOM      6  C   UNL     1      -1.645  -3.066   3.187  0.00  0.00    +0.060 A 
ENDROOT
BRANCH   6   7
ATOM      7  C   UNL     1      -1.715  -1.630   3.512  0.00  0.00    +0.252 C 
ATOM      8  O   UNL     1      -1.364  -0.803   2.693  0.00  0.00    -0.270 OA
ATOM      9  N   UNL     1      -2.168  -1.233   4.718  0.00  0.00    -0.261 N 
ATOM     10  C   UNL     1      -2.234   0.112   5.023  0.00  0.00    +0.156 C 
ATOM     11  N   UNL     1      -1.903   1.110   4.256  0.00  0.00    -0.262 NA
ATOM     12  C   UNL     1      -2.002   2.482   4.720  0.00  0.00    +0.155 C 
ATOM     13  C   UNL     1      -2.935   2.588   5.957  0.00  0.00    +0.100 C 
ATOM     14  S   UNL     1      -2.798   0.848   6.548  0.00  0.00    -0.089 S 
ATOM     15  H   UNL     1      -2.449  -1.893   5.372  0.00  0.00    +0.157 HD
ENDBRANCH   6   7
BRANCH   1  20
ATOM     16  C   UNL     1       1.507  -1.763  -2.550  0.00  0.00    +0.007 C 
ATOM     17  C   UNL     1       0.753  -1.595  -1.229  0.00  0.00    -0.011 C 
ATOM     18  C   UNL     1       1.550  -2.250  -0.099  0.00  0.00    +0.022 C 
ATOM     19  C   UNL     1       0.809  -2.050   1.226  0.00  0.00    +0.105 C 
ATOM     20  N   UNL     1      -0.562  -2.557   1.083  0.00  0.00    -0.329 N 
ATOM     21  C   UNL     1      -1.387  -2.060  -0.027  0.00  0.00    +0.105 C 
ATOM     22  C   UNL     1      -0.621  -2.260  -1.339  0.00  0.00    +0.022 C 
ENDBRANCH   1  20
BRANCH   4  23
ATOM     23  N   UNL     1      -2.622  -6.357   4.716  0.00  0.00    +0.056 N 
ATOM     24  O   UNL     1      -2.559  -7.535   4.449  0.00  0.00    -0.126 OA
ATOM     25  O   UNL     1      -3.124  -5.999   5.755  0.00  0.00    -0.126 OA
ENDBRANCH   4  23
TORSDOF 3
