REMARK  Name = ZINC02862298
REMARK  3 active torsions:
REMARK  status: ('A' for Active; 'I' for Inactive)
REMARK    1  A    between atoms: C_6  and  C_7
REMARK    2  A    between atoms: C_7  and  N_8
REMARK    3  A    between atoms: C_9  and  C_25
REMARK                            x       y       z     vdW  Elec       q    Type
REMARK                         _______ _______ _______ _____ _____    ______ ____
ROOT
ATOM      1  N   UNL     1       2.313   5.790  -0.836  0.00  0.00    -0.279 N 
ATOM      2  C   UNL     1       2.442   4.593   0.004  0.00  0.00    +0.145 C 
ATOM      3  C   UNL     1       2.757   5.092   1.391  0.00  0.00    +0.072 A 
ATOM      4  C   UNL     1       2.999   4.405   2.662  0.00  0.00    +0.199 A 
ATOM      5  O   UNL     1       2.966   3.190   2.748  0.00  0.00    -0.287 OA
ATOM      6  C   UNL     1       3.282   5.258   3.833  0.00  0.00    +0.067 A 
ATOM      7  C   UNL     1       3.526   4.707   5.091  0.00  0.00    +0.053 A 
ATOM      8  C   UNL     1       3.786   5.541   6.158  0.00  0.00    +0.124 A 
ATOM      9  C   UNL     1       3.805   6.920   5.979  0.00  0.00    +0.042 A 
ATOM     10  C   UNL     1       3.566   7.473   4.740  0.00  0.00    +0.050 A 
ATOM     11  C   UNL     1       3.301   6.651   3.649  0.00  0.00    +0.140 A 
ATOM     12  O   UNL     1       3.065   7.181   2.434  0.00  0.00    -0.450 OA
ATOM     13  C   UNL     1       2.802   6.446   1.336  0.00  0.00    +0.199 A 
ATOM     14  C   UNL     1       2.523   6.866  -0.060  0.00  0.00    +0.283 C 
ATOM     15  O   UNL     1       2.489   8.018  -0.445  0.00  0.00    -0.267 OA
ATOM     16  F   UNL     1       4.023   5.017   7.380  0.00  0.00    -0.205 F 
ENDROOT
BRANCH   2  17
ATOM     17  C   UNL     1       1.148   3.822   0.012  0.00  0.00    -0.021 A 
ATOM     18  C   UNL     1      -0.059   4.497   0.027  0.00  0.00    +0.007 A 
ATOM     19  C   UNL     1      -1.247   3.791   0.034  0.00  0.00    +0.022 A 
ATOM     20  C   UNL     1      -1.230   2.408   0.021  0.00  0.00    +0.059 A 
ATOM     21  C   UNL     1      -0.021   1.732   0.012  0.00  0.00    +0.060 A 
ATOM     22  C   UNL     1       1.167   2.440   0.004  0.00  0.00    +0.027 A 
ATOM     23 CL   UNL     1       0.002  -0.004   0.002  0.00  0.00    -0.082 Cl
ATOM     24 CL   UNL     1      -2.722   1.521   0.023  0.00  0.00    -0.082 Cl
ENDBRANCH   2  17
BRANCH   1  25
ATOM     25  C   UNL     1       2.009   5.807  -2.269  0.00  0.00    +0.144 C 
BRANCH  25  31
ATOM     26  C   UNL     1      -0.218   4.703  -2.565  0.00  0.00    +0.008 A 
ATOM     27  C   UNL     1      -1.587   4.761  -2.740  0.00  0.00    +0.038 A 
ATOM     28  C   UNL     1      -2.223   5.988  -2.826  0.00  0.00    +0.123 A 
ATOM     29  C   UNL     1      -1.486   7.156  -2.732  0.00  0.00    +0.038 A 
ATOM     30  C   UNL     1      -0.117   7.096  -2.551  0.00  0.00    +0.008 A 
ATOM     31  C   UNL     1       0.516   5.871  -2.465  0.00  0.00    -0.030 A 
ATOM     32  F   UNL     1      -3.561   6.045  -3.001  0.00  0.00    -0.205 F 
ENDBRANCH  25  31
ENDBRANCH   1  25
TORSDOF 3
