REMARK  Name = ZINC35544390
REMARK  5 active torsions:
REMARK  status: ('A' for Active; 'I' for Inactive)
REMARK    1  A    between atoms: C_4  and  C_7
REMARK    2  A    between atoms: C_7  and  C_8
REMARK    3  A    between atoms: C_14  and  C_16
REMARK    4  A    between atoms: N_29  and  C_32
REMARK    5  A    between atoms: C_32  and  C_33
REMARK                            x       y       z     vdW  Elec       q    Type
REMARK                         _______ _______ _______ _____ _____    ______ ____
ROOT
ATOM      1  C   UNL     1       6.766  -4.279   4.074  0.00  0.00    +0.098 C 
ATOM      2  C   UNL     1       7.138  -4.452   2.602  0.00  0.00    +0.051 C 
ATOM      3  C   UNL     1       6.272  -5.522   1.989  0.00  0.00    -0.026 A 
ATOM      4  C   UNL     1       6.033  -5.500   0.626  0.00  0.00    +0.005 A 
ATOM      5  C   UNL     1       5.238  -6.470   0.045  0.00  0.00    +0.000 A 
ATOM      6  C   UNL     1       4.678  -7.466   0.824  0.00  0.00    +0.002 A 
ATOM      7  C   UNL     1       4.915  -7.494   2.183  0.00  0.00    +0.023 A 
ATOM      8  C   UNL     1       5.718  -6.520   2.770  0.00  0.00    +0.033 A 
ATOM      9  N   UNL     1       5.950  -6.583   4.153  0.00  0.00    -0.329 N 
ATOM     10  C   UNL     1       6.853  -5.633   4.785  0.00  0.00    +0.069 C 
ATOM     11  C   UNL     1       6.578  -5.431   6.266  0.00  0.00    -0.055 C 
ATOM     12  N   UNL     1       6.210  -6.681   6.930  0.00  0.00    +0.385 N 
ATOM     13  C   UNL     1       4.971  -7.193   6.325  0.00  0.00    -0.059 C 
ATOM     14  C   UNL     1       5.280  -7.650   4.902  0.00  0.00    +0.087 C 
ATOM     15  H   UNL     1       6.949  -7.357   6.811  0.00  0.00    -0.081 HD
ENDROOT
BRANCH   1  22
ATOM     16  C   UNL     1       4.721   0.261   4.821  0.00  0.00    -0.004 C 
ATOM     17  C   UNL     1       6.106  -0.379   4.935  0.00  0.00    +0.023 C 
ATOM     18  C   UNL     1       6.243  -1.482   3.880  0.00  0.00    +0.108 C 
ATOM     19  N   UNL     1       5.128  -2.425   4.035  0.00  0.00    -0.301 N 
ATOM     20  C   UNL     1       3.755  -1.903   4.032  0.00  0.00    +0.108 C 
ATOM     21  C   UNL     1       3.646  -0.796   5.085  0.00  0.00    +0.023 C 
ATOM     22  C   UNL     1       5.360  -3.745   4.177  0.00  0.00    +0.221 C 
ATOM     23  O   UNL     1       4.438  -4.504   4.389  0.00  0.00    -0.275 OA
BRANCH  16  24
ATOM     24  C   UNL     1       4.593   1.386   5.850  0.00  0.00    +0.038 C 
BRANCH  24  28
ATOM     25  C   UNL     1       7.360   4.501   4.910  0.00  0.00    +0.000 A 
ATOM     26  C   UNL     1       6.084   4.526   4.378  0.00  0.00    +0.000 A 
ATOM     27  C   UNL     1       5.189   3.518   4.683  0.00  0.00    +0.003 A 
ATOM     28  C   UNL     1       5.569   2.484   5.518  0.00  0.00    -0.047 A 
ATOM     29  C   UNL     1       6.846   2.458   6.048  0.00  0.00    +0.003 A 
ATOM     30  C   UNL     1       7.741   3.467   5.745  0.00  0.00    +0.000 A 
ENDBRANCH  24  28
ENDBRANCH  16  24
ENDBRANCH   1  22
BRANCH  12  31
ATOM     31  C   UNL     1       5.992  -6.432   8.361  0.00  0.00    -0.043 C 
BRANCH  31  32
ATOM     32  C   UNL     1       5.734  -7.740   9.064  0.00  0.00    -0.064 A 
ATOM     33  C   UNL     1       4.442  -8.217   9.182  0.00  0.00    +0.004 A 
ATOM     34  C   UNL     1       4.203  -9.416   9.826  0.00  0.00    +0.038 A 
ATOM     35  C   UNL     1       5.259 -10.140  10.354  0.00  0.00    +0.123 A 
ATOM     36  C   UNL     1       6.553  -9.661  10.235  0.00  0.00    +0.038 A 
ATOM     37  C   UNL     1       6.790  -8.464   9.586  0.00  0.00    +0.004 A 
ATOM     38  F   UNL     1       5.027 -11.312  10.984  0.00  0.00    -0.205 F 
ENDBRANCH  31  32
ENDBRANCH  12  31
TORSDOF 5
