REMARK  Name = ZINC65748658
REMARK  9 active torsions:
REMARK  status: ('A' for Active; 'I' for Inactive)
REMARK    1  A    between atoms: C_5  and  O_7
REMARK    2  A    between atoms: C_13  and  C_17
REMARK    3  A    between atoms: C_15  and  O_16
REMARK    4  A    between atoms: C_17  and  O_19
REMARK    5  A    between atoms: O_19  and  C_20
REMARK    6  A    between atoms: C_22  and  O_36
REMARK    7  A    between atoms: C_24  and  O_35
REMARK    8  A    between atoms: C_26  and  O_34
REMARK    9  A    between atoms: C_28  and  C_31
REMARK                            x       y       z     vdW  Elec       q    Type
REMARK                         _______ _______ _______ _____ _____    ______ ____
ROOT
ATOM      1  C   UNL     1      -0.017   1.375   0.010  0.00  0.00    +0.004 A 
ATOM      2  C   UNL     1       1.167   2.097   0.002  0.00  0.00    +0.012 A 
ATOM      3  C   UNL     1       2.386   1.430  -0.013  0.00  0.00    +0.037 A 
ATOM      4  C   UNL     1       2.413   0.022  -0.021  0.00  0.00    +0.075 A 
ATOM      5  C   UNL     1       1.213  -0.692  -0.013  0.00  0.00    +0.128 A 
ATOM      6  C   UNL     1       0.002  -0.004   0.002  0.00  0.00    +0.046 A 
ATOM      7  C   UNL     1       3.708  -0.685  -0.038  0.00  0.00    +0.202 C 
ATOM      8  O   UNL     1       3.757  -1.872  -0.297  0.00  0.00    -0.286 OA
ATOM      9  C   UNL     1       4.945   0.066   0.262  0.00  0.00    +0.075 A 
ATOM     10  C   UNL     1       4.921   1.475   0.272  0.00  0.00    +0.037 A 
ATOM     11  C   UNL     1       6.080   2.185   0.555  0.00  0.00    +0.027 A 
ATOM     12  C   UNL     1       7.267   1.500   0.829  0.00  0.00    +0.063 A 
ATOM     13  C   UNL     1       7.292   0.107   0.819  0.00  0.00    +0.061 A 
ATOM     14  C   UNL     1       6.135  -0.612   0.536  0.00  0.00    +0.129 A 
ATOM     15  C   UNL     1       3.657   2.186  -0.019  0.00  0.00    +0.195 C 
ATOM     16  O   UNL     1       3.664   3.377  -0.261  0.00  0.00    -0.287 OA
ENDROOT
BRANCH   5  17
ATOM     17  O   UNL     1       1.226  -2.048  -0.022  0.00  0.00    -0.506 OA
ATOM     18  H   UNL     1       1.239  -2.447   0.859  0.00  0.00    +0.292 HD
ENDBRANCH   5  17
BRANCH  14  19
ATOM     19  O   UNL     1       6.162  -1.968   0.528  0.00  0.00    -0.506 OA
ATOM     20  H   UNL     1       6.374  -2.352  -0.334  0.00  0.00    +0.292 HD
ENDBRANCH  14  19
BRANCH  12  21
ATOM     21  C   UNL     1       8.502   2.257   1.130  0.00  0.00    +0.342 C 
ATOM     22  O   UNL     1       8.483   3.471   1.139  0.00  0.00    -0.245 OA
BRANCH  21  23
ATOM     23  O   UNL     1       9.647   1.599   1.394  0.00  0.00    -0.429 OA
BRANCH  23  24
ATOM     24  C   UNL     1      10.801   2.394   1.677  0.00  0.00    +0.343 C 
ATOM     25  C   UNL     1      11.965   1.481   2.071  0.00  0.00    +0.214 C 
ATOM     26  C   UNL     1      12.309   0.566   0.892  0.00  0.00    +0.180 C 
ATOM     27  C   UNL     1      12.634   1.428  -0.332  0.00  0.00    +0.186 C 
ATOM     28  C   UNL     1      11.444   2.342  -0.633  0.00  0.00    +0.266 C 
ATOM     29  O   UNL     1      11.159   3.145   0.514  0.00  0.00    -0.322 OA
BRANCH  28  30
ATOM     30  C   UNL     1      11.780   3.236  -1.800  0.00  0.00    +0.387 C 
ATOM     31  O   UNL     1      11.968   2.752  -2.903  0.00  0.00    -0.243 OA
ATOM     32  O   UNL     1      11.864   4.441  -1.640  0.00  0.00    -0.243 OA
ENDBRANCH  28  30
BRANCH  27  33
ATOM     33  O   UNL     1      13.792   2.221  -0.062  0.00  0.00    -0.386 OA
ATOM     34  H   UNL     1      14.056   2.793  -0.795  0.00  0.00    +0.210 HD
ENDBRANCH  27  33
BRANCH  26  35
ATOM     35  O   UNL     1      13.440  -0.240   1.226  0.00  0.00    -0.386 OA
ATOM     36  H   UNL     1      13.305  -0.808   1.997  0.00  0.00    +0.210 HD
ENDBRANCH  26  35
BRANCH  25  37
ATOM     37  O   UNL     1      13.104   2.277   2.406  0.00  0.00    -0.383 OA
ATOM     38  H   UNL     1      12.955   2.885   3.144  0.00  0.00    +0.210 HD
ENDBRANCH  25  37
ENDBRANCH  23  24
ENDBRANCH  21  23
ENDBRANCH  12  21
TORSDOF 9
