REMARK  Name = ZINC39484655
REMARK  8 active torsions:
REMARK  status: ('A' for Active; 'I' for Inactive)
REMARK    1  A    between atoms: C_1  and  C_2
REMARK    2  A    between atoms: C_2  and  O_3
REMARK    3  A    between atoms: O_3  and  C_4
REMARK    4  A    between atoms: C_8  and  C_10
REMARK    5  A    between atoms: C_20  and  C_32
REMARK    6  A    between atoms: C_22  and  C_24
REMARK    7  A    between atoms: C_24  and  C_26
REMARK    8  A    between atoms: C_37  and  O_38
REMARK                            x       y       z     vdW  Elec       q    Type
REMARK                         _______ _______ _______ _____ _____    ______ ____
ROOT
ATOM      1  C   UNL     1      -4.238  -4.238  -0.185  0.00  0.00    +0.061 C 
ATOM      2  C   UNL     1      -4.218  -4.975   1.127  0.00  0.00    -0.025 A 
ATOM      3  C   UNL     1      -3.465  -4.468   2.168  0.00  0.00    +0.054 A 
ATOM      4  C   UNL     1      -3.427  -5.122   3.392  0.00  0.00    +0.167 A 
ATOM      5  C   UNL     1      -4.151  -6.301   3.581  0.00  0.00    +0.167 A 
ATOM      6  C   UNL     1      -4.906  -6.816   2.548  0.00  0.00    +0.061 A 
ATOM      7  C   UNL     1      -4.941  -6.156   1.314  0.00  0.00    +0.025 A 
ATOM      8  C   UNL     1      -5.740  -6.716   0.210  0.00  0.00    +0.172 C 
ATOM      9  O   UNL     1      -6.205  -7.834   0.277  0.00  0.00    -0.291 OA
ATOM     10  C   UNL     1      -5.959  -5.848  -1.011  0.00  0.00    +0.105 C 
ATOM     11  C   UNL     1      -4.623  -5.166  -1.334  0.00  0.00    +0.087 C 
ATOM     12  O   UNL     1      -3.946  -6.739   4.858  0.00  0.00    -0.453 OA
ATOM     13  C   UNL     1      -2.771  -6.044   5.316  0.00  0.00    +0.466 C 
ATOM     14  O   UNL     1      -2.771  -4.826   4.550  0.00  0.00    -0.453 OA
ENDROOT
BRANCH   1  19
ATOM     15  C   UNL     1      -1.448  -1.771  -0.821  0.00  0.00    +0.121 A 
ATOM     16  C   UNL     1      -0.355  -2.617  -0.939  0.00  0.00    +0.045 A 
ATOM     17  C   UNL     1      -0.523  -3.982  -0.812  0.00  0.00    +0.004 A 
ATOM     18  C   UNL     1      -1.780  -4.506  -0.568  0.00  0.00    +0.004 A 
ATOM     19  C   UNL     1      -2.870  -3.664  -0.451  0.00  0.00    -0.036 A 
ATOM     20  C   UNL     1      -2.707  -2.298  -0.571  0.00  0.00    +0.050 A 
BRANCH  15  21
ATOM     21  O   UNL     1      -1.285  -0.427  -0.946  0.00  0.00    -0.492 OA
BRANCH  21  23
ATOM     22  C   UNL     1       0.025   1.571  -1.310  0.00  0.00    +0.048 C 
ATOM     23  C   UNL     1       0.039   0.044  -1.203  0.00  0.00    +0.225 C 
ENDBRANCH  21  23
ENDBRANCH  15  21
ENDBRANCH   1  19
BRANCH  10  24
ATOM     24  C   UNL     1      -6.395  -6.701  -2.175  0.00  0.00    +0.005 A 
ATOM     25  C   UNL     1      -5.573  -7.710  -2.638  0.00  0.00    +0.008 A 
ATOM     26  C   UNL     1      -5.972  -8.493  -3.705  0.00  0.00    +0.001 A 
ATOM     27  C   UNL     1      -7.195  -8.268  -4.312  0.00  0.00    +0.004 A 
ATOM     28  C   UNL     1      -8.020  -7.260  -3.852  0.00  0.00    +0.046 A 
ATOM     29  C   UNL     1      -7.624  -6.477  -2.777  0.00  0.00    +0.121 A 
BRANCH  29  30
ATOM     30  O   UNL     1      -8.437  -5.489  -2.319  0.00  0.00    -0.506 OA
ATOM     31  H   UNL     1      -8.294  -4.633  -2.746  0.00  0.00    +0.292 HD
ENDBRANCH  29  30
ENDBRANCH  10  24
BRANCH  11  32
ATOM     32  C   UNL     1      -4.762  -4.365  -2.602  0.00  0.00    +0.168 C 
ATOM     33  O   UNL     1      -5.601  -3.493  -2.680  0.00  0.00    -0.292 OA
BRANCH  32  34
ATOM     34  C   UNL     1      -3.880  -4.641  -3.748  0.00  0.00    +0.018 A 
ATOM     35  C   UNL     1      -2.995  -5.723  -3.708  0.00  0.00    +0.011 A 
ATOM     36  C   UNL     1      -2.172  -5.976  -4.785  0.00  0.00    +0.001 A 
ATOM     37  C   UNL     1      -2.220  -5.162  -5.903  0.00  0.00    +0.000 A 
ATOM     38  C   UNL     1      -3.093  -4.088  -5.950  0.00  0.00    +0.001 A 
ATOM     39  C   UNL     1      -3.926  -3.826  -4.883  0.00  0.00    +0.011 A 
ENDBRANCH  32  34
ENDBRANCH  11  32
TORSDOF 7
