REMARK  Name = ZINC33610814
REMARK  7 active torsions:
REMARK  status: ('A' for Active; 'I' for Inactive)
REMARK    1  A    between atoms: C_1  and  N_2
REMARK    2  A    between atoms: N_2  and  C_3
REMARK    3  A    between atoms: C_6  and  O_23
REMARK    4  A    between atoms: C_9  and  O_22
REMARK    5  A    between atoms: C_12  and  O_21
REMARK    6  A    between atoms: C_15  and  N_20
REMARK    7  A    between atoms: C_17  and  O_19
REMARK                            x       y       z     vdW  Elec       q    Type
REMARK                         _______ _______ _______ _____ _____    ______ ____
ROOT
ATOM      1  C   UNL     1       0.960   3.582  -0.173  0.00  0.00    +0.033 A 
ATOM      2  C   UNL     1      -0.291   4.154  -0.002  0.00  0.00    +0.027 A 
ATOM      3  C   UNL     1      -1.418   3.357  -0.020  0.00  0.00    +0.047 A 
ATOM      4  C   UNL     1      -1.294   1.990  -0.206  0.00  0.00    +0.123 A 
ATOM      5  C   UNL     1      -0.039   1.414  -0.384  0.00  0.00    +0.034 A 
ATOM      6  C   UNL     1       1.086   2.207  -0.364  0.00  0.00    +0.016 A 
ATOM      7  C   UNL     1       2.461   1.632  -0.545  0.00  0.00    +0.181 C 
ATOM      8  C   UNL     1       2.429   0.325  -1.282  0.00  0.00    +0.034 A 
ATOM      9  C   UNL     1       3.575  -0.083  -1.960  0.00  0.00    +0.123 A 
ATOM     10  C   UNL     1       3.592  -1.283  -2.651  0.00  0.00    +0.047 A 
ATOM     11  C   UNL     1       2.465  -2.082  -2.670  0.00  0.00    +0.026 A 
ATOM     12  C   UNL     1       1.323  -1.677  -1.997  0.00  0.00    +0.031 A 
ATOM     13  C   UNL     1       1.305  -0.469  -1.301  0.00  0.00    +0.015 A 
ATOM     14  C   UNL     1       0.046  -0.071  -0.587  0.00  0.00    +0.181 C 
ENDROOT
BRANCH   1  16
ATOM     15  C   UNL     1       1.969   5.847  -0.117  0.00  0.00    +0.125 C 
ATOM     16  N   UNL     1       2.103   4.389  -0.155  0.00  0.00    -0.347 N 
ATOM     17  H   UNL     1       3.102   3.929  -0.170  0.00  0.00    +0.146 HD
ENDBRANCH   1  16
BRANCH  12  18
ATOM     18  N   UNL     1       0.181  -2.485  -2.016  0.00  0.00    -0.358 N 
ATOM     19  H   UNL     1      -0.727  -2.167  -1.483  0.00  0.00    +0.142 HD
ATOM     20  H   UNL     1       0.191  -3.439  -2.564  0.00  0.00    +0.142 HD
ENDBRANCH  12  18
BRANCH  14  21
ATOM     21  O   UNL     1       0.012  -0.717   0.687  0.00  0.00    -0.382 OA
ATOM     22  H   UNL     1       0.063  -1.815   0.749  0.00  0.00    +0.211 HD
ENDBRANCH  14  21
BRANCH   9  23
ATOM     23  O   UNL     1       4.685   0.702  -1.944  0.00  0.00    -0.506 OA
ATOM     24  H   UNL     1       5.592   0.384  -2.479  0.00  0.00    +0.292 HD
ENDBRANCH   9  23
BRANCH   7  25
ATOM     25  O   UNL     1       3.259   2.561  -1.280  0.00  0.00    -0.382 OA
ATOM     26  H   UNL     1       4.306   2.321  -1.516  0.00  0.00    +0.211 HD
ENDBRANCH   7  25
BRANCH   4  27
ATOM     27  O   UNL     1      -2.405   1.206  -0.220  0.00  0.00    -0.506 OA
ATOM     28  H   UNL     1      -2.310   0.120  -0.367  0.00  0.00    +0.292 HD
ENDBRANCH   4  27
TORSDOF 6
