REMARK  Name = ZINC13539696
REMARK  9 active torsions:
REMARK  status: ('A' for Active; 'I' for Inactive)
REMARK    1  A    between atoms: C_1  and  O_2
REMARK    2  A    between atoms: O_2  and  C_3
REMARK    3  A    between atoms: C_8  and  C_9
REMARK    4  A    between atoms: C_15  and  O_18
REMARK    5  A    between atoms: O_18  and  C_19
REMARK    6  A    between atoms: C_19  and  C_20
REMARK    7  A    between atoms: C_20  and  N_21
REMARK    8  A    between atoms: N_21  and  S_22
REMARK    9  A    between atoms: S_22  and  C_25
REMARK                            x       y       z     vdW  Elec       q    Type
REMARK                         _______ _______ _______ _____ _____    ______ ____
ROOT
ATOM      1  C   UNL     1       1.170   3.565   0.010  0.00  0.00    +0.189 A 
ATOM      2  N   UNL     1       2.227   4.357   0.010  0.00  0.00    -0.127 NA
ATOM      3  N   UNL     1       1.855   5.589   0.014  0.00  0.00    -0.128 NA
ATOM      4  C   UNL     1       0.532   5.655   0.027  0.00  0.00    +0.179 A 
ATOM      5  N   UNL     1       0.065   4.363   0.025  0.00  0.00    -0.189 N 
ATOM      6  N   UNL     1      -1.309   4.115   0.037  0.00  0.00    -0.125 NA
ATOM      7  C   UNL     1      -2.164   5.108   0.051  0.00  0.00    +0.233 A 
ATOM      8  C   UNL     1      -1.720   6.443   0.054  0.00  0.00    +0.072 A 
ATOM      9  C   UNL     1      -0.388   6.719   0.042  0.00  0.00    +0.055 A 
ENDROOT
BRANCH   1  15
ATOM     10  C   UNL     1       2.400   1.395  -0.013  0.00  0.00    +0.131 A 
ATOM     11  C   UNL     1       2.402   0.010  -0.021  0.00  0.00    +0.046 A 
ATOM     12  C   UNL     1       1.207  -0.685  -0.014  0.00  0.00    +0.004 A 
ATOM     13  C   UNL     1       0.002  -0.004   0.002  0.00  0.00    +0.001 A 
ATOM     14  C   UNL     1      -0.017   1.375   0.010  0.00  0.00    +0.015 A 
ATOM     15  C   UNL     1       1.183   2.087   0.002  0.00  0.00    +0.063 A 
BRANCH  10  17
ATOM     16  C   UNL     1       4.776   1.304  -0.036  0.00  0.00    +0.277 C 
ATOM     17  O   UNL     1       3.574   2.078  -0.021  0.00  0.00    -0.494 OA
ENDBRANCH  10  17
ENDBRANCH   1  15
BRANCH   7  18
ATOM     18  O   UNL     1      -3.496   4.846   0.062  0.00  0.00    -0.474 OA
BRANCH  18  19
ATOM     19  C   UNL     1      -3.886   3.471   0.058  0.00  0.00    +0.247 C 
BRANCH  19  20
ATOM     20  C   UNL     1      -5.413   3.374   0.072  0.00  0.00    +0.147 C 
BRANCH  20  21
ATOM     21  N   UNL     1      -5.949   3.933  -1.171  0.00  0.00    -0.186 NA
ATOM     22  H   UNL     1      -5.384   4.478  -1.741  0.00  0.00    +0.148 HD
BRANCH  21  23
ATOM     23  S   UNL     1      -7.519   3.634  -1.604  0.00  0.00    +0.065 S 
ATOM     24  O   UNL     1      -7.742   4.325  -2.826  0.00  0.00    -0.153 OA
ATOM     25  O   UNL     1      -7.717   2.233  -1.474  0.00  0.00    -0.153 OA
BRANCH  23  26
ATOM     26  C   UNL     1      -8.547   4.402  -0.397  0.00  0.00    +0.142 A 
ATOM     27  C   UNL     1      -9.052   5.660  -0.381  0.00  0.00    +0.036 A 
ATOM     28  C   UNL     1      -9.848   6.050   0.680  0.00  0.00    +0.010 A 
ATOM     29  C   UNL     1     -10.091   5.166   1.678  0.00  0.00    +0.047 A 
ATOM     30  S   UNL     1      -9.189   3.728   1.127  0.00  0.00    -0.077 S 
ENDBRANCH  23  26
ENDBRANCH  21  23
ENDBRANCH  20  21
ENDBRANCH  19  20
ENDBRANCH  18  19
ENDBRANCH   7  18
TORSDOF 8
