REMARK  Name = ZINC15002823
REMARK  5 active torsions:
REMARK  status: ('A' for Active; 'I' for Inactive)
REMARK    1  A    between atoms: C_3  and  C_7
REMARK    2  A    between atoms: C_7  and  C_22
REMARK    3  A    between atoms: N_10  and  C_14
REMARK    4  A    between atoms: C_14  and  C_15
REMARK    5  A    between atoms: C_28  and  C_30
REMARK                            x       y       z     vdW  Elec       q    Type
REMARK                         _______ _______ _______ _____ _____    ______ ____
ROOT
ATOM      1  C   UNL     1      -3.165   1.171  -0.177  0.00  0.00    +0.142 C 
ATOM      2  C   UNL     1      -1.839   0.441  -0.251  0.00  0.00    +0.252 C 
ATOM      3  O   UNL     1      -0.748   0.925  -0.465  0.00  0.00    -0.272 OA
ATOM      4  N   UNL     1      -2.124  -0.857  -0.032  0.00  0.00    -0.220 N 
ATOM      5  C   UNL     1      -3.433  -1.048   0.169  0.00  0.00    +0.310 C 
ATOM      6  O   UNL     1      -3.932  -2.134   0.388  0.00  0.00    -0.252 OA
ATOM      7  N   UNL     1      -4.136   0.097   0.097  0.00  0.00    -0.281 N 
ATOM      8  H   UNL     1      -5.095   0.197   0.205  0.00  0.00    +0.152 HD
ENDROOT
BRANCH   1   9
ATOM      9  C   UNL     1      -3.153   2.195   0.960  0.00  0.00    +0.029 C 
ATOM     10  C   UNL     1      -2.874   1.482   2.285  0.00  0.00    +0.025 C 
ATOM     11  C   UNL     1      -2.829   2.515   3.416  0.00  0.00    +0.108 C 
ATOM     12  N   UNL     1      -4.076   3.290   3.399  0.00  0.00    -0.297 N 
ATOM     13  C   UNL     1      -4.486   3.942   2.148  0.00  0.00    +0.108 C 
ATOM     14  C   UNL     1      -4.513   2.894   1.031  0.00  0.00    +0.025 C 
ATOM     15  C   UNL     1      -4.831   3.401   4.510  0.00  0.00    +0.250 C 
ATOM     16  O   UNL     1      -5.918   3.943   4.455  0.00  0.00    -0.270 OA
BRANCH  15  17
ATOM     17  C   UNL     1      -4.338   2.867   5.792  0.00  0.00    +0.074 A 
ATOM     18  C   UNL     1      -5.134   2.242   6.859  0.00  0.00    +0.054 A 
ATOM     19  C   UNL     1      -4.262   1.914   7.825  0.00  0.00    +0.195 A 
ATOM     20  O   UNL     1      -3.027   2.277   7.445  0.00  0.00    -0.470 OA
ATOM     21  C   UNL     1      -3.048   2.842   6.234  0.00  0.00    +0.207 A 
ENDBRANCH  15  17
ENDBRANCH   1   9
BRANCH   1  24
ATOM     22  C   UNL     1      -4.777   2.045  -3.474  0.00  0.00    +0.020 A 
ATOM     23  C   UNL     1      -4.528   1.397  -2.274  0.00  0.00    +0.009 A 
ATOM     24  C   UNL     1      -3.476   1.842  -1.490  0.00  0.00    +0.003 A 
ATOM     25  C   UNL     1      -2.718   2.914  -1.924  0.00  0.00    +0.117 A 
ATOM     26  N   UNL     1      -2.980   3.503  -3.074  0.00  0.00    -0.263 NA
ATOM     27  C   UNL     1      -3.974   3.106  -3.846  0.00  0.00    +0.111 A 
ENDBRANCH   1  24
BRANCH   4  28
ATOM     28  C   UNL     1      -1.125  -1.928  -0.014  0.00  0.00    +0.153 C 
BRANCH  28  29
ATOM     29  C   UNL     1      -0.967  -2.491  -1.403  0.00  0.00    -0.029 A 
ATOM     30  C   UNL     1      -1.753  -3.553  -1.812  0.00  0.00    +0.008 A 
ATOM     31  C   UNL     1      -1.613  -4.066  -3.087  0.00  0.00    +0.038 A 
ATOM     32  C   UNL     1      -0.678  -3.524  -3.952  0.00  0.00    +0.123 A 
ATOM     33  C   UNL     1       0.112  -2.464  -3.540  0.00  0.00    +0.038 A 
ATOM     34  C   UNL     1      -0.034  -1.949  -2.266  0.00  0.00    +0.008 A 
ATOM     35  F   UNL     1      -0.536  -4.029  -5.197  0.00  0.00    -0.205 F 
ENDBRANCH  28  29
ENDBRANCH   4  28
TORSDOF 5
