REMARK  Name = ZINC03198183
REMARK  8 active torsions:
REMARK  status: ('A' for Active; 'I' for Inactive)
REMARK    1  A    between atoms: C_1  and  C_2
REMARK    2  A    between atoms: C_5  and  N_32
REMARK    3  A    between atoms: C_7  and  N_8
REMARK    4  A    between atoms: N_8  and  P_9
REMARK    5  A    between atoms: C_12  and  N_67
REMARK    6  A    between atoms: C_14  and  C_25
REMARK    7  A    between atoms: C_14  and  C_26
REMARK    8  A    between atoms: N_18  and  C_19
REMARK                            x       y       z     vdW  Elec       q    Type
REMARK                         _______ _______ _______ _____ _____    ______ ____
ROOT
ATOM      1  P   UNL     1      -1.459   6.517   0.094  0.00  0.00    +0.296 P 
ATOM      2  O   UNL     1      -2.276   6.420   1.324  0.00  0.00    -0.272 OA
ATOM      3  C   UNL     1      -0.532   8.079   0.035  0.00  0.00    +0.085 C 
ATOM      4  C   UNL     1      -0.895   9.336  -0.127  0.00  0.00    +0.007 C 
ATOM      5  C   UNL     1       0.206  10.358  -0.319  0.00  0.00    +0.060 C 
ATOM      6  C   UNL     1       1.464   9.977   0.445  0.00  0.00    -0.010 C 
ATOM      7  C   UNL     1       1.855   8.534   0.263  0.00  0.00    +0.005 C 
ATOM      8  C   UNL     1       0.878   7.613   0.128  0.00  0.00    +0.056 C 
ATOM      9  N   UNL     1       0.975   6.245   0.062  0.00  0.00    -0.257 N 
ATOM     10  N   UNL     1      -0.178   5.456   0.128  0.00  0.00    -0.182 N 
ATOM     11  C   UNL     1       2.616  10.863  -0.033  0.00  0.00    +0.015 C 
ATOM     12  C   UNL     1       1.231  10.236   1.935  0.00  0.00    +0.015 C 
ATOM     13  H   UNL     1       1.845   5.826  -0.031  0.00  0.00    +0.171 HD
ENDROOT
BRANCH   4  19
ATOM     14  C   UNL     1      -3.057   9.495   1.071  0.00  0.00    +0.085 C 
ATOM     15  C   UNL     1      -3.715  10.831   1.449  0.00  0.00    +0.017 C 
ATOM     16  C   UNL     1      -4.478  11.378   0.241  0.00  0.00    +0.003 C 
ATOM     17  C   UNL     1      -3.501  11.632  -0.910  0.00  0.00    +0.017 C 
ATOM     18  C   UNL     1      -2.839  10.310  -1.313  0.00  0.00    +0.085 C 
ATOM     19  N   UNL     1      -2.137  10.031  -0.003  0.00  0.00    -0.396 NA
ATOM     20  H   UNL     1      -1.859  10.958   0.339  0.00  0.00    +0.126 HD
ENDBRANCH   4  19
BRANCH  10  21
ATOM     21  C   UNL     1      -0.241   4.063   0.201  0.00  0.00    +0.056 A 
ATOM     22  C   UNL     1       0.921   3.308   0.106  0.00  0.00    +0.025 A 
ATOM     23  C   UNL     1       0.855   1.930   0.179  0.00  0.00    +0.002 A 
ATOM     24  C   UNL     1      -0.365   1.302   0.346  0.00  0.00    +0.000 A 
ATOM     25  C   UNL     1      -1.525   2.051   0.435  0.00  0.00    +0.002 A 
ATOM     26  C   UNL     1      -1.465   3.429   0.369  0.00  0.00    +0.025 A 
ENDBRANCH  10  21
BRANCH   1  27
ATOM     27  N   UNL     1      -2.376   6.309  -1.250  0.00  0.00    -0.276 N 
ATOM     28  H   UNL     1      -3.320   6.103  -1.165  0.00  0.00    +0.155 HD
BRANCH  27  35
ATOM     29  C   UNL     1      -4.082   6.178  -3.522  0.00  0.00    +0.045 C 
ATOM     30  C   UNL     1      -2.593   6.371  -3.652  0.00  0.00    -0.029 A 
ATOM     31  C   UNL     1      -2.018   6.495  -4.902  0.00  0.00    +0.007 A 
ATOM     32  C   UNL     1      -0.651   6.666  -5.023  0.00  0.00    +0.033 A 
ATOM     33  C   UNL     1       0.144   6.719  -3.893  0.00  0.00    +0.128 A 
ATOM     34  C   UNL     1      -0.424   6.601  -2.640  0.00  0.00    +0.056 A 
ATOM     35  C   UNL     1      -1.797   6.429  -2.515  0.00  0.00    +0.039 A 
BRANCH  33  36
ATOM     36  N   UNL     1       1.607   6.903  -4.026  0.00  0.00    +0.056 N 
ATOM     37  O   UNL     1       2.296   7.046  -3.032  0.00  0.00    -0.126 OA
ATOM     38  O   UNL     1       2.121   6.910  -5.130  0.00  0.00    -0.126 OA
ENDBRANCH  33  36
ENDBRANCH  27  35
ENDBRANCH   1  27
TORSDOF 5
