REMARK  Name = ZINC21320878
REMARK  4 active torsions:
REMARK  status: ('A' for Active; 'I' for Inactive)
REMARK    1  A    between atoms: C_1  and  C_2
REMARK    2  A    between atoms: C_2  and  C_4
REMARK    3  A    between atoms: C_2  and  N_12
REMARK    4  A    between atoms: C_13  and  C_15
REMARK                            x       y       z     vdW  Elec       q    Type
REMARK                         _______ _______ _______ _____ _____    ______ ____
ROOT
ATOM      1  N   UNL     1      -1.066  -2.082  -0.614  0.00  0.00    -0.303 N 
ATOM      2  C   UNL     1      -2.080  -2.713  -1.240  0.00  0.00    +0.266 C 
ATOM      3  O   UNL     1      -3.171  -2.182  -1.315  0.00  0.00    -0.268 OA
ATOM      4  H   UNL     1      -0.079  -2.562  -0.545  0.00  0.00    +0.150 HD
ENDROOT
BRANCH   2   5
ATOM      5  C   UNL     1      -1.865  -4.048  -1.833  0.00  0.00    +0.165 A 
ATOM      6  C   UNL     1      -2.880  -4.656  -2.591  0.00  0.00    +0.147 A 
ATOM      7  N   UNL     1      -2.674  -5.855  -3.123  0.00  0.00    -0.237 NA
ATOM      8  C   UNL     1      -1.523  -6.473  -2.932  0.00  0.00    +0.132 A 
ATOM      9  C   UNL     1      -0.522  -5.875  -2.179  0.00  0.00    +0.131 A 
ATOM     10  N   UNL     1      -0.711  -4.683  -1.649  0.00  0.00    -0.246 NA
ATOM     11  N   UNL     1      -4.085  -4.007  -2.784  0.00  0.00    -0.341 N 
ATOM     12  H   UNL     1      -4.878  -4.485  -3.378  0.00  0.00    +0.144 HD
ATOM     13  H   UNL     1      -4.251  -3.012  -2.345  0.00  0.00    +0.144 HD
ENDBRANCH   2   5
BRANCH   1  15
ATOM     14  C   UNL     1      -1.747  -0.913   1.424  0.00  0.00    +0.033 C 
ATOM     15  C   UNL     1      -1.280  -0.758  -0.025  0.00  0.00    +0.102 C 
BRANCH  15  16
ATOM     16  C   UNL     1       0.011   0.020  -0.056  0.00  0.00    -0.009 A 
ATOM     17  C   UNL     1       1.221  -0.649  -0.062  0.00  0.00    +0.008 A 
ATOM     18  C   UNL     1       2.405   0.063  -0.091  0.00  0.00    +0.020 A 
ATOM     19  C   UNL     1       2.380   1.447  -0.113  0.00  0.00    +0.042 A 
ATOM     20  C   UNL     1       1.170   2.116  -0.106  0.00  0.00    +0.040 A 
ATOM     21  C   UNL     1      -0.015   1.403  -0.078  0.00  0.00    +0.047 A 
ATOM     22 CL   UNL     1      -1.535   2.243  -0.076  0.00  0.00    -0.083 Cl
ATOM     23 CL   UNL     1       3.867   2.341  -0.147  0.00  0.00    -0.083 Cl
ENDBRANCH  15  16
ENDBRANCH   1  15
TORSDOF 3
