REMARK  Name = ZINC16576096
REMARK  6 active torsions:
REMARK  status: ('A' for Active; 'I' for Inactive)
REMARK    1  A    between atoms: C_1  and  C_2
REMARK    2  A    between atoms: C_2  and  C_4
REMARK    3  A    between atoms: C_2  and  N_14
REMARK    4  A    between atoms: N_14  and  C_15
REMARK    5  A    between atoms: C_15  and  C_16
REMARK    6  A    between atoms: C_17  and  C_22
REMARK                            x       y       z     vdW  Elec       q    Type
REMARK                         _______ _______ _______ _____ _____    ______ ____
ROOT
ATOM      1  N   UNL     1       0.576  -0.388  -1.237  0.00  0.00    +0.385 N 
ATOM      2  H   UNL     1       1.418   0.165  -1.187  0.00  0.00    -0.085 HD
ATOM      3  H   UNL     1       0.816  -1.368  -1.254  0.00  0.00    -0.085 HD
ENDROOT
BRANCH   1   5
ATOM      4  C   UNL     1      -0.525   1.395   0.031  0.00  0.00    -0.013 C 
ATOM      5  C   UNL     1      -0.263  -0.110  -0.063  0.00  0.00    -0.068 C 
BRANCH   5   6
ATOM      6  C   UNL     1       0.457  -0.583   1.201  0.00  0.00    -0.041 C 
ATOM      7  C   UNL     1       1.788   0.159   1.338  0.00  0.00    +0.009 C 
ATOM      8  C   UNL     1       2.508  -0.314   2.603  0.00  0.00    -0.010 C 
ATOM      9  C   UNL     1       1.634  -0.024   3.825  0.00  0.00    +0.007 C 
ATOM     10  C   UNL     1       0.303  -0.766   3.688  0.00  0.00    -0.010 C 
ATOM     11  C   UNL     1      -0.416  -0.293   2.424  0.00  0.00    +0.009 C 
ATOM     12  C   UNL     1       0.565  -2.270   3.594  0.00  0.00    +0.007 C 
ATOM     13  C   UNL     1       1.438  -2.560   2.372  0.00  0.00    -0.010 C 
ATOM     14  C   UNL     1       2.769  -1.818   2.508  0.00  0.00    +0.007 C 
ATOM     15  C   UNL     1       0.719  -2.087   1.107  0.00  0.00    +0.009 C 
ENDBRANCH   5   6
ENDBRANCH   1   5
BRANCH   1  16
ATOM     16  C   UNL     1      -0.163  -0.044  -2.459  0.00  0.00    -0.022 C 
BRANCH  16  17
ATOM     17  C   UNL     1       0.645  -0.449  -3.665  0.00  0.00    +0.074 A 
ATOM     18  C   UNL     1       0.541  -1.648  -4.393  0.00  0.00    +0.114 A 
ATOM     19  N   UNL     1       1.442  -1.559  -5.356  0.00  0.00    -0.155 NA
ATOM     20  N   UNL     1       2.046  -0.429  -5.248  0.00  0.00    -0.196 N 
ATOM     21  N   UNL     1       1.587   0.248  -4.257  0.00  0.00    -0.161 NA
ATOM     22  H   UNL     1       2.753  -0.126  -5.840  0.00  0.00    +0.213 HD
BRANCH  18  23
ATOM     23  C   UNL     1      -0.386  -2.779  -4.133  0.00  0.00    +0.004 A 
ATOM     24  C   UNL     1      -1.718  -2.530  -3.808  0.00  0.00    +0.010 A 
ATOM     25  C   UNL     1      -2.576  -3.584  -3.568  0.00  0.00    +0.001 A 
ATOM     26  C   UNL     1      -2.115  -4.886  -3.650  0.00  0.00    +0.000 A 
ATOM     27  C   UNL     1      -0.794  -5.138  -3.971  0.00  0.00    +0.001 A 
ATOM     28  C   UNL     1       0.071  -4.092  -4.219  0.00  0.00    +0.010 A 
ENDBRANCH  18  23
ENDBRANCH  16  17
ENDBRANCH   1  16
TORSDOF 5
