REMARK  Name = ZINC54640890
REMARK  8 active torsions:
REMARK  status: ('A' for Active; 'I' for Inactive)
REMARK    1  A    between atoms: C_1  and  C_2
REMARK    2  A    between atoms: C_3  and  C_26
REMARK    3  A    between atoms: C_4  and  C_21
REMARK    4  A    between atoms: C_9  and  S_11
REMARK    5  A    between atoms: S_11  and  C_12
REMARK    6  A    between atoms: C_12  and  C_13
REMARK    7  A    between atoms: C_26  and  O_28
REMARK    8  A    between atoms: O_28  and  C_29
REMARK                            x       y       z     vdW  Elec       q    Type
REMARK                         _______ _______ _______ _____ _____    ______ ____
ROOT
ATOM      1  C   UNL     1      -0.018   1.503   0.010  0.00  0.00    +0.061 C 
ATOM      2  C   UNL     1       0.002  -0.004   0.002  0.00  0.00    +0.020 C 
ATOM      3  C   UNL     1      -1.164  -0.669   0.004  0.00  0.00    +0.083 C 
ATOM      4  C   UNL     1      -1.253  -2.171   0.007  0.00  0.00    +0.186 C 
ATOM      5  N   UNL     1       0.062  -2.737  -0.284  0.00  0.00    -0.219 N 
ATOM      6  C   UNL     1       1.208  -2.012  -0.281  0.00  0.00    +0.219 A 
ATOM      7  N   UNL     1       2.196  -2.814  -0.571  0.00  0.00    -0.187 NA
ATOM      8  C   UNL     1       1.724  -4.053  -0.770  0.00  0.00    +0.211 A 
ATOM      9  N   UNL     1       0.418  -4.046  -0.604  0.00  0.00    -0.141 NA
ATOM     10  N   UNL     1       1.212  -0.651  -0.013  0.00  0.00    -0.287 N 
ATOM     11  H   UNL     1       2.040  -0.175   0.160  0.00  0.00    +0.155 HD
ENDROOT
BRANCH   4  12
ATOM     12  C   UNL     1      -1.715  -2.644   1.361  0.00  0.00    +0.019 A 
ATOM     13  C   UNL     1      -2.816  -3.365   1.684  0.00  0.00    +0.013 A 
ATOM     14  C   UNL     1      -3.041  -3.690   3.009  0.00  0.00    +0.008 A 
ATOM     15  C   UNL     1      -2.154  -3.277   3.946  0.00  0.00    +0.045 A 
ATOM     16  S   UNL     1      -0.949  -2.408   2.957  0.00  0.00    -0.099 S 
ENDBRANCH   4  12
BRANCH   3  17
ATOM     17  C   UNL     1      -2.364   0.077   0.003  0.00  0.00    +0.339 C 
ATOM     18  O   UNL     1      -2.325   1.293  -0.001  0.00  0.00    -0.245 OA
BRANCH  17  19
ATOM     19  O   UNL     1      -3.554  -0.560   0.004  0.00  0.00    -0.458 OA
BRANCH  19  20
ATOM     20  C   UNL     1      -4.727   0.257   0.003  0.00  0.00    +0.177 C 
ATOM     21  C   UNL     1      -5.145   0.552   1.445  0.00  0.00    +0.044 C 
ATOM     22  C   UNL     1      -6.400   1.426   1.443  0.00  0.00    +0.004 C 
ATOM     23  C   UNL     1      -7.533   0.691   0.724  0.00  0.00    +0.000 C 
ATOM     24  C   UNL     1      -7.115   0.396  -0.718  0.00  0.00    +0.004 C 
ATOM     25  C   UNL     1      -5.859  -0.479  -0.716  0.00  0.00    +0.044 C 
ENDBRANCH  19  20
ENDBRANCH  17  19
ENDBRANCH   3  17
BRANCH   8  26
ATOM     26  S   UNL     1       2.694  -5.463  -1.188  0.00  0.00    -0.080 S 
BRANCH  26  27
ATOM     27  C   UNL     1       4.389  -4.821  -1.267  0.00  0.00    +0.114 C 
BRANCH  27  28
ATOM     28  C   UNL     1       5.334  -5.941  -1.621  0.00  0.00    -0.019 A 
ATOM     29  C   UNL     1       5.910  -6.701  -0.620  0.00  0.00    +0.006 A 
ATOM     30  C   UNL     1       6.776  -7.728  -0.944  0.00  0.00    +0.000 A 
ATOM     31  C   UNL     1       7.068  -7.995  -2.269  0.00  0.00    +0.001 A 
ATOM     32  C   UNL     1       6.493  -7.236  -3.270  0.00  0.00    +0.020 A 
ATOM     33  C   UNL     1       5.621  -6.212  -2.946  0.00  0.00    +0.045 A 
ATOM     34 CL   UNL     1       4.893  -5.261  -4.204  0.00  0.00    -0.083 Cl
ENDBRANCH  27  28
ENDBRANCH  26  27
ENDBRANCH   8  26
TORSDOF 7
