REMARK  Name = ZINC06474497
REMARK  7 active torsions:
REMARK  status: ('A' for Active; 'I' for Inactive)
REMARK    1  A    between atoms: C_4  and  C_7
REMARK    2  A    between atoms: C_13  and  C_15
REMARK    3  A    between atoms: C_15  and  S_16
REMARK    4  A    between atoms: S_16  and  C_17
REMARK    5  A    between atoms: C_18  and  C_32
REMARK    6  A    between atoms: C_19  and  C_28
REMARK    7  A    between atoms: C_21  and  C_23
REMARK                            x       y       z     vdW  Elec       q    Type
REMARK                         _______ _______ _______ _____ _____    ______ ____
ROOT
ATOM      1  S   UNL     1      -0.772   8.681   0.056  0.00  0.00    -0.095 S 
ENDROOT
BRANCH   1   2
ATOM      2  C   UNL     1       0.430   7.393   0.037  0.00  0.00    +0.116 A 
ATOM      3  C   UNL     1       1.800   7.716   0.025  0.00  0.00    +0.095 A 
ATOM      4  C   UNL     1       2.743   6.678   0.011  0.00  0.00    +0.077 A 
ATOM      5  C   UNL     1       2.289   5.376   0.009  0.00  0.00    +0.042 A 
ATOM      6  C   UNL     1       0.913   5.129   0.021  0.00  0.00    +0.079 A 
ATOM      7  N   UNL     1       0.038   6.130   0.030  0.00  0.00    -0.239 NA
BRANCH   6   8
ATOM      8  C   UNL     1       0.425   3.737   0.018  0.00  0.00    +0.038 A 
ATOM      9  C   UNL     1      -0.866   3.274   0.028  0.00  0.00    +0.017 A 
ATOM     10  C   UNL     1      -1.081   1.916   0.017  0.00  0.00    +0.008 A 
ATOM     11  C   UNL     1      -0.013   1.076   0.008  0.00  0.00    +0.046 A 
ATOM     12  S   UNL     1       1.360   2.217   0.001  0.00  0.00    -0.095 S 
ENDBRANCH   6   8
BRANCH   4  13
ATOM     13  C   UNL     1       4.220   6.979  -0.003  0.00  0.00    +0.419 C 
ATOM     14  F   UNL     1       4.940   5.780  -0.017  0.00  0.00    -0.166 F 
ATOM     15  F   UNL     1       4.533   7.725  -1.144  0.00  0.00    -0.166 F 
ATOM     16  F   UNL     1       4.557   7.713   1.140  0.00  0.00    -0.166 F 
ENDBRANCH   4  13
BRANCH   3  17
ATOM     17  C   UNL     1       2.224   9.083   0.028  0.00  0.00    +0.102 C 
ATOM     18  N   UNL     1       2.561  10.168   0.030  0.00  0.00    -0.191 NA
ENDBRANCH   3  17
ENDBRANCH   1   2
BRANCH   1  19
ATOM     19  C   UNL     1      -2.290   7.696   0.066  0.00  0.00    +0.172 C 
BRANCH  19  26
ATOM     20  C   UNL     1      -8.046   9.587   0.133  0.00  0.00    +0.080 A 
ATOM     21  C   UNL     1      -7.666  10.900   0.137  0.00  0.00    +0.076 A 
ATOM     22  S   UNL     1      -5.886  10.731   0.125  0.00  0.00    -0.060 S 
ATOM     23  C   UNL     1      -5.832   8.944   0.107  0.00  0.00    +0.165 A 
ATOM     24  N   UNL     1      -7.117   8.642   0.118  0.00  0.00    -0.225 NA
ATOM     25  N   UNL     1      -4.730   8.098   0.092  0.00  0.00    -0.264 N 
ATOM     26  C   UNL     1      -3.485   8.613   0.082  0.00  0.00    +0.229 C 
ATOM     27  O   UNL     1      -3.326   9.816   0.087  0.00  0.00    -0.275 OA
ATOM     28  H   UNL     1      -4.857   7.136   0.088  0.00  0.00    +0.157 HD
BRANCH  20  32
ATOM     29  C   UNL     1     -12.167   8.544   0.168  0.00  0.00    +0.000 A 
ATOM     30  C   UNL     1     -11.205   7.550   0.152  0.00  0.00    +0.001 A 
ATOM     31  C   UNL     1      -9.866   7.882   0.141  0.00  0.00    +0.010 A 
ATOM     32  C   UNL     1      -9.483   9.223   0.145  0.00  0.00    +0.001 A 
ATOM     33  C   UNL     1     -10.457  10.220   0.166  0.00  0.00    +0.010 A 
ATOM     34  C   UNL     1     -11.794   9.876   0.171  0.00  0.00    +0.001 A 
ENDBRANCH  20  32
ENDBRANCH  19  26
ENDBRANCH   1  19
TORSDOF 7
