REMARK  Name = ZINC55185134
REMARK  3 active torsions:
REMARK  status: ('A' for Active; 'I' for Inactive)
REMARK    1  A    between atoms: C_1  and  C_2
REMARK    2  A    between atoms: C_5  and  N_8
REMARK    3  A    between atoms: C_9  and  C_11
REMARK                            x       y       z     vdW  Elec       q    Type
REMARK                         _______ _______ _______ _____ _____    ______ ____
ROOT
ATOM      1  N   UNL     1      -1.358  -2.098   2.449  0.00  0.00    -0.307 N 
ATOM      2  C   UNL     1      -1.235  -2.779   3.606  0.00  0.00    +0.263 C 
ATOM      3  O   UNL     1      -0.555  -3.787   3.648  0.00  0.00    -0.269 OA
ATOM      4  H   UNL     1      -1.901  -1.294   2.415  0.00  0.00    +0.149 HD
ENDROOT
BRANCH   2   5
ATOM      5  C   UNL     1      -1.924  -2.305   4.816  0.00  0.00    +0.135 A 
ATOM      6  C   UNL     1      -1.802  -2.988   6.000  0.00  0.00    +0.081 A 
ATOM      7  S   UNL     1      -2.818  -1.982   7.073  0.00  0.00    -0.060 S 
ATOM      8  C   UNL     1      -3.300  -0.766   5.855  0.00  0.00    +0.156 A 
ATOM      9  N   UNL     1      -2.673  -1.200   4.781  0.00  0.00    -0.221 NA
ATOM     10  N   UNL     1      -4.114   0.344   6.003  0.00  0.00    -0.338 N 
ATOM     11  H   UNL     1      -4.509   0.544   6.866  0.00  0.00    +0.144 HD
ATOM     12  H   UNL     1      -4.290   0.922   5.244  0.00  0.00    +0.144 HD
ENDBRANCH   2   5
BRANCH   1  17
ATOM     13  C   UNL     1      -0.019   1.526   0.010  0.00  0.00    +0.007 C 
ATOM     14  C   UNL     1       0.002  -0.004   0.002  0.00  0.00    -0.014 C 
ATOM     15  C   UNL     1      -1.433  -0.534   0.013  0.00  0.00    +0.005 C 
ATOM     16  C   UNL     1      -1.413  -2.063   0.004  0.00  0.00    +0.022 C 
ATOM     17  C   UNL     1      -0.673  -2.570   1.244  0.00  0.00    +0.073 C 
ATOM     18  C   UNL     1       0.763  -2.041   1.233  0.00  0.00    +0.022 C 
ATOM     19  C   UNL     1       0.742  -0.511   1.242  0.00  0.00    +0.005 C 
ENDBRANCH   1  17
TORSDOF 2
