REMARK  Name = ZINC13880657
REMARK  18 active torsions:
REMARK  status: ('A' for Active; 'I' for Inactive)
REMARK    1  A    between atoms: C_1  and  C_2
REMARK    2  A    between atoms: C_2  and  C_3
REMARK    3  A    between atoms: C_3  and  N_4
REMARK    4  A    between atoms: N_4  and  C_5
REMARK    5  A    between atoms: N_4  and  C_8
REMARK    6  A    between atoms: C_5  and  C_6
REMARK    7  A    between atoms: C_6  and  C_7
REMARK    8  A    between atoms: C_11  and  C_14
REMARK    9  A    between atoms: N_15  and  N_16
REMARK   10  A    between atoms: C_17  and  C_19
REMARK   11  A    between atoms: C_19  and  N_32
REMARK   12  A    between atoms: C_20  and  C_21
REMARK   13  A    between atoms: C_24  and  N_27
REMARK   14  A    between atoms: N_27  and  C_28
REMARK   15  A    between atoms: N_27  and  C_30
REMARK   16  A    between atoms: C_28  and  C_29
REMARK   17  A    between atoms: C_30  and  C_31
REMARK   18  A    between atoms: C_33  and  C_35
REMARK                            x       y       z     vdW  Elec       q    Type
REMARK                         _______ _______ _______ _____ _____    ______ ____
ROOT
ATOM      1  C   UNL     1      -2.522   1.068  -0.185  0.00  0.00    +0.098 C 
ATOM      2  C   UNL     1      -2.604  -0.125   0.453  0.00  0.00    +0.036 C 
ENDROOT
BRANCH   2   3
ATOM      3  C   UNL     1      -3.910  -0.637   0.888  0.00  0.00    -0.023 A 
ATOM      4  C   UNL     1      -4.848   0.230   1.461  0.00  0.00    +0.010 A 
ATOM      5  C   UNL     1      -6.072  -0.254   1.864  0.00  0.00    +0.024 A 
ATOM      6  C   UNL     1      -6.374  -1.604   1.712  0.00  0.00    +0.030 A 
ATOM      7  C   UNL     1      -5.442  -2.470   1.148  0.00  0.00    +0.024 A 
ATOM      8  C   UNL     1      -4.217  -1.995   0.737  0.00  0.00    +0.010 A 
BRANCH   6   9
ATOM      9  N   UNL     1      -7.612  -2.090   2.126  0.00  0.00    -0.330 N 
BRANCH   9  10
ATOM     10  C   UNL     1      -8.595  -1.180   2.720  0.00  0.00    +0.102 C 
ATOM     11  C   UNL     1      -9.479  -0.595   1.617  0.00  0.00    +0.024 C 
ENDBRANCH   9  10
BRANCH   9  12
ATOM     12  C   UNL     1      -7.932  -3.511   1.966  0.00  0.00    +0.102 C 
ATOM     13  C   UNL     1      -7.500  -4.274   3.220  0.00  0.00    +0.024 C 
ENDBRANCH   9  12
ENDBRANCH   6   9
ENDBRANCH   2   3
BRANCH   1  15
ATOM     14  N   UNL     1      -3.681   2.946  -1.223  0.00  0.00    -0.202 N 
ATOM     15  C   UNL     1      -3.733   1.693  -0.730  0.00  0.00    +0.277 C 
ATOM     16  O   UNL     1      -4.784   1.079  -0.738  0.00  0.00    -0.267 OA
ATOM     17  H   UNL     1      -2.844   3.435  -1.217  0.00  0.00    +0.178 HD
BRANCH  14  19
ATOM     18  C   UNL     1      -4.787   4.750  -2.218  0.00  0.00    +0.138 C 
ATOM     19  N   UNL     1      -4.837   3.542  -1.743  0.00  0.00    -0.187 NA
BRANCH  18  23
ATOM     20  C   UNL     1      -8.290   6.557  -3.796  0.00  0.00    +0.030 A 
ATOM     21  C   UNL     1      -7.090   7.260  -3.788  0.00  0.00    +0.024 A 
ATOM     22  C   UNL     1      -5.952   6.677  -3.277  0.00  0.00    +0.011 A 
ATOM     23  C   UNL     1      -6.003   5.377  -2.765  0.00  0.00    -0.005 A 
ATOM     24  C   UNL     1      -7.210   4.672  -2.780  0.00  0.00    +0.011 A 
ATOM     25  C   UNL     1      -8.346   5.263  -3.288  0.00  0.00    +0.024 A 
BRANCH  20  26
ATOM     26  N   UNL     1      -9.441   7.150  -4.315  0.00  0.00    -0.330 N 
BRANCH  26  27
ATOM     27  C   UNL     1     -10.706   6.411  -4.324  0.00  0.00    +0.105 C 
BRANCH  27  29
ATOM     28  C   UNL     1     -12.784   5.909  -3.032  0.00  0.00    +0.005 C 
ATOM     29  C   UNL     1     -11.463   6.680  -3.022  0.00  0.00    +0.015 C 
ENDBRANCH  27  29
ENDBRANCH  26  27
BRANCH  26  30
ATOM     30  C   UNL     1      -9.385   8.513  -4.851  0.00  0.00    +0.105 C 
BRANCH  30  31
ATOM     31  C   UNL     1      -9.048   8.460  -6.342  0.00  0.00    +0.015 C 
ATOM     32  C   UNL     1      -8.989   9.883  -6.902  0.00  0.00    +0.005 C 
ENDBRANCH  30  31
ENDBRANCH  26  30
ENDBRANCH  20  26
ENDBRANCH  18  23
ENDBRANCH  14  19
ENDBRANCH   1  15
BRANCH   1  33
ATOM     33  N   UNL     1      -1.284   1.704  -0.324  0.00  0.00    -0.277 N 
ATOM     34  C   UNL     1      -0.827   2.030  -1.549  0.00  0.00    +0.248 C 
ATOM     35  O   UNL     1      -1.444   1.686  -2.539  0.00  0.00    -0.270 OA
ATOM     36  H   UNL     1      -0.754   1.911   0.462  0.00  0.00    +0.155 HD
BRANCH  34  37
ATOM     37  C   UNL     1       0.421   2.809  -1.690  0.00  0.00    +0.037 A 
ATOM     38  C   UNL     1       1.129   3.210  -0.555  0.00  0.00    +0.013 A 
ATOM     39  C   UNL     1       2.296   3.933  -0.693  0.00  0.00    +0.001 A 
ATOM     40  C   UNL     1       2.759   4.270  -1.953  0.00  0.00    +0.000 A 
ATOM     41  C   UNL     1       2.059   3.881  -3.081  0.00  0.00    +0.001 A 
ATOM     42  C   UNL     1       0.894   3.153  -2.957  0.00  0.00    +0.013 A 
ENDBRANCH  34  37
ENDBRANCH   1  33
TORSDOF 14
