REMARK  Name = ZINC36309378
REMARK  15 active torsions:
REMARK  status: ('A' for Active; 'I' for Inactive)
REMARK    1  A    between atoms: C_1  and  C_2
REMARK    2  A    between atoms: C_2  and  C_3
REMARK    3  A    between atoms: C_3  and  C_4
REMARK    4  A    between atoms: C_4  and  C_6
REMARK    5  A    between atoms: C_4  and  O_33
REMARK    6  A    between atoms: C_6  and  N_7
REMARK    7  A    between atoms: N_7  and  C_8
REMARK    8  A    between atoms: N_7  and  C_10
REMARK    9  A    between atoms: C_8  and  C_9
REMARK   10  A    between atoms: C_10  and  C_11
REMARK   11  A    between atoms: C_21  and  C_23
REMARK   12  A    between atoms: C_23  and  O_24
REMARK   13  A    between atoms: O_24  and  C_25
REMARK   14  A    between atoms: C_28  and  C_32
REMARK   15  A    between atoms: C_30  and  C_31
REMARK                            x       y       z     vdW  Elec       q    Type
REMARK                         _______ _______ _______ _____ _____    ______ ____
ROOT
ATOM      1  C   UNL     1      -3.974  -6.122  -0.331  0.00  0.00    +0.200 C 
ATOM      2  O   UNL     1      -2.904  -6.677  -0.194  0.00  0.00    -0.278 OA
ATOM      3  N   UNL     1      -5.092  -6.851  -0.520  0.00  0.00    -0.292 N 
ATOM      4  C   UNL     1      -6.393  -6.188  -0.694  0.00  0.00    +0.113 C 
ATOM      5  C   UNL     1      -6.900  -6.485  -2.114  0.00  0.00    +0.061 C 
ATOM      6  C   UNL     1      -6.656  -7.927  -2.418  0.00  0.00    -0.004 A 
ATOM      7  C   UNL     1      -5.831  -8.791  -1.766  0.00  0.00    -0.014 A 
ATOM      8  C   UNL     1      -5.776 -10.094  -2.258  0.00  0.00    +0.013 A 
ATOM      9  C   UNL     1      -6.524 -10.446  -3.329  0.00  0.00    +0.046 A 
ATOM     10  S   UNL     1      -7.366  -8.916  -3.707  0.00  0.00    -0.101 S 
ATOM     11  C   UNL     1      -5.026  -8.318  -0.563  0.00  0.00    +0.144 C 
ENDROOT
BRANCH   1  12
ATOM     12  C   UNL     1      -4.053  -4.618  -0.289  0.00  0.00    +0.019 C 
BRANCH  12  13
ATOM     13  N   UNL     1      -2.710  -4.062  -0.073  0.00  0.00    +0.387 N 
ATOM     14  H   UNL     1      -2.306  -4.473   0.755  0.00  0.00    -0.081 HD
BRANCH  13  15
ATOM     15  C   UNL     1      -1.863  -4.365  -1.234  0.00  0.00    -0.081 C 
ATOM     16  C   UNL     1      -0.427  -3.920  -0.947  0.00  0.00    -0.017 C 
ENDBRANCH  13  15
BRANCH  13  17
ATOM     17  C   UNL     1      -2.804  -2.607   0.099  0.00  0.00    -0.047 C 
BRANCH  17  18
ATOM     18  C   UNL     1      -3.522  -2.293   1.413  0.00  0.00    +0.098 C 
BRANCH  18  19
ATOM     19  O   UNL     1      -4.894  -2.678   1.311  0.00  0.00    -0.394 OA
ATOM     20  H   UNL     1      -5.378  -2.225   0.607  0.00  0.00    +0.210 HD
ENDBRANCH  18  19
BRANCH  18  21
ATOM     21  C   UNL     1      -3.432  -0.792   1.698  0.00  0.00    +0.029 C 
BRANCH  21  23
ATOM     22  C   UNL     1      -3.950   1.004   3.355  0.00  0.00    +0.004 C 
ATOM     23  C   UNL     1      -4.039  -0.497   3.071  0.00  0.00    -0.001 C 
ENDBRANCH  21  23
ENDBRANCH  18  21
ENDBRANCH  17  18
ENDBRANCH  13  17
ENDBRANCH  12  13
ENDBRANCH   1  12
BRANCH  11  24
ATOM     24  C   UNL     1      -5.627  -8.900   0.718  0.00  0.00    +0.256 C 
BRANCH  24  25
ATOM     25  O   UNL     1      -7.020  -8.589   0.775  0.00  0.00    -0.490 OA
BRANCH  25  26
ATOM     26  C   UNL     1      -7.709  -9.037   1.858  0.00  0.00    +0.124 A 
ATOM     27  C   UNL     1      -7.055  -9.757   2.848  0.00  0.00    +0.046 A 
ATOM     28  C   UNL     1      -7.757 -10.210   3.948  0.00  0.00    +0.007 A 
ATOM     29  C   UNL     1      -9.110  -9.948   4.063  0.00  0.00    -0.050 A 
ATOM     30  C   UNL     1      -9.763  -9.232   3.077  0.00  0.00    +0.010 A 
ATOM     31  C   UNL     1      -9.065  -8.771   1.978  0.00  0.00    -0.009 A 
ATOM     32  C   UNL     1      -9.777  -7.985   0.907  0.00  0.00    +0.047 C 
ATOM     33  C   UNL     1      -9.873 -10.444   5.264  0.00  0.00    +0.044 C 
ENDBRANCH  25  26
ENDBRANCH  24  25
ENDBRANCH  11  24
TORSDOF 11
