REMARK  Name = ZINC13215414
REMARK  11 active torsions:
REMARK  status: ('A' for Active; 'I' for Inactive)
REMARK    1  A    between atoms: C_1  and  C_2
REMARK    2  A    between atoms: C_5  and  C_34
REMARK    3  A    between atoms: C_7  and  N_8
REMARK    4  A    between atoms: C_9  and  C_28
REMARK    5  A    between atoms: C_11  and  C_16
REMARK    6  A    between atoms: C_16  and  C_18
REMARK    7  A    between atoms: C_21  and  O_26
REMARK    8  A    between atoms: C_23  and  O_24
REMARK    9  A    between atoms: O_24  and  C_25
REMARK   10  A    between atoms: O_26  and  C_27
REMARK   11  A    between atoms: C_29  and  C_33
REMARK                            x       y       z     vdW  Elec       q    Type
REMARK                         _______ _______ _______ _____ _____    ______ ____
ROOT
ATOM      1  N   UNL     1      -0.612  -0.534   2.519  0.00  0.00    -0.252 N 
ATOM      2  C   UNL     1      -1.510  -0.030   3.564  0.00  0.00    +0.157 C 
ATOM      3  C   UNL     1      -0.684   0.907   4.413  0.00  0.00    +0.077 C 
ATOM      4  C   UNL     1       0.561   0.919   3.883  0.00  0.00    +0.250 C 
ATOM      5  C   UNL     1       0.599   0.019   2.713  0.00  0.00    +0.292 C 
ATOM      6  O   UNL     1       1.579  -0.189   2.025  0.00  0.00    -0.266 OA
ATOM      7  O   UNL     1       1.606   1.638   4.354  0.00  0.00    -0.282 OA
ENDROOT
BRANCH   1  14
ATOM      8  C   UNL     1      -1.576   0.521   0.063  0.00  0.00    +0.045 C 
ATOM      9  C   UNL     1      -1.428  -0.962   0.287  0.00  0.00    -0.029 A 
ATOM     10  C   UNL     1      -1.760  -1.847  -0.722  0.00  0.00    +0.006 A 
ATOM     11  C   UNL     1      -1.628  -3.206  -0.525  0.00  0.00    +0.015 A 
ATOM     12  C   UNL     1      -1.156  -3.692   0.697  0.00  0.00    +0.065 A 
ATOM     13  C   UNL     1      -0.820  -2.798   1.715  0.00  0.00    +0.039 A 
ATOM     14  C   UNL     1      -0.952  -1.434   1.505  0.00  0.00    +0.041 A 
BRANCH  12  15
ATOM     15  C   UNL     1      -1.014  -5.145   0.911  0.00  0.00    +0.387 C 
ATOM     16  O   UNL     1      -1.309  -5.926   0.018  0.00  0.00    -0.241 OA
ATOM     17  O   UNL     1      -0.601  -5.568   1.982  0.00  0.00    -0.241 OA
ENDBRANCH  12  15
ENDBRANCH   1  14
BRANCH   2  18
ATOM     18  C   UNL     1      -2.024  -1.174   4.401  0.00  0.00    +0.018 A 
ATOM     19  C   UNL     1      -3.296  -1.453   4.775  0.00  0.00    -0.038 A 
ATOM     20  C   UNL     1      -3.536  -2.570   5.553  0.00  0.00    +0.011 A 
ATOM     21  C   UNL     1      -2.492  -3.353   5.919  0.00  0.00    +0.046 A 
ATOM     22  S   UNL     1      -1.115  -2.515   5.150  0.00  0.00    -0.099 S 
ATOM     23  C   UNL     1      -4.433  -0.559   4.350  0.00  0.00    +0.044 C 
ENDBRANCH   2  18
BRANCH   3  24
ATOM     24  C   UNL     1      -1.143   1.659   5.586  0.00  0.00    +0.199 C 
ATOM     25  O   UNL     1      -0.663   1.432   6.681  0.00  0.00    -0.287 OA
BRANCH  24  26
ATOM     26  C   UNL     1      -2.186   2.690   5.438  0.00  0.00    +0.064 A 
ATOM     27  C   UNL     1      -2.660   3.032   4.167  0.00  0.00    +0.019 A 
ATOM     28  C   UNL     1      -3.626   3.987   4.032  0.00  0.00    +0.046 A 
ATOM     29  C   UNL     1      -4.146   4.626   5.154  0.00  0.00    +0.124 A 
ATOM     30  C   UNL     1      -3.687   4.299   6.421  0.00  0.00    +0.092 A 
ATOM     31  C   UNL     1      -2.712   3.328   6.573  0.00  0.00    +0.134 A 
BRANCH  31  32
ATOM     32  O   UNL     1      -2.263   3.000   7.810  0.00  0.00    -0.494 OA
ATOM     33  C   UNL     1      -2.845   3.692   8.916  0.00  0.00    +0.277 C 
ENDBRANCH  31  32
BRANCH  29  34
ATOM     34  O   UNL     1      -5.107   5.574   5.007  0.00  0.00    -0.495 OA
ATOM     35  C   UNL     1      -5.534   5.863   3.674  0.00  0.00    +0.277 C 
ENDBRANCH  29  34
ENDBRANCH  24  26
ENDBRANCH   3  24
TORSDOF 7
