REMARK  Name = ZINC59385179
REMARK  6 active torsions:
REMARK  status: ('A' for Active; 'I' for Inactive)
REMARK    1  A    between atoms: C_1  and  C_2
REMARK    2  A    between atoms: C_3  and  C_17
REMARK    3  A    between atoms: C_4  and  C_10
REMARK    4  A    between atoms: C_15  and  O_16
REMARK    5  A    between atoms: N_19  and  N_20
REMARK    6  A    between atoms: C_21  and  C_22
REMARK                            x       y       z     vdW  Elec       q    Type
REMARK                         _______ _______ _______ _____ _____    ______ ____
ROOT
ATOM      1  C   UNL     1       0.566   1.310   0.469  0.00  0.00    +0.061 C 
ATOM      2  C   UNL     1       0.315  -0.148   0.181  0.00  0.00    +0.017 C 
ATOM      3  C   UNL     1      -0.955  -0.593   0.068  0.00  0.00    +0.057 C 
ATOM      4  C   UNL     1      -1.162  -2.066  -0.222  0.00  0.00    +0.143 C 
ATOM      5  N   UNL     1       0.047  -2.896  -0.358  0.00  0.00    -0.315 N 
ATOM      6  C   UNL     1       1.250  -2.305  -0.218  0.00  0.00    +0.135 C 
ATOM      7  S   UNL     1       2.664  -3.257  -0.373  0.00  0.00    -0.019 S 
ATOM      8  N   UNL     1       1.375  -0.996   0.034  0.00  0.00    -0.300 N 
ATOM      9  H   UNL     1      -0.021  -3.846  -0.543  0.00  0.00    +0.149 HD
ATOM     10  H   UNL     1       2.269  -0.630   0.120  0.00  0.00    +0.154 HD
ENDROOT
BRANCH   4  11
ATOM     11  C   UNL     1      -1.950  -2.181  -1.502  0.00  0.00    +0.019 A 
ATOM     12  C   UNL     1      -2.071  -1.089  -2.340  0.00  0.00    +0.009 A 
ATOM     13  C   UNL     1      -2.793  -1.194  -3.514  0.00  0.00    +0.001 A 
ATOM     14  C   UNL     1      -3.396  -2.391  -3.853  0.00  0.00    +0.004 A 
ATOM     15  C   UNL     1      -3.278  -3.486  -3.019  0.00  0.00    +0.046 A 
ATOM     16  C   UNL     1      -2.549  -3.385  -1.843  0.00  0.00    +0.122 A 
BRANCH  16  17
ATOM     17  O   UNL     1      -2.426  -4.462  -1.024  0.00  0.00    -0.506 OA
ATOM     18  H   UNL     1      -3.163  -4.574  -0.408  0.00  0.00    +0.292 HD
ENDBRANCH  16  17
ENDBRANCH   4  11
BRANCH   3  19
ATOM     19  C   UNL     1      -2.055   0.286   0.216  0.00  0.00    +0.263 C 
ATOM     20  O   UNL     1      -1.866   1.482   0.341  0.00  0.00    -0.269 OA
ATOM     21  N   UNL     1      -3.312  -0.202   0.218  0.00  0.00    -0.203 N 
ATOM     22  H   UNL     1      -3.467  -1.143   0.040  0.00  0.00    +0.178 HD
BRANCH  21  23
ATOM     23  N   UNL     1      -4.393   0.650   0.477  0.00  0.00    -0.187 NA
ATOM     24  C   UNL     1      -5.593   0.164   0.576  0.00  0.00    +0.138 C 
BRANCH  24  25
ATOM     25  C   UNL     1      -6.731   1.061   0.849  0.00  0.00    -0.004 A 
ATOM     26  C   UNL     1      -6.523   2.435   0.997  0.00  0.00    +0.009 A 
ATOM     27  C   UNL     1      -7.592   3.268   1.251  0.00  0.00    +0.002 A 
ATOM     28  C   UNL     1      -8.869   2.747   1.362  0.00  0.00    +0.015 A 
ATOM     29  C   UNL     1      -9.083   1.387   1.217  0.00  0.00    +0.018 A 
ATOM     30  C   UNL     1      -8.023   0.542   0.956  0.00  0.00    +0.024 A 
ATOM     31 BR   UNL     1     -10.833   0.686   1.371  0.00  0.00    -0.050 Br
ENDBRANCH  24  25
ENDBRANCH  21  23
ENDBRANCH   3  19
TORSDOF 5
