REMARK  Name = ZINC64137053
REMARK  9 active torsions:
REMARK  status: ('A' for Active; 'I' for Inactive)
REMARK    1  A    between atoms: C_1  and  C_2
REMARK    2  A    between atoms: C_7  and  C_8
REMARK    3  A    between atoms: N_26  and  C_29
REMARK    4  A    between atoms: C_34  and  C_35
REMARK    5  A    between atoms: N_37  and  C_38
REMARK    6  A    between atoms: C_38  and  C_39
REMARK    7  A    between atoms: C_39  and  C_40
REMARK    8  A    between atoms: C_40  and  C_41
REMARK    9  A    between atoms: C_40  and  C_42
REMARK                            x       y       z     vdW  Elec       q    Type
REMARK                         _______ _______ _______ _____ _____    ______ ____
ROOT
ATOM      1  C   UNL     1       0.067  -0.145   2.603  0.00  0.00    +0.135 C 
ATOM      2  C   UNL     1      -1.363  -0.015   3.148  0.00  0.00    +0.131 C 
ATOM      3  C   UNL     1      -1.247   0.282   4.637  0.00  0.00    -0.034 C 
ATOM      4  C   UNL     1      -1.901   1.421   4.842  0.00  0.00    -0.001 A 
ATOM      5  C   UNL     1      -2.188   2.175   6.073  0.00  0.00    +0.010 A 
ATOM      6  C   UNL     1      -2.889   3.329   5.918  0.00  0.00    +0.001 A 
ATOM      7  C   UNL     1      -3.327   3.803   4.678  0.00  0.00    +0.002 A 
ATOM      8  C   UNL     1      -3.111   3.172   3.496  0.00  0.00    +0.026 A 
ATOM      9  C   UNL     1      -2.387   1.945   3.530  0.00  0.00    +0.043 A 
ATOM     10  N   UNL     1      -2.061   1.124   2.548  0.00  0.00    -0.375 N 
ATOM     11  C   UNL     1      -0.457  -0.579   5.595  0.00  0.00    +0.065 C 
ATOM     12  C   UNL     1       0.953  -0.722   4.993  0.00  0.00    +0.169 C 
ATOM     13  N   UNL     1       0.811  -0.990   3.547  0.00  0.00    -0.264 N 
ATOM     14  C   UNL     1       1.457  -2.136   3.301  0.00  0.00    +0.317 C 
ATOM     15  O   UNL     1       1.636  -2.588   2.187  0.00  0.00    -0.252 OA
ATOM     16  N   UNL     1       1.886  -2.727   4.425  0.00  0.00    -0.192 N 
ATOM     17  C   UNL     1       1.620  -1.967   5.535  0.00  0.00    +0.248 C 
ATOM     18  O   UNL     1       1.859  -2.225   6.695  0.00  0.00    -0.273 OA
ATOM     19  H   UNL     1      -2.241   1.245   1.603  0.00  0.00    +0.160 HD
ENDROOT
BRANCH   1  26
ATOM     20  C   UNL     1       2.375   0.040   0.874  0.00  0.00    +0.044 C 
ATOM     21  C   UNL     1       1.147  -0.704   0.415  0.00  0.00    -0.045 A 
ATOM     22  C   UNL     1       1.127  -1.303  -0.831  0.00  0.00    +0.004 A 
ATOM     23  C   UNL     1       0.001  -1.985  -1.252  0.00  0.00    +0.000 A 
ATOM     24  C   UNL     1      -1.105  -2.069  -0.426  0.00  0.00    +0.000 A 
ATOM     25  C   UNL     1      -1.085  -1.471   0.820  0.00  0.00    +0.006 A 
ATOM     26  C   UNL     1       0.043  -0.792   1.242  0.00  0.00    -0.022 A 
ENDBRANCH   1  26
BRANCH  16  27
ATOM     27  C   UNL     1       2.532  -3.964   4.464  0.00  0.00    +0.058 A 
ATOM     28  C   UNL     1       3.915  -4.031   4.375  0.00  0.00    +0.025 A 
ATOM     29  C   UNL     1       4.552  -5.255   4.414  0.00  0.00    +0.002 A 
ATOM     30  C   UNL     1       3.819  -6.424   4.542  0.00  0.00    +0.001 A 
ATOM     31  C   UNL     1       2.444  -6.376   4.631  0.00  0.00    +0.015 A 
ATOM     32  C   UNL     1       1.787  -5.144   4.599  0.00  0.00    +0.059 A 
BRANCH  32  33
ATOM     33  C   UNL     1       0.316  -5.085   4.700  0.00  0.00    +0.246 C 
ATOM     34  O   UNL     1      -0.254  -4.011   4.667  0.00  0.00    -0.270 OA
ATOM     35  N   UNL     1      -0.397  -6.222   4.830  0.00  0.00    -0.311 N 
ATOM     36  H   UNL     1       0.057  -7.079   4.857  0.00  0.00    +0.149 HD
BRANCH  35  37
ATOM     37  C   UNL     1      -1.857  -6.163   4.931  0.00  0.00    +0.105 C 
BRANCH  37  38
ATOM     38  C   UNL     1      -2.416  -7.581   5.069  0.00  0.00    +0.022 C 
BRANCH  38  39
ATOM     39  C   UNL     1      -3.941  -7.520   5.174  0.00  0.00    -0.016 C 
ATOM     40  C   UNL     1      -4.521  -6.982   3.865  0.00  0.00    +0.007 C 
ATOM     41  C   UNL     1      -4.491  -8.924   5.437  0.00  0.00    +0.007 C 
ENDBRANCH  38  39
ENDBRANCH  37  38
ENDBRANCH  35  37
ENDBRANCH  32  33
ENDBRANCH  16  27
TORSDOF 6
