REMARK  Name = ZINC35265782
REMARK  12 active torsions:
REMARK  status: ('A' for Active; 'I' for Inactive)
REMARK    1  A    between atoms: C_1  and  C_2
REMARK    2  A    between atoms: C_2  and  C_3
REMARK    3  A    between atoms: C_3  and  N_4
REMARK    4  A    between atoms: C_5  and  C_34
REMARK    5  A    between atoms: C_6  and  C_29
REMARK    6  A    between atoms: C_7  and  C_12
REMARK    7  A    between atoms: C_16  and  N_18
REMARK    8  A    between atoms: N_21  and  C_22
REMARK    9  A    between atoms: C_27  and  C_28
REMARK   10  A    between atoms: C_29  and  O_31
REMARK   11  A    between atoms: O_31  and  C_32
REMARK   12  A    between atoms: C_32  and  C_33
REMARK                            x       y       z     vdW  Elec       q    Type
REMARK                         _______ _______ _______ _____ _____    ______ ____
ROOT
ATOM      1  C   UNL     1       0.879  -5.857   0.038  0.00  0.00    -0.021 A 
ATOM      2  C   UNL     1       0.534  -5.389  -1.217  0.00  0.00    +0.006 A 
ATOM      3  C   UNL     1       0.441  -6.264  -2.283  0.00  0.00    +0.002 A 
ATOM      4  C   UNL     1       0.694  -7.610  -2.098  0.00  0.00    +0.023 A 
ATOM      5  C   UNL     1       1.040  -8.083  -0.840  0.00  0.00    +0.035 A 
ATOM      6  C   UNL     1       1.138  -7.200   0.228  0.00  0.00    +0.029 A 
ENDROOT
BRANCH   1  10
ATOM      7  N   UNL     1      -0.058  -2.337   1.288  0.00  0.00    -0.259 N 
ATOM      8  C   UNL     1      -0.858  -3.356   1.719  0.00  0.00    +0.024 C 
ATOM      9  C   UNL     1      -0.425  -4.635   1.706  0.00  0.00    +0.078 C 
ATOM     10  C   UNL     1       0.978  -4.899   1.198  0.00  0.00    +0.144 C 
ATOM     11  N   UNL     1       1.759  -3.732   0.755  0.00  0.00    -0.288 N 
ATOM     12  C   UNL     1       1.186  -2.514   0.824  0.00  0.00    +0.307 C 
ATOM     13  O   UNL     1       1.821  -1.544   0.458  0.00  0.00    -0.252 OA
ATOM     14  C   UNL     1      -2.247  -3.049   2.217  0.00  0.00    +0.061 C 
ATOM     15  H   UNL     1       2.663  -3.837   0.420  0.00  0.00    +0.151 HD
BRANCH   9  16
ATOM     16  C   UNL     1      -1.252  -5.692   2.153  0.00  0.00    +0.339 C 
ATOM     17  O   UNL     1      -2.375  -5.456   2.558  0.00  0.00    -0.245 OA
BRANCH  16  18
ATOM     18  O   UNL     1      -0.796  -6.962   2.131  0.00  0.00    -0.462 OA
BRANCH  18  19
ATOM     19  C   UNL     1      -1.685  -7.979   2.597  0.00  0.00    +0.229 C 
ATOM     20  C   UNL     1      -0.997  -9.342   2.497  0.00  0.00    +0.048 C 
ENDBRANCH  18  19
ENDBRANCH  16  18
ENDBRANCH   9  16
BRANCH   7  21
ATOM     21  C   UNL     1      -0.593  -0.973   1.329  0.00  0.00    +0.114 C 
BRANCH  21  23
ATOM     22  C   UNL     1      -0.944   1.037   2.770  0.00  0.00    +0.005 C 
ATOM     23  C   UNL     1      -0.386  -0.387   2.727  0.00  0.00    +0.016 C 
ENDBRANCH  21  23
ENDBRANCH   7  21
ENDBRANCH   1  10
BRANCH   5  24
ATOM     24  N   UNL     1       1.297  -9.445  -0.649  0.00  0.00    -0.269 N 
ATOM     25  C   UNL     1       0.613 -10.365  -1.357  0.00  0.00    +0.308 C 
ATOM     26  O   UNL     1      -0.289 -10.017  -2.095  0.00  0.00    -0.252 OA
ATOM     27  N   UNL     1       0.929 -11.671  -1.249  0.00  0.00    -0.269 N 
ATOM     28  H   UNL     1       1.966  -9.727  -0.006  0.00  0.00    +0.156 HD
ATOM     29  H   UNL     1       1.608 -11.955  -0.617  0.00  0.00    +0.156 HD
BRANCH  27  30
ATOM     30  C   UNL     1       0.278 -12.617  -2.049  0.00  0.00    +0.038 A 
ATOM     31  C   UNL     1      -1.019 -12.384  -2.487  0.00  0.00    +0.023 A 
ATOM     32  C   UNL     1      -1.658 -13.319  -3.276  0.00  0.00    +0.002 A 
ATOM     33  C   UNL     1      -1.008 -14.488  -3.630  0.00  0.00    +0.000 A 
ATOM     34  C   UNL     1       0.283 -14.723  -3.195  0.00  0.00    +0.005 A 
ATOM     35  C   UNL     1       0.930 -13.788  -2.411  0.00  0.00    -0.029 A 
ATOM     36  C   UNL     1       2.340 -14.043  -1.943  0.00  0.00    +0.045 C 
ENDBRANCH  27  30
ENDBRANCH   5  24
TORSDOF 8
