REMARK  Name = ZINC21854787
REMARK  11 active torsions:
REMARK  status: ('A' for Active; 'I' for Inactive)
REMARK    1  A    between atoms: C_1  and  C_2
REMARK    2  A    between atoms: C_2  and  C_28
REMARK    3  A    between atoms: C_7  and  C_9
REMARK    4  A    between atoms: C_12  and  O_15
REMARK    5  A    between atoms: O_15  and  C_16
REMARK    6  A    between atoms: N_19  and  C_20
REMARK    7  A    between atoms: C_20  and  C_21
REMARK    8  A    between atoms: N_30  and  C_31
REMARK    9  A    between atoms: C_31  and  C_32
REMARK   10  A    between atoms: C_37  and  O_38
REMARK   11  A    between atoms: O_38  and  C_39
REMARK                            x       y       z     vdW  Elec       q    Type
REMARK                         _______ _______ _______ _____ _____    ______ ____
ROOT
ATOM      1  C   UNL     1      -1.420  -3.353  -2.173  0.00  0.00    +0.044 C 
ATOM      2  C   UNL     1      -1.652  -1.864  -2.439  0.00  0.00    +0.130 C 
ATOM      3  C   UNL     1      -3.051  -1.680  -3.025  0.00  0.00    +0.179 C 
ATOM      4  N   UNL     1      -3.395  -0.252  -3.022  0.00  0.00    -0.256 N 
ATOM      5  C   UNL     1      -2.887   0.601  -2.066  0.00  0.00    +0.124 A 
ATOM      6  C   UNL     1      -3.405   1.839  -2.312  0.00  0.00    +0.062 A 
ATOM      7  C   UNL     1      -4.220   1.672  -3.453  0.00  0.00    +0.093 A 
ATOM      8  N   UNL     1      -4.154   0.403  -3.811  0.00  0.00    -0.170 NA
ATOM      9  C   UNL     1      -1.958   0.124  -1.030  0.00  0.00    +0.266 C 
ATOM     10  O   UNL     1      -1.647   0.816  -0.080  0.00  0.00    -0.268 OA
ATOM     11  N   UNL     1      -1.464  -1.127  -1.194  0.00  0.00    -0.276 N 
ENDROOT
BRANCH   7  12
ATOM     12  C   UNL     1      -5.010   2.732  -4.128  0.00  0.00    +0.002 A 
ATOM     13  C   UNL     1      -4.992   4.036  -3.636  0.00  0.00    +0.013 A 
ATOM     14  C   UNL     1      -5.722   5.020  -4.268  0.00  0.00    +0.046 A 
ATOM     15  C   UNL     1      -6.483   4.711  -5.387  0.00  0.00    +0.120 A 
ATOM     16  C   UNL     1      -6.508   3.412  -5.876  0.00  0.00    +0.046 A 
ATOM     17  C   UNL     1      -5.775   2.425  -5.251  0.00  0.00    +0.013 A 
BRANCH  15  18
ATOM     18  O   UNL     1      -7.205   5.682  -6.005  0.00  0.00    -0.495 OA
ATOM     19  C   UNL     1      -7.135   6.997  -5.450  0.00  0.00    +0.277 C 
ENDBRANCH  15  18
ENDBRANCH   7  12
BRANCH   2  20
ATOM     20  C   UNL     1      -0.636  -1.388  -3.446  0.00  0.00    +0.239 C 
ATOM     21  O   UNL     1      -0.072  -2.188  -4.162  0.00  0.00    -0.273 OA
ATOM     22  N   UNL     1      -0.354  -0.074  -3.549  0.00  0.00    -0.309 N 
ATOM     23  H   UNL     1      -0.923   0.658  -2.958  0.00  0.00    +0.149 HD
BRANCH  22  24
ATOM     24  C   UNL     1       0.711   0.378  -4.447  0.00  0.00    +0.143 C 
BRANCH  24  25
ATOM     25  C   UNL     1       0.693   1.882  -4.531  0.00  0.00    +0.011 A 
ATOM     26  C   UNL     1       0.077   2.507  -5.599  0.00  0.00    +0.009 A 
ATOM     27  C   UNL     1       0.059   3.888  -5.676  0.00  0.00    +0.001 A 
ATOM     28  C   UNL     1       0.657   4.646  -4.686  0.00  0.00    +0.004 A 
ATOM     29  C   UNL     1       1.273   4.025  -3.617  0.00  0.00    +0.046 A 
ATOM     30  C   UNL     1       1.288   2.640  -3.534  0.00  0.00    +0.125 A 
BRANCH  30  31
ATOM     31  O   UNL     1       1.889   2.028  -2.481  0.00  0.00    -0.495 OA
ATOM     32  C   UNL     1       2.419   2.871  -1.456  0.00  0.00    +0.277 C 
ENDBRANCH  30  31
ENDBRANCH  24  25
ENDBRANCH  22  24
ENDBRANCH   2  20
BRANCH  11  33
ATOM     33  C   UNL     1      -0.728  -1.756  -0.095  0.00  0.00    +0.147 C 
BRANCH  33  34
ATOM     34  C   UNL     1       0.749  -1.522  -0.279  0.00  0.00    +0.005 A 
ATOM     35  C   UNL     1       1.539  -2.503  -0.849  0.00  0.00    +0.008 A 
ATOM     36  C   UNL     1       2.894  -2.288  -1.019  0.00  0.00    +0.000 A 
ATOM     37  C   UNL     1       3.461  -1.092  -0.619  0.00  0.00    +0.003 A 
ATOM     38  C   UNL     1       2.673  -0.110  -0.050  0.00  0.00    +0.038 A 
ATOM     39  C   UNL     1       1.316  -0.324   0.121  0.00  0.00    +0.128 A 
ATOM     40  F   UNL     1       0.544   0.638   0.673  0.00  0.00    -0.205 F 
ENDBRANCH  33  34
ENDBRANCH  11  33
TORSDOF 8
