REMARK  Name = ZINC15306497
REMARK  9 active torsions:
REMARK  status: ('A' for Active; 'I' for Inactive)
REMARK    1  A    between atoms: C_1  and  N_2
REMARK    2  A    between atoms: N_2  and  C_3
REMARK    3  A    between atoms: N_2  and  C_14
REMARK    4  A    between atoms: C_3  and  C_4
REMARK    5  A    between atoms: C_14  and  C_15
REMARK    6  A    between atoms: N_20  and  C_23
REMARK    7  A    between atoms: C_23  and  C_24
REMARK    8  A    between atoms: N_26  and  C_27
REMARK    9  A    between atoms: C_32  and  C_33
REMARK                            x       y       z     vdW  Elec       q    Type
REMARK                         _______ _______ _______ _____ _____    ______ ____
ROOT
ATOM      1  C   UNL     1      -0.027  -0.114   2.426  0.00  0.00    +0.199 C 
ATOM      2  O   UNL     1      -1.069   0.498   2.318  0.00  0.00    -0.278 OA
ATOM      3  N   UNL     1       0.431  -0.455   3.647  0.00  0.00    -0.301 N 
ATOM      4  C   UNL     1       1.695  -1.192   3.800  0.00  0.00    +0.123 C 
ATOM      5  C   UNL     1       1.442  -2.411   4.692  0.00  0.00    +0.104 C 
ATOM      6  N   UNL     1       0.822  -1.974   5.950  0.00  0.00    -0.291 NA
ATOM      7  C   UNL     1      -0.493  -1.363   5.712  0.00  0.00    +0.104 C 
ATOM      8  C   UNL     1      -0.316  -0.095   4.861  0.00  0.00    +0.123 C 
ENDROOT
BRANCH   1   9
ATOM      9  C   UNL     1       0.755  -0.492   1.195  0.00  0.00    +0.019 C 
BRANCH   9  11
ATOM     10  C   UNL     1       0.024   1.460   0.007  0.00  0.00    -0.095 C 
ATOM     11  N   UNL     1       0.050  -0.009  -0.001  0.00  0.00    +0.386 N 
ATOM     12  H   UNL     1      -0.895  -0.363   0.000  0.00  0.00    -0.081 HD
BRANCH  11  13
ATOM     13  C   UNL     1       0.748  -0.481  -1.204  0.00  0.00    -0.043 C 
BRANCH  13  14
ATOM     14  C   UNL     1      -0.041  -0.090  -2.428  0.00  0.00    -0.063 A 
ATOM     15  C   UNL     1      -1.012  -0.958  -2.924  0.00  0.00    +0.002 A 
ATOM     16  C   UNL     1      -1.742  -0.635  -4.027  0.00  0.00    +0.009 A 
ATOM     17  C   UNL     1      -1.515   0.590  -4.677  0.00  0.00    -0.018 A 
ATOM     18  C   UNL     1      -2.249   0.957  -5.818  0.00  0.00    +0.008 A 
ATOM     19  C   UNL     1      -2.002   2.152  -6.421  0.00  0.00    +0.001 A 
ATOM     20  C   UNL     1      -1.031   3.019  -5.925  0.00  0.00    +0.001 A 
ATOM     21  C   UNL     1      -0.301   2.697  -4.822  0.00  0.00    +0.008 A 
ATOM     22  C   UNL     1      -0.527   1.472  -4.172  0.00  0.00    -0.018 A 
ATOM     23  C   UNL     1       0.203   1.107  -3.028  0.00  0.00    +0.010 A 
ENDBRANCH  13  14
ENDBRANCH  11  13
ENDBRANCH   9  11
ENDBRANCH   1   9
BRANCH   6  24
ATOM     24  C   UNL     1       0.721  -3.087   6.902  0.00  0.00    +0.180 C 
BRANCH  24  25
ATOM     25  C   UNL     1       0.313  -2.558   8.253  0.00  0.00    +0.231 C 
ATOM     26  O   UNL     1       0.125  -1.369   8.407  0.00  0.00    -0.274 OA
ATOM     27  N   UNL     1       0.157  -3.405   9.290  0.00  0.00    -0.284 N 
ATOM     28  H   UNL     1       0.228  -4.362   9.149  0.00  0.00    +0.155 HD
BRANCH  27  29
ATOM     29  C   UNL     1      -0.108  -2.903  10.569  0.00  0.00    +0.045 A 
ATOM     30  C   UNL     1       0.282  -1.613  10.906  0.00  0.00    +0.024 A 
ATOM     31  C   UNL     1       0.019  -1.121  12.169  0.00  0.00    +0.002 A 
ATOM     32  C   UNL     1      -0.632  -1.912  13.099  0.00  0.00    +0.001 A 
ATOM     33  C   UNL     1      -1.021  -3.196  12.767  0.00  0.00    +0.014 A 
ATOM     34  C   UNL     1      -0.767  -3.692  11.503  0.00  0.00    +0.076 A 
BRANCH  34  35
ATOM     35  C   UNL     1      -1.199  -5.089  11.140  0.00  0.00    +0.419 C 
ATOM     36  F   UNL     1      -1.837  -5.680  12.236  0.00  0.00    -0.166 F 
ATOM     37  F   UNL     1      -2.083  -5.038  10.057  0.00  0.00    -0.166 F 
ATOM     38  F   UNL     1      -0.076  -5.848  10.789  0.00  0.00    -0.166 F 
ENDBRANCH  34  35
ENDBRANCH  27  29
ENDBRANCH  24  25
ENDBRANCH   6  24
TORSDOF 8
