REMARK  Name = ZINC02376821
REMARK  16 active torsions:
REMARK  status: ('A' for Active; 'I' for Inactive)
REMARK    1  A    between atoms: C_1  and  C_2
REMARK    2  A    between atoms: C_2  and  O_3
REMARK    3  A    between atoms: O_3  and  C_4
REMARK    4  A    between atoms: C_4  and  C_6
REMARK    5  A    between atoms: C_7  and  C_35
REMARK    6  A    between atoms: C_8  and  C_28
REMARK    7  A    between atoms: C_10  and  N_11
REMARK    8  A    between atoms: N_11  and  C_12
REMARK    9  A    between atoms: C_13  and  C_14
REMARK   10  A    between atoms: C_13  and  C_16
REMARK   11  A    between atoms: C_18  and  C_21
REMARK   12  A    between atoms: C_28  and  O_30
REMARK   13  A    between atoms: O_30  and  C_31
REMARK   14  A    between atoms: C_31  and  C_32
REMARK   15  A    between atoms: C_31  and  C_33
REMARK   16  A    between atoms: C_31  and  C_34
REMARK                            x       y       z     vdW  Elec       q    Type
REMARK                         _______ _______ _______ _____ _____    ______ ____
ROOT
ATOM      1  C   UNL     1       1.450  -2.341  -2.518  0.00  0.00    +0.091 A 
ATOM      2  C   UNL     1       2.811  -2.610  -2.510  0.00  0.00    -0.014 A 
ATOM      3  C   UNL     1       3.335  -3.128  -3.664  0.00  0.00    +0.102 A 
ATOM      4  S   UNL     1       1.913  -3.227  -4.732  0.00  0.00    -0.066 S 
ATOM      5  C   UNL     1       0.741  -2.626  -3.689  0.00  0.00    +0.084 A 
ATOM      6  C   UNL     1       3.666  -2.345  -1.297  0.00  0.00    +0.046 C 
ENDROOT
BRANCH   1   7
ATOM      7  C   UNL     1       0.777  -1.784  -1.339  0.00  0.00    +0.342 C 
ATOM      8  O   UNL     1       0.308  -2.528  -0.499  0.00  0.00    -0.245 OA
BRANCH   7   9
ATOM      9  O   UNL     1       0.679  -0.448  -1.188  0.00  0.00    -0.461 OA
BRANCH   9  11
ATOM     10  C   UNL     1      -0.001   1.554  -0.018  0.00  0.00    +0.048 C 
ATOM     11  C   UNL     1       0.012   0.024  -0.016  0.00  0.00    +0.229 C 
ENDBRANCH   9  11
ENDBRANCH   7   9
ENDBRANCH   1   7
BRANCH   5  12
ATOM     12  N   UNL     1      -0.604  -2.452  -3.932  0.00  0.00    -0.313 N 
ATOM     13  H   UNL     1      -1.179  -2.090  -3.239  0.00  0.00    +0.152 HD
BRANCH  12  14
ATOM     14  C   UNL     1      -1.129  -2.789  -5.150  0.00  0.00    +0.094 C 
ATOM     15  C   UNL     1      -2.473  -2.719  -5.355  0.00  0.00    +0.098 C 
BRANCH  15  16
ATOM     16  C   UNL     1      -3.353  -2.181  -4.300  0.00  0.00    +0.120 A 
ATOM     17  N   UNL     1      -3.474  -2.559  -3.036  0.00  0.00    -0.238 NA
ATOM     18  C   UNL     1      -4.324  -1.959  -2.220  0.00  0.00    +0.079 A 
ATOM     19  C   UNL     1      -5.093  -0.928  -2.689  0.00  0.00    +0.075 A 
ATOM     20  S   UNL     1      -4.535  -0.842  -4.386  0.00  0.00    -0.074 S 
BRANCH  18  21
ATOM     21  C   UNL     1      -4.443  -2.398  -0.808  0.00  0.00    +0.001 A 
ATOM     22  C   UNL     1      -5.344  -1.767   0.047  0.00  0.00    +0.013 A 
ATOM     23  C   UNL     1      -5.452  -2.180   1.359  0.00  0.00    +0.039 A 
ATOM     24  C   UNL     1      -4.665  -3.220   1.827  0.00  0.00    +0.123 A 
ATOM     25  C   UNL     1      -3.768  -3.851   0.980  0.00  0.00    +0.039 A 
ATOM     26  C   UNL     1      -3.658  -3.448  -0.335  0.00  0.00    +0.013 A 
ATOM     27  F   UNL     1      -4.774  -3.621   3.112  0.00  0.00    -0.205 F 
ENDBRANCH  18  21
ENDBRANCH  15  16
BRANCH  15  28
ATOM     28  C   UNL     1      -3.032  -3.167  -6.595  0.00  0.00    +0.103 C 
ATOM     29  N   UNL     1      -3.476  -3.522  -7.579  0.00  0.00    -0.191 NA
ENDBRANCH  15  28
ENDBRANCH  12  14
ENDBRANCH   5  12
BRANCH   3  30
ATOM     30  C   UNL     1       4.718  -3.506  -3.950  0.00  0.00    +0.347 C 
ATOM     31  O   UNL     1       5.574  -3.371  -3.096  0.00  0.00    -0.244 OA
BRANCH  30  32
ATOM     32  O   UNL     1       5.046  -4.005  -5.160  0.00  0.00    -0.455 OA
BRANCH  32  33
ATOM     33  C   UNL     1       6.416  -4.354  -5.369  0.00  0.00    +0.106 C 
ATOM     34  C   UNL     1       6.830  -5.424  -4.357  0.00  0.00    +0.055 C 
ATOM     35  C   UNL     1       6.593  -4.898  -6.788  0.00  0.00    +0.055 C 
ATOM     36  C   UNL     1       7.291  -3.112  -5.186  0.00  0.00    +0.055 C 
ENDBRANCH  32  33
ENDBRANCH  30  32
ENDBRANCH   3  30
TORSDOF 11
