REMARK  Name = ZINC41586311
REMARK  11 active torsions:
REMARK  status: ('A' for Active; 'I' for Inactive)
REMARK    1  A    between atoms: C_1  and  C_2
REMARK    2  A    between atoms: C_2  and  O_3
REMARK    3  A    between atoms: O_3  and  C_4
REMARK    4  A    between atoms: C_4  and  C_6
REMARK    5  A    between atoms: N_9  and  C_12
REMARK    6  A    between atoms: C_12  and  C_13
REMARK    7  A    between atoms: C_14  and  O_33
REMARK    8  A    between atoms: C_21  and  O_24
REMARK    9  A    between atoms: O_24  and  C_25
REMARK   10  A    between atoms: C_30  and  O_31
REMARK   11  A    between atoms: O_31  and  C_32
REMARK                            x       y       z     vdW  Elec       q    Type
REMARK                         _______ _______ _______ _____ _____    ______ ____
ROOT
ATOM      1  C   UNL     1       4.513  -6.152   4.407  0.00  0.00    +0.020 A 
ATOM      2  C   UNL     1       3.628  -6.995   5.059  0.00  0.00    +0.122 A 
ATOM      3  C   UNL     1       3.781  -8.377   4.986  0.00  0.00    +0.046 A 
ATOM      4  C   UNL     1       4.808  -8.922   4.267  0.00  0.00    +0.019 A 
ATOM      5  C   UNL     1       5.707  -8.087   3.604  0.00  0.00    +0.068 A 
ATOM      6  C   UNL     1       5.558  -6.690   3.669  0.00  0.00    +0.143 A 
ATOM      7  O   UNL     1       6.431  -5.892   3.020  0.00  0.00    -0.459 OA
ATOM      8  C   UNL     1       7.450  -6.380   2.300  0.00  0.00    +0.245 A 
ATOM      9  C   UNL     1       7.682  -7.701   2.167  0.00  0.00    +0.210 A 
ATOM     10  C   UNL     1       6.827  -8.634   2.819  0.00  0.00    +0.235 A 
ATOM     11  O   UNL     1       7.007  -9.836   2.722  0.00  0.00    -0.283 OA
ENDROOT
BRANCH   2  12
ATOM     12  O   UNL     1       2.603  -6.468   5.777  0.00  0.00    -0.506 OA
ATOM     13  H   UNL     1       1.794  -6.334   5.266  0.00  0.00    +0.292 HD
ENDBRANCH   2  12
BRANCH   1  14
ATOM     14  C   UNL     1       4.338  -4.658   4.493  0.00  0.00    -0.036 C 
BRANCH  14  18
ATOM     15  C   UNL     1       1.152  -2.836   2.328  0.00  0.00    +0.094 C 
ATOM     16  C   UNL     1       2.564  -2.252   2.224  0.00  0.00    -0.004 C 
ATOM     17  C   UNL     1       3.399  -2.736   3.411  0.00  0.00    -0.078 C 
ATOM     18  N   UNL     1       3.472  -4.202   3.398  0.00  0.00    +0.383 N 
ATOM     19  C   UNL     1       2.129  -4.769   3.569  0.00  0.00    -0.078 C 
ATOM     20  C   UNL     1       1.246  -4.364   2.388  0.00  0.00    -0.004 C 
ATOM     21  H   UNL     1       3.857  -4.511   2.517  0.00  0.00    -0.081 HD
BRANCH  15  22
ATOM     22  C   UNL     1       0.348  -2.428   1.121  0.00  0.00    +0.310 C 
ATOM     23  O   UNL     1      -0.105  -3.270   0.383  0.00  0.00    -0.251 OA
BRANCH  22  24
ATOM     24  O   UNL     1       0.135  -1.127   0.865  0.00  0.00    -0.465 OA
BRANCH  24  26
ATOM     25  C   UNL     1      -0.772   0.707  -0.421  0.00  0.00    +0.048 C 
ATOM     26  C   UNL     1      -0.636  -0.812  -0.296  0.00  0.00    +0.229 C 
ENDBRANCH  24  26
ENDBRANCH  22  24
ENDBRANCH  15  22
ENDBRANCH  14  18
ENDBRANCH   1  14
BRANCH   9  27
ATOM     27  O   UNL     1       8.733  -8.139   1.421  0.00  0.00    -0.445 OA
BRANCH  27  28
ATOM     28  C   UNL     1       8.463  -8.815   0.273  0.00  0.00    +0.170 A 
ATOM     29  C   UNL     1       7.155  -8.940  -0.169  0.00  0.00    +0.050 A 
ATOM     30  C   UNL     1       6.882  -9.627  -1.337  0.00  0.00    +0.004 A 
ATOM     31  C   UNL     1       7.912 -10.193  -2.066  0.00  0.00    +0.004 A 
ATOM     32  C   UNL     1       9.218 -10.073  -1.631  0.00  0.00    +0.049 A 
ATOM     33  C   UNL     1       9.500  -9.379  -0.465  0.00  0.00    +0.162 A 
BRANCH  33  34
ATOM     34  O   UNL     1      10.785  -9.255  -0.040  0.00  0.00    -0.491 OA
ATOM     35  C   UNL     1      11.797  -9.859  -0.847  0.00  0.00    +0.277 C 
ENDBRANCH  33  34
ENDBRANCH  27  28
ENDBRANCH   9  27
TORSDOF 9
