REMARK  Name = ZINC36621547
REMARK  6 active torsions:
REMARK  status: ('A' for Active; 'I' for Inactive)
REMARK    1  A    between atoms: C_1  and  C_2
REMARK    2  A    between atoms: C_4  and  C_8
REMARK    3  A    between atoms: N_6  and  C_7
REMARK    4  A    between atoms: N_10  and  N_11
REMARK    5  A    between atoms: N_11  and  C_12
REMARK    6  A    between atoms: C_12  and  C_13
REMARK                            x       y       z     vdW  Elec       q    Type
REMARK                         _______ _______ _______ _____ _____    ______ ____
ROOT
ATOM      1  N   UNL     1       0.179  -5.742  -1.542  0.00  0.00    -0.264 N 
ATOM      2  H   UNL     1       0.248  -5.694  -2.508  0.00  0.00    +0.170 HD
ENDROOT
BRANCH   1   5
ATOM      3  C   UNL     1       0.246  -3.368  -1.392  0.00  0.00    +0.280 C 
ATOM      4  O   UNL     1       0.332  -3.307  -2.603  0.00  0.00    -0.267 OA
ATOM      5  N   UNL     1       0.165  -4.566  -0.781  0.00  0.00    -0.231 N 
ATOM      6  H   UNL     1       0.096  -4.615   0.185  0.00  0.00    +0.173 HD
BRANCH   3  10
ATOM      7  C   UNL     1       0.306   1.500   0.020  0.00  0.00    +0.065 C 
ATOM      8  C   UNL     1       0.257  -0.006   0.009  0.00  0.00    +0.037 A 
ATOM      9  C   UNL     1       0.307  -0.804  -1.083  0.00  0.00    +0.057 A 
ATOM     10  C   UNL     1       0.230  -2.127  -0.589  0.00  0.00    +0.149 A 
ATOM     11  N   UNL     1       0.142  -2.044   0.723  0.00  0.00    -0.167 NA
ATOM     12  N   UNL     1       0.162  -0.812   1.089  0.00  0.00    -0.271 N 
ATOM     13  C   UNL     1       0.088  -0.349   2.477  0.00  0.00    +0.172 C 
ENDBRANCH   3  10
ENDBRANCH   1   5
BRANCH   1  14
ATOM     14  C   UNL     1       0.095  -6.983  -0.910  0.00  0.00    +0.054 C 
ATOM     15  C   UNL     1       0.105  -7.055   0.423  0.00  0.00    +0.035 C 
BRANCH  14  16
ATOM     16  C   UNL     1      -0.005  -8.219  -1.717  0.00  0.00    +0.117 A 
ATOM     17  C   UNL     1       1.022  -8.530  -2.597  0.00  0.00    +0.287 A 
ATOM     18  O   UNL     1       2.022  -7.619  -2.597  0.00  0.00    -0.265 OA
ATOM     19  N   UNL     1       1.225  -9.514  -3.421  0.00  0.00    -0.163 NA
ATOM     20  C   UNL     1       0.391 -10.551  -3.615  0.00  0.00    +0.316 A 
ATOM     21  O   UNL     1       0.623 -11.455  -4.402  0.00  0.00    -0.257 OA
ATOM     22  S   UNL     1      -1.088 -10.483  -2.617  0.00  0.00    +0.016 S 
ATOM     23  C   UNL     1      -1.133  -9.041  -1.563  0.00  0.00    +0.236 A 
ATOM     24  O   UNL     1      -2.145  -8.768  -0.713  0.00  0.00    -0.279 OA
ENDBRANCH  14  16
ENDBRANCH   1  14
TORSDOF 4
