REMARK  Name = ZINC16038958
REMARK  11 active torsions:
REMARK  status: ('A' for Active; 'I' for Inactive)
REMARK    1  A    between atoms: C_1  and  C_2
REMARK    2  A    between atoms: C_2  and  C_3
REMARK    3  A    between atoms: C_2  and  C_4
REMARK    4  A    between atoms: C_4  and  C_5
REMARK    5  A    between atoms: C_8  and  C_11
REMARK    6  A    between atoms: C_11  and  C_13
REMARK    7  A    between atoms: C_15  and  C_37
REMARK    8  A    between atoms: C_37  and  C_39
REMARK    9  A    between atoms: C_39  and  C_40
REMARK   10  A    between atoms: C_39  and  C_41
REMARK   11  A    between atoms: C_39  and  C_42
REMARK                            x       y       z     vdW  Elec       q    Type
REMARK                         _______ _______ _______ _____ _____    ______ ____
ROOT
ATOM      1  C   UNL     1       0.345   6.742   1.348  0.00  0.00    +0.108 C 
ATOM      2  C   UNL     1      -1.018   7.215   0.783  0.00  0.00    +0.136 C 
ATOM      3  C   UNL     1      -2.861   5.660  -0.043  0.00  0.00    +0.054 C 
ATOM      4  C   UNL     1      -3.124   4.386  -0.381  0.00  0.00    +0.022 C 
ATOM      5  C   UNL     1      -2.011   3.442  -0.602  0.00  0.00    -0.019 A 
ATOM      6  C   UNL     1      -2.291   2.079  -0.734  0.00  0.00    +0.008 A 
ATOM      7  C   UNL     1      -1.265   1.180  -0.924  0.00  0.00    +0.001 A 
ATOM      8  C   UNL     1       0.043   1.628  -1.004  0.00  0.00    +0.000 A 
ATOM      9  C   UNL     1       0.324   2.980  -0.893  0.00  0.00    +0.006 A 
ATOM     10  C   UNL     1      -0.688   3.892  -0.670  0.00  0.00    -0.020 A 
ATOM     11  C   UNL     1      -0.388   5.354  -0.539  0.00  0.00    +0.107 C 
ATOM     12  C   UNL     1       0.812   5.664   0.350  0.00  0.00    +0.107 C 
ATOM     13  C   UNL     1       1.394   4.472   1.023  0.00  0.00    -0.008 A 
ATOM     14  C   UNL     1       0.845   3.459   1.781  0.00  0.00    +0.006 A 
ATOM     15  C   UNL     1       1.706   2.491   2.284  0.00  0.00    +0.000 A 
ATOM     16  C   UNL     1       3.062   2.531   2.029  0.00  0.00    +0.002 A 
ATOM     17  C   UNL     1       3.624   3.521   1.240  0.00  0.00    +0.023 A 
ATOM     18  C   UNL     1       2.767   4.493   0.725  0.00  0.00    +0.038 A 
ATOM     19  N   UNL     1       3.060   5.541  -0.129  0.00  0.00    -0.284 N 
ATOM     20  C   UNL     1       1.952   6.226  -0.478  0.00  0.00    +0.231 C 
ATOM     21  O   UNL     1       1.874   7.116  -1.296  0.00  0.00    -0.274 OA
ATOM     22  H   UNL     1       3.954   5.755  -0.441  0.00  0.00    +0.155 HD
ATOM     23  N   UNL     1      -1.473   6.252  -0.245  0.00  0.00    -0.384 NA
ATOM     24  H   UNL     1      -1.576   6.809  -1.101  0.00  0.00    +0.127 HD
ENDROOT
BRANCH   1  25
ATOM     25  C   UNL     1       0.192   6.204   2.747  0.00  0.00    +0.170 C 
ATOM     26  O   UNL     1      -0.874   5.754   3.110  0.00  0.00    -0.292 OA
BRANCH  25  30
ATOM     27  C   UNL     1       3.489   6.262   5.414  0.00  0.00    -0.047 A 
ATOM     28  C   UNL     1       2.306   5.655   5.796  0.00  0.00    +0.004 A 
ATOM     29  C   UNL     1       1.229   5.632   4.935  0.00  0.00    +0.011 A 
ATOM     30  C   UNL     1       1.336   6.224   3.672  0.00  0.00    +0.018 A 
ATOM     31  C   UNL     1       2.537   6.831   3.292  0.00  0.00    +0.011 A 
ATOM     32  C   UNL     1       3.603   6.851   4.166  0.00  0.00    +0.004 A 
BRANCH  27  33
ATOM     33  C   UNL     1       4.661   6.282   6.361  0.00  0.00    +0.038 C 
BRANCH  33  35
ATOM     34  C   UNL     1       6.134   5.091   4.732  0.00  0.00    +0.007 C 
ATOM     35  C   UNL     1       5.522   5.038   6.134  0.00  0.00    -0.013 C 
ATOM     36  C   UNL     1       6.641   4.995   7.177  0.00  0.00    +0.007 C 
ENDBRANCH  33  35
ENDBRANCH  27  33
ENDBRANCH  25  30
ENDBRANCH   1  25
BRANCH   2  37
ATOM     37  C   UNL     1      -0.847   8.388  -0.145  0.00  0.00    +0.158 C 
ATOM     38  O   UNL     1      -0.768   8.208  -1.337  0.00  0.00    -0.295 OA
BRANCH  37  39
ATOM     39  C   UNL     1      -0.774   9.786   0.413  0.00  0.00    +0.022 C 
ATOM     40  C   UNL     1      -0.532  10.778  -0.726  0.00  0.00    +0.018 C 
ATOM     41  C   UNL     1      -2.091  10.125   1.114  0.00  0.00    +0.018 C 
ATOM     42  C   UNL     1       0.377   9.874   1.418  0.00  0.00    +0.018 C 
ENDBRANCH  37  39
ENDBRANCH   2  37
TORSDOF 6
