REMARK  Name = ZINC02463639
REMARK  8 active torsions:
REMARK  status: ('A' for Active; 'I' for Inactive)
REMARK    1  A    between atoms: C_1  and  C_2
REMARK    2  A    between atoms: C_7  and  C_21
REMARK    3  A    between atoms: C_9  and  C_15
REMARK    4  A    between atoms: C_10  and  C_14
REMARK    5  A    between atoms: C_15  and  O_17
REMARK    6  A    between atoms: O_17  and  C_18
REMARK    7  A    between atoms: C_18  and  C_19
REMARK    8  A    between atoms: C_25  and  N_27
REMARK                            x       y       z     vdW  Elec       q    Type
REMARK                         _______ _______ _______ _____ _____    ______ ____
ROOT
ATOM      1  C   UNL     1      -7.503   6.059   5.110  0.00  0.00    +0.029 C 
ATOM      2  C   UNL     1      -7.241   4.592   5.460  0.00  0.00    +0.137 C 
ATOM      3  C   UNL     1      -5.999   4.076   4.765  0.00  0.00    +0.235 C 
ATOM      4  O   UNL     1      -4.906   4.552   4.985  0.00  0.00    -0.274 OA
ATOM      5  N   UNL     1      -6.162   3.067   3.895  0.00  0.00    -0.238 N 
ATOM      6  C   UNL     1      -5.061   2.427   3.117  0.00  0.00    +0.152 C 
ATOM      7  C   UNL     1      -5.437   1.302   2.183  0.00  0.00    +0.083 C 
ATOM      8  C   UNL     1      -6.752   0.944   2.103  0.00  0.00    +0.053 C 
ATOM      9  N   UNL     1      -7.666   1.567   2.837  0.00  0.00    -0.230 NA
ATOM     10  C   UNL     1      -7.418   2.548   3.667  0.00  0.00    +0.164 C 
ATOM     11  S   UNL     1      -8.509   3.494   4.716  0.00  0.00    -0.077 S 
ATOM     12  C   UNL     1      -7.169  -0.170   1.178  0.00  0.00    +0.066 C 
ENDROOT
BRANCH   6  13
ATOM     13  C   UNL     1      -4.386   3.500   2.302  0.00  0.00    -0.020 A 
ATOM     14  C   UNL     1      -5.146   4.387   1.562  0.00  0.00    +0.006 A 
ATOM     15  C   UNL     1      -4.528   5.372   0.815  0.00  0.00    +0.003 A 
ATOM     16  C   UNL     1      -3.149   5.469   0.806  0.00  0.00    +0.033 A 
ATOM     17  C   UNL     1      -2.389   4.582   1.546  0.00  0.00    +0.127 A 
ATOM     18  C   UNL     1      -3.008   3.601   2.297  0.00  0.00    +0.038 A 
BRANCH  17  19
ATOM     19  N   UNL     1      -0.912   4.686   1.537  0.00  0.00    +0.056 N 
ATOM     20  O   UNL     1      -0.367   5.554   0.878  0.00  0.00    -0.126 OA
ATOM     21  O   UNL     1      -0.242   3.905   2.188  0.00  0.00    -0.126 OA
ENDBRANCH  17  19
ENDBRANCH   6  13
BRANCH   7  22
ATOM     22  C   UNL     1      -4.461   0.645   1.413  0.00  0.00    +0.339 C 
ATOM     23  O   UNL     1      -4.786  -0.250   0.654  0.00  0.00    -0.245 OA
BRANCH  22  24
ATOM     24  O   UNL     1      -3.164   1.008   1.514  0.00  0.00    -0.457 OA
BRANCH  24  25
ATOM     25  C   UNL     1      -2.227   0.298   0.703  0.00  0.00    +0.259 C 
BRANCH  25  26
ATOM     26  C   UNL     1      -0.841   0.836   0.949  0.00  0.00    +0.006 C 
ATOM     27  C   UNL     1       0.163   0.011   1.114  0.00  0.00    +0.007 C 
ENDBRANCH  25  26
ENDBRANCH  24  25
ENDBRANCH  22  24
ENDBRANCH   7  22
TORSDOF 6
