REMARK  Name = ZINC12556807
REMARK  6 active torsions:
REMARK  status: ('A' for Active; 'I' for Inactive)
REMARK    1  A    between atoms: C_1  and  C_2
REMARK    2  A    between atoms: C_7  and  N_8
REMARK    3  A    between atoms: C_9  and  C_11
REMARK    4  A    between atoms: C_11  and  N_12
REMARK    5  A    between atoms: C_13  and  C_15
REMARK    6  A    between atoms: C_20  and  C_21
REMARK                            x       y       z     vdW  Elec       q    Type
REMARK                         _______ _______ _______ _____ _____    ______ ____
ROOT
ATOM      1  N   UNL     1      -6.343   1.027   2.082  0.00  0.00    -0.303 N 
ATOM      2  C   UNL     1      -5.145   0.815   1.502  0.00  0.00    +0.248 C 
ATOM      3  O   UNL     1      -4.244   1.619   1.657  0.00  0.00    -0.270 OA
ATOM      4  H   UNL     1      -7.061   0.386   1.958  0.00  0.00    +0.150 HD
ENDROOT
BRANCH   2   5
ATOM      5  C   UNL     1      -4.925  -0.388   0.682  0.00  0.00    +0.082 A 
ATOM      6  C   UNL     1      -5.841  -1.385   0.415  0.00  0.00    +0.118 A 
ATOM      7  N   UNL     1      -5.242  -2.295  -0.368  0.00  0.00    -0.283 N 
ATOM      8  H   UNL     1      -5.672  -3.129  -0.714  0.00  0.00    +0.188 HD
ATOM      9  N   UNL     1      -3.926  -1.901  -0.626  0.00  0.00    -0.173 NA
ATOM     10  C   UNL     1      -3.690  -0.764  -0.012  0.00  0.00    +0.105 A 
BRANCH  10  11
ATOM     11  C   UNL     1      -2.417  -0.004  -0.023  0.00  0.00    +0.007 A 
ATOM     12  C   UNL     1      -2.436   1.390  -0.014  0.00  0.00    +0.014 A 
ATOM     13  C   UNL     1      -1.252   2.096  -0.029  0.00  0.00    +0.050 A 
ATOM     14  C   UNL     1      -0.037   1.423  -0.046  0.00  0.00    +0.162 A 
ATOM     15  C   UNL     1      -0.012   0.033  -0.054  0.00  0.00    +0.163 A 
ATOM     16  C   UNL     1      -1.199  -0.680  -0.043  0.00  0.00    +0.059 A 
ATOM     17  O   UNL     1       1.170  -0.643  -0.070  0.00  0.00    -0.485 OA
ATOM     18  C   UNL     1       2.330   0.101  -0.458  0.00  0.00    +0.270 C 
ATOM     19  C   UNL     1       2.317   1.438   0.293  0.00  0.00    +0.270 C 
ATOM     20  O   UNL     1       1.120   2.140  -0.061  0.00  0.00    -0.485 OA
ENDBRANCH  10  11
ENDBRANCH   2   5
BRANCH   1  21
ATOM     21  C   UNL     1      -6.562   2.224   2.897  0.00  0.00    +0.200 C 
BRANCH  21  23
ATOM     22  N   UNL     1      -8.403   3.232   4.206  0.00  0.00    -0.284 N 
ATOM     23  C   UNL     1      -7.973   2.221   3.425  0.00  0.00    +0.234 C 
ATOM     24  O   UNL     1      -8.723   1.309   3.147  0.00  0.00    -0.274 OA
ATOM     25  H   UNL     1      -7.782   3.919   4.494  0.00  0.00    +0.155 HD
BRANCH  22  32
ATOM     26  C   UNL     1      -9.038   4.628   6.602  0.00  0.00    +0.046 C 
ATOM     27  C   UNL     1     -10.098   3.961   5.764  0.00  0.00    -0.028 A 
ATOM     28  C   UNL     1     -11.423   4.021   6.149  0.00  0.00    +0.020 A 
ATOM     29  C   UNL     1     -12.396   3.404   5.383  0.00  0.00    +0.018 A 
ATOM     30  C   UNL     1     -12.045   2.730   4.226  0.00  0.00    +0.017 A 
ATOM     31  C   UNL     1     -10.723   2.671   3.834  0.00  0.00    +0.024 A 
ATOM     32  C   UNL     1      -9.744   3.290   4.601  0.00  0.00    +0.036 A 
ATOM     33 BR   UNL     1     -14.208   3.482   5.917  0.00  0.00    -0.050 Br
ENDBRANCH  22  32
ENDBRANCH  21  23
ENDBRANCH   1  21
TORSDOF 5
