REMARK  Name = ZINC46774565
REMARK  7 active torsions:
REMARK  status: ('A' for Active; 'I' for Inactive)
REMARK    1  A    between atoms: C_1  and  N_2
REMARK    2  A    between atoms: N_2  and  C_3
REMARK    3  A    between atoms: C_5  and  C_10
REMARK    4  A    between atoms: C_10  and  N_11
REMARK    5  A    between atoms: C_12  and  C_14
REMARK    6  A    between atoms: C_18  and  S_20
REMARK    7  A    between atoms: S_20  and  N_23
REMARK                            x       y       z     vdW  Elec       q    Type
REMARK                         _______ _______ _______ _____ _____    ______ ____
ROOT
ATOM      1  C   UNL     1      -3.232  -3.625   2.147  0.00  0.00    +0.039 A 
ATOM      2  C   UNL     1      -4.192  -2.968   1.374  0.00  0.00    +0.014 A 
ATOM      3  C   UNL     1      -5.512  -2.970   1.771  0.00  0.00    +0.023 A 
ATOM      4  C   UNL     1      -5.887  -3.621   2.935  0.00  0.00    +0.068 A 
ATOM      5  C   UNL     1      -4.940  -4.274   3.706  0.00  0.00    +0.128 A 
ATOM      6  C   UNL     1      -3.617  -4.284   3.316  0.00  0.00    +0.043 A 
ATOM      7 CL   UNL     1      -7.551  -3.619   3.429  0.00  0.00    -0.082 Cl
ENDROOT
BRANCH   1   9
ATOM      8  N   UNL     1      -1.447  -2.990   0.597  0.00  0.00    -0.307 N 
ATOM      9  C   UNL     1      -1.815  -3.627   1.726  0.00  0.00    +0.244 C 
ATOM     10  O   UNL     1      -0.983  -4.204   2.398  0.00  0.00    -0.270 OA
ATOM     11  H   UNL     1      -2.111  -2.529   0.061  0.00  0.00    +0.149 HD
BRANCH   8  12
ATOM     12  C   UNL     1      -0.042  -2.992   0.180  0.00  0.00    +0.143 C 
BRANCH  12  17
ATOM     13  C   UNL     1      -1.291   0.205   0.654  0.00  0.00    +0.130 C 
ATOM     14  N   UNL     1       0.028  -0.148   0.123  0.00  0.00    -0.323 N 
ATOM     15  C   UNL     1       1.238   0.213   0.866  0.00  0.00    +0.130 C 
ATOM     16  C   UNL     1       0.132  -0.825  -1.087  0.00  0.00    +0.103 A 
ATOM     17  C   UNL     1       0.102  -2.216  -1.103  0.00  0.00    +0.008 A 
ATOM     18  C   UNL     1       0.206  -2.876  -2.314  0.00  0.00    +0.010 A 
ATOM     19  C   UNL     1       0.338  -2.121  -3.472  0.00  0.00    +0.018 A 
ATOM     20  C   UNL     1       0.360  -0.744  -3.382  0.00  0.00    +0.084 A 
ATOM     21  N   UNL     1       0.254  -0.140  -2.213  0.00  0.00    -0.349 N 
ATOM     22  H   UNL     1       0.269   0.830  -2.179  0.00  0.00    +0.167 HD
ENDBRANCH  12  17
ENDBRANCH   8  12
ENDBRANCH   1   9
BRANCH   5  23
ATOM     23  S   UNL     1      -5.426  -5.100   5.184  0.00  0.00    +0.076 S 
ATOM     24  O   UNL     1      -6.597  -5.841   4.869  0.00  0.00    -0.150 OA
ATOM     25  O   UNL     1      -4.257  -5.711   5.712  0.00  0.00    -0.150 OA
BRANCH  23  26
ATOM     26  N   UNL     1      -5.882  -3.934   6.269  0.00  0.00    -0.202 N 
ATOM     27  C   UNL     1      -7.264  -3.512   6.516  0.00  0.00    +0.136 C 
ATOM     28  C   UNL     1      -7.164  -2.421   7.594  0.00  0.00    +0.058 C 
ATOM     29  C   UNL     1      -5.684  -2.306   7.883  0.00  0.00    -0.023 A 
ATOM     30  C   UNL     1      -5.008  -3.215   7.085  0.00  0.00    +0.054 A 
ATOM     31  C   UNL     1      -3.617  -3.298   7.180  0.00  0.00    +0.025 A 
ATOM     32  C   UNL     1      -2.932  -2.488   8.061  0.00  0.00    +0.002 A 
ATOM     33  C   UNL     1      -3.616  -1.588   8.856  0.00  0.00    +0.000 A 
ATOM     34  C   UNL     1      -4.993  -1.494   8.761  0.00  0.00    +0.005 A 
ENDBRANCH  23  26
ENDBRANCH   5  23
TORSDOF 5
