REMARK  Name = ZINC64892583
REMARK  9 active torsions:
REMARK  status: ('A' for Active; 'I' for Inactive)
REMARK    1  A    between atoms: C_1  and  C_2
REMARK    2  A    between atoms: C_5  and  C_34
REMARK    3  A    between atoms: C_6  and  N_8
REMARK    4  A    between atoms: C_20  and  C_21
REMARK    5  A    between atoms: C_20  and  C_22
REMARK    6  A    between atoms: N_24  and  C_25
REMARK    7  A    between atoms: C_25  and  C_26
REMARK    8  A    between atoms: C_31  and  O_32
REMARK    9  A    between atoms: O_32  and  C_33
REMARK                            x       y       z     vdW  Elec       q    Type
REMARK                         _______ _______ _______ _____ _____    ______ ____
ROOT
ATOM      1  N   UNL     1       0.077  -2.822   2.423  0.00  0.00    -0.250 N 
ATOM      2  C   UNL     1       1.244  -3.248   2.960  0.00  0.00    +0.268 C 
ATOM      3  O   UNL     1       2.320  -2.864   2.541  0.00  0.00    -0.268 OA
ATOM      4  C   UNL     1       1.144  -4.199   4.075  0.00  0.00    +0.106 A 
ATOM      5  C   UNL     1       2.090  -4.660   4.918  0.00  0.00    +0.041 A 
ATOM      6  C   UNL     1       1.463  -5.556   5.838  0.00  0.00    +0.008 A 
ATOM      7  C   UNL     1       1.813  -6.392   6.978  0.00  0.00    +0.017 A 
ATOM      8  C   UNL     1       0.855  -7.109   7.580  0.00  0.00    +0.048 A 
ATOM      9  S   UNL     1      -0.608  -6.707   6.645  0.00  0.00    -0.079 S 
ATOM     10  C   UNL     1       0.111  -5.587   5.470  0.00  0.00    +0.088 A 
ATOM     11  N   UNL     1      -0.081  -4.781   4.408  0.00  0.00    -0.328 N 
ATOM     12  C   UNL     1      -1.299  -4.494   3.642  0.00  0.00    +0.158 C 
ATOM     13  C   UNL     1      -1.207  -3.078   3.066  0.00  0.00    +0.133 C 
ATOM     14  C   UNL     1      -2.322  -2.888   2.037  0.00  0.00    +0.044 C 
ENDROOT
BRANCH   1  20
ATOM     15  C   UNL     1       0.547   1.453   0.043  0.00  0.00    +0.044 C 
ATOM     16  C   UNL     1       0.329  -0.038   0.036  0.00  0.00    -0.049 A 
ATOM     17  C   UNL     1       0.155  -0.705  -1.163  0.00  0.00    +0.004 A 
ATOM     18  C   UNL     1      -0.045  -2.073  -1.174  0.00  0.00    +0.005 A 
ATOM     19  C   UNL     1      -0.071  -2.778   0.014  0.00  0.00    -0.029 A 
ATOM     20  C   UNL     1       0.103  -2.111   1.219  0.00  0.00    +0.041 A 
ATOM     21  C   UNL     1       0.309  -0.738   1.226  0.00  0.00    +0.027 A 
ATOM     22  C   UNL     1      -0.290  -4.269   0.001  0.00  0.00    +0.045 C 
ENDBRANCH   1  20
BRANCH  13  23
ATOM     23  C   UNL     1      -1.401  -2.081   4.180  0.00  0.00    +0.239 C 
ATOM     24  O   UNL     1      -1.864  -2.440   5.241  0.00  0.00    -0.273 OA
ATOM     25  N   UNL     1      -1.059  -0.790   3.995  0.00  0.00    -0.309 N 
ATOM     26  H   UNL     1      -0.760  -0.487   3.124  0.00  0.00    +0.149 HD
BRANCH  25  27
ATOM     27  C   UNL     1      -1.139   0.155   5.112  0.00  0.00    +0.143 C 
BRANCH  27  28
ATOM     28  C   UNL     1      -0.706   1.521   4.645  0.00  0.00    +0.011 A 
ATOM     29  C   UNL     1       0.574   1.969   4.911  0.00  0.00    +0.009 A 
ATOM     30  C   UNL     1       0.972   3.222   4.484  0.00  0.00    +0.001 A 
ATOM     31  C   UNL     1       0.091   4.030   3.789  0.00  0.00    +0.004 A 
ATOM     32  C   UNL     1      -1.190   3.588   3.521  0.00  0.00    +0.046 A 
ATOM     33  C   UNL     1      -1.590   2.328   3.944  0.00  0.00    +0.125 A 
BRANCH  33  34
ATOM     34  O   UNL     1      -2.847   1.888   3.677  0.00  0.00    -0.495 OA
ATOM     35  C   UNL     1      -3.703   2.772   2.950  0.00  0.00    +0.277 C 
ENDBRANCH  33  34
ENDBRANCH  27  28
ENDBRANCH  25  27
ENDBRANCH  13  23
TORSDOF 5
