REMARK  Name = ZINC13122560
REMARK  6 active torsions:
REMARK  status: ('A' for Active; 'I' for Inactive)
REMARK    1  A    between atoms: C_4  and  C_7
REMARK    2  A    between atoms: C_11  and  C_22
REMARK    3  A    between atoms: C_12  and  O_21
REMARK    4  A    between atoms: C_16  and  N_20
REMARK    5  A    between atoms: C_17  and  C_18
REMARK    6  A    between atoms: N_23  and  C_24
REMARK                            x       y       z     vdW  Elec       q    Type
REMARK                         _______ _______ _______ _____ _____    ______ ____
ROOT
ATOM      1  C   UNL     1       3.711  -0.707  -0.038  0.00  0.00    +0.098 C 
ATOM      2  C   UNL     1       3.790  -1.559  -1.277  0.00  0.00    +0.008 A 
ATOM      3  C   UNL     1       4.063  -0.963  -2.490  0.00  0.00    +0.021 A 
ATOM      4  C   UNL     1       4.140  -1.737  -3.651  0.00  0.00    +0.035 A 
ATOM      5  C   UNL     1       3.938  -3.126  -3.575  0.00  0.00    +0.129 A 
ATOM      6  C   UNL     1       3.665  -3.711  -2.353  0.00  0.00    +0.092 A 
ATOM      7  C   UNL     1       3.590  -2.933  -1.203  0.00  0.00    +0.138 A 
ATOM      8  O   UNL     1       3.320  -3.531  -0.017  0.00  0.00    -0.441 OA
ATOM      9  C   UNL     1       3.619  -2.905   1.133  0.00  0.00    +0.199 C 
ATOM     10  C   UNL     1       3.816  -1.569   1.189  0.00  0.00    +0.098 C 
ENDROOT
BRANCH   1  14
ATOM     11  C   UNL     1      -0.017   1.378   0.010  0.00  0.00    +0.000 A 
ATOM     12  C   UNL     1       1.171   2.086   0.002  0.00  0.00    +0.000 A 
ATOM     13  C   UNL     1       2.377   1.411  -0.013  0.00  0.00    +0.004 A 
ATOM     14  C   UNL     1       2.396   0.029  -0.020  0.00  0.00    -0.035 A 
ATOM     15  C   UNL     1       1.208  -0.679  -0.012  0.00  0.00    +0.004 A 
ATOM     16  C   UNL     1       0.002  -0.004   0.002  0.00  0.00    +0.000 A 
ENDBRANCH   1  14
BRANCH   9  17
ATOM     17  N   UNL     1       3.727  -3.644   2.284  0.00  0.00    -0.328 N 
ATOM     18  H   UNL     1       3.587  -4.604   2.260  0.00  0.00    +0.145 HD
ATOM     19  H   UNL     1       3.942  -3.207   3.123  0.00  0.00    +0.145 HD
ENDBRANCH   9  17
BRANCH  10  20
ATOM     20  C   UNL     1       4.131  -0.963   2.447  0.00  0.00    +0.101 C 
ATOM     21  N   UNL     1       4.381  -0.483   3.446  0.00  0.00    -0.191 NA
ENDBRANCH  10  20
BRANCH   5  22
ATOM     22  O   UNL     1       4.010  -3.888  -4.695  0.00  0.00    -0.506 OA
ATOM     23  H   UNL     1       4.895  -4.227  -4.884  0.00  0.00    +0.292 HD
ENDBRANCH   5  22
BRANCH   4  24
ATOM     24  C   UNL     1       4.429  -1.103  -4.944  0.00  0.00    +0.123 C 
ATOM     25  N   UNL     1       4.500  -1.830  -6.026  0.00  0.00    -0.255 NA
BRANCH  25  26
ATOM     26  C   UNL     1       4.770  -1.239  -7.230  0.00  0.00    +0.064 A 
ATOM     27  C   UNL     1       4.120  -0.057  -7.593  0.00  0.00    +0.028 A 
ATOM     28  C   UNL     1       4.398   0.533  -8.809  0.00  0.00    +0.002 A 
ATOM     29  C   UNL     1       5.317  -0.043  -9.667  0.00  0.00    +0.000 A 
ATOM     30  C   UNL     1       5.964  -1.214  -9.314  0.00  0.00    +0.002 A 
ATOM     31  C   UNL     1       5.701  -1.812  -8.100  0.00  0.00    +0.028 A 
ENDBRANCH  25  26
ENDBRANCH   4  24
TORSDOF 6
