REMARK  Name = ZINC10750256
REMARK  10 active torsions:
REMARK  status: ('A' for Active; 'I' for Inactive)
REMARK    1  A    between atoms: C_1  and  C_2
REMARK    2  A    between atoms: C_5  and  C_29
REMARK    3  A    between atoms: C_6  and  S_9
REMARK    4  A    between atoms: S_9  and  N_12
REMARK    5  A    between atoms: N_12  and  C_13
REMARK    6  A    between atoms: C_13  and  C_15
REMARK    7  A    between atoms: C_13  and  C_23
REMARK    8  A    between atoms: C_18  and  O_21
REMARK    9  A    between atoms: O_21  and  C_22
REMARK   10  A    between atoms: N_27  and  C_28
REMARK                            x       y       z     vdW  Elec       q    Type
REMARK                         _______ _______ _______ _____ _____    ______ ____
ROOT
ATOM      1  N   UNL     1      -3.672  -0.149   0.104  0.00  0.00    -0.175 NA
ATOM      2  H   UNL     1      -2.875  -0.700   0.057  0.00  0.00    +0.149 HD
ENDROOT
BRANCH   1   3
ATOM      3  S   UNL     1      -3.764   1.249  -0.779  0.00  0.00    +0.061 S 
ATOM      4  O   UNL     1      -4.986   1.192  -1.503  0.00  0.00    -0.153 OA
ATOM      5  O   UNL     1      -2.506   1.409  -1.420  0.00  0.00    -0.153 OA
BRANCH   3  11
ATOM      6  C   UNL     1      -1.674   4.846   2.389  0.00  0.00    +0.045 C 
ATOM      7  C   UNL     1      -2.907   4.209   1.803  0.00  0.00    -0.029 A 
ATOM      8  C   UNL     1      -4.160   4.664   2.168  0.00  0.00    +0.025 A 
ATOM      9  C   UNL     1      -5.293   4.079   1.630  0.00  0.00    +0.046 A 
ATOM     10  C   UNL     1      -5.171   3.038   0.727  0.00  0.00    -0.004 A 
ATOM     11  C   UNL     1      -3.919   2.579   0.366  0.00  0.00    +0.128 A 
ATOM     12  C   UNL     1      -2.786   3.168   0.899  0.00  0.00    +0.070 A 
ATOM     13 CL   UNL     1      -1.212   2.597   0.440  0.00  0.00    -0.081 Cl
ATOM     14  C   UNL     1      -6.405   2.400   0.142  0.00  0.00    +0.047 C 
ATOM     15 CL   UNL     1      -6.866   4.651   2.089  0.00  0.00    -0.083 Cl
ENDBRANCH   3  11
ENDBRANCH   1   3
BRANCH   1  16
ATOM     16  C   UNL     1      -4.794  -0.553   0.955  0.00  0.00    +0.172 C 
BRANCH  16  17
ATOM     17  C   UNL     1      -5.648  -1.552   0.219  0.00  0.00    -0.021 A 
ATOM     18  C   UNL     1      -5.054  -2.528  -0.559  0.00  0.00    +0.009 A 
ATOM     19  C   UNL     1      -5.835  -3.449  -1.230  0.00  0.00    +0.046 A 
ATOM     20  C   UNL     1      -7.217  -3.387  -1.132  0.00  0.00    +0.120 A 
ATOM     21  C   UNL     1      -7.811  -2.404  -0.355  0.00  0.00    +0.046 A 
ATOM     22  C   UNL     1      -7.026  -1.489   0.319  0.00  0.00    +0.009 A 
BRANCH  20  23
ATOM     23  O   UNL     1      -7.988  -4.288  -1.796  0.00  0.00    -0.495 OA
ATOM     24  C   UNL     1      -7.308  -5.273  -2.577  0.00  0.00    +0.277 C 
ENDBRANCH  20  23
ENDBRANCH  16  17
BRANCH  16  25
ATOM     25  C   UNL     1      -4.264  -1.179   2.220  0.00  0.00    +0.133 A 
ATOM     26  N   UNL     1      -3.264  -2.013   2.294  0.00  0.00    -0.239 NA
ATOM     27  C   UNL     1      -3.074  -2.363   3.575  0.00  0.00    +0.130 A 
ATOM     28  C   UNL     1      -3.991  -1.720   4.323  0.00  0.00    +0.106 A 
ATOM     29  N   UNL     1      -4.743  -0.964   3.464  0.00  0.00    -0.336 N 
ATOM     30  C   UNL     1      -5.861  -0.089   3.827  0.00  0.00    +0.150 C 
ENDBRANCH  16  25
ENDBRANCH   1  16
TORSDOF 6
