REMARK  Name = ZINC09065610
REMARK  16 active torsions:
REMARK  status: ('A' for Active; 'I' for Inactive)
REMARK    1  A    between atoms: C_1  and  C_2
REMARK    2  A    between atoms: C_2  and  C_3
REMARK    3  A    between atoms: C_3  and  O_4
REMARK    4  A    between atoms: O_4  and  C_5
REMARK    5  A    between atoms: C_8  and  C_13
REMARK    6  A    between atoms: C_10  and  O_11
REMARK    7  A    between atoms: O_11  and  C_12
REMARK    8  A    between atoms: C_16  and  C_17
REMARK    9  A    between atoms: C_16  and  O_24
REMARK   10  A    between atoms: C_20  and  C_23
REMARK   11  A    between atoms: N_29  and  C_30
REMARK   12  A    between atoms: C_30  and  C_31
REMARK   13  A    between atoms: C_31  and  C_32
REMARK   14  A    between atoms: C_32  and  N_68
REMARK   15  A    between atoms: C_33  and  N_68
REMARK   16  A    between atoms: C_34  and  N_68
REMARK                            x       y       z     vdW  Elec       q    Type
REMARK                         _______ _______ _______ _____ _____    ______ ____
ROOT
ATOM      1  C   UNL     1       0.009   1.466  -0.338  0.00  0.00    +0.145 C 
ATOM      2  C   UNL     1       1.440   1.952  -0.332  0.00  0.00    +0.071 C 
ATOM      3  C   UNL     1       1.885   3.215   0.001  0.00  0.00    +0.133 C 
ATOM      4  C   UNL     1       2.225   0.859  -0.733  0.00  0.00    +0.249 C 
ATOM      5  O   UNL     1       3.437   0.855  -0.851  0.00  0.00    -0.282 OA
ATOM      6  C   UNL     1       1.319  -0.294  -0.989  0.00  0.00    +0.288 C 
ATOM      7  O   UNL     1       1.679  -1.395  -1.351  0.00  0.00    -0.266 OA
ATOM      8  N   UNL     1       0.044   0.062  -0.760  0.00  0.00    -0.284 N 
ENDROOT
BRANCH   3   9
ATOM      9  C   UNL     1       3.330   3.484   0.100  0.00  0.00    +0.017 A 
ATOM     10  C   UNL     1       4.147   2.659   0.880  0.00  0.00    +0.012 A 
ATOM     11  C   UNL     1       5.499   2.915   0.963  0.00  0.00    +0.004 A 
ATOM     12  C   UNL     1       6.047   3.991   0.286  0.00  0.00    -0.050 A 
ATOM     13  C   UNL     1       5.244   4.815  -0.483  0.00  0.00    +0.004 A 
ATOM     14  C   UNL     1       3.891   4.569  -0.581  0.00  0.00    +0.012 A 
ATOM     15  C   UNL     1       7.525   4.267   0.388  0.00  0.00    +0.044 C 
ENDBRANCH   3   9
BRANCH   1  19
ATOM     16  C   UNL     1      -1.658   1.770   3.588  0.00  0.00    +0.162 A 
ATOM     17  C   UNL     1      -0.790   0.735   3.279  0.00  0.00    +0.050 A 
ATOM     18  C   UNL     1      -0.257   0.636   2.007  0.00  0.00    +0.009 A 
ATOM     19  C   UNL     1      -0.580   1.575   1.045  0.00  0.00    -0.019 A 
ATOM     20  C   UNL     1      -1.445   2.610   1.347  0.00  0.00    +0.055 A 
ATOM     21  C   UNL     1      -1.987   2.711   2.618  0.00  0.00    +0.162 A 
BRANCH  21  22
ATOM     22  O   UNL     1      -2.838   3.729   2.917  0.00  0.00    -0.491 OA
ATOM     23  C   UNL     1      -3.130   4.658   1.871  0.00  0.00    +0.277 C 
ENDBRANCH  21  22
BRANCH  16  24
ATOM     24  O   UNL     1      -2.187   1.865   4.837  0.00  0.00    -0.488 OA
BRANCH  24  25
ATOM     25  C   UNL     1      -1.805   0.863   5.782  0.00  0.00    +0.229 C 
BRANCH  25  27
ATOM     26  C   UNL     1      -2.086   0.062   8.132  0.00  0.00    +0.007 C 
ATOM     27  C   UNL     1      -2.496   1.134   7.120  0.00  0.00    +0.038 C 
ENDBRANCH  25  27
ENDBRANCH  24  25
ENDBRANCH  16  24
ENDBRANCH   1  19
BRANCH   3  28
ATOM     28  O   UNL     1       0.996   4.203   0.236  0.00  0.00    -0.506 OA
ATOM     29  H   UNL     1       1.486   5.045   0.462  0.00  0.00    +0.292 HD
ENDBRANCH   3  28
BRANCH   8  30
ATOM     30  C   UNL     1      -1.123  -0.811  -0.907  0.00  0.00    +0.107 C 
BRANCH  30  31
ATOM     31  C   UNL     1      -1.663  -0.705  -2.334  0.00  0.00    +0.000 C 
BRANCH  31  32
ATOM     32  C   UNL     1      -2.882  -1.618  -2.487  0.00  0.00    -0.078 C 
BRANCH  32  35
ATOM     33  C   UNL     1      -2.436  -2.055  -4.827  0.00  0.00    -0.097 C 
ATOM     34  C   UNL     1      -4.701  -2.188  -3.980  0.00  0.00    -0.097 C 
ATOM     35  N   UNL     1      -3.404  -1.488  -3.864  0.00  0.00    +0.376 N 
ATOM     36  H   UNL     1      -3.542  -0.493  -4.076  0.00  0.00    -0.083 HD
ENDBRANCH  32  35
ENDBRANCH  31  32
ENDBRANCH  30  31
ENDBRANCH   8  30
TORSDOF 11
