REMARK  Name = ZINC02876324
REMARK  11 active torsions:
REMARK  status: ('A' for Active; 'I' for Inactive)
REMARK    1  A    between atoms: C_1  and  C_2
REMARK    2  A    between atoms: C_4  and  C_33
REMARK    3  A    between atoms: C_6  and  N_8
REMARK    4  A    between atoms: N_8  and  C_9
REMARK    5  A    between atoms: N_8  and  S_29
REMARK    6  A    between atoms: C_9  and  C_11
REMARK    7  A    between atoms: C_9  and  C_12
REMARK    8  A    between atoms: N_14  and  C_15
REMARK    9  A    between atoms: C_20  and  O_21
REMARK   10  A    between atoms: O_21  and  C_22
REMARK   11  A    between atoms: S_29  and  C_32
REMARK                            x       y       z     vdW  Elec       q    Type
REMARK                         _______ _______ _______ _____ _____    ______ ____
ROOT
ATOM      1  C   UNL     1      -1.666   1.008   1.738  0.00  0.00    +0.239 C 
ATOM      2  O   UNL     1      -0.916   0.158   2.167  0.00  0.00    -0.273 OA
ATOM      3  N   UNL     1      -2.579   1.575   2.553  0.00  0.00    -0.281 N 
ATOM      4  H   UNL     1      -3.233   2.194   2.192  0.00  0.00    +0.155 HD
ENDROOT
BRANCH   3   5
ATOM      5  C   UNL     1      -2.582   1.270   3.920  0.00  0.00    +0.078 A 
ATOM      6  C   UNL     1      -1.443   0.753   4.520  0.00  0.00    +0.047 A 
ATOM      7  C   UNL     1      -1.449   0.453   5.870  0.00  0.00    +0.043 A 
ATOM      8  C   UNL     1      -2.589   0.667   6.625  0.00  0.00    +0.024 A 
ATOM      9  C   UNL     1      -3.727   1.182   6.033  0.00  0.00    +0.049 A 
ATOM     10  C   UNL     1      -3.727   1.491   4.682  0.00  0.00    +0.150 A 
ATOM     11 CL   UNL     1      -0.023  -0.195   6.620  0.00  0.00    -0.083 Cl
BRANCH  10  12
ATOM     12  O   UNL     1      -4.844   2.003   4.100  0.00  0.00    -0.454 OA
BRANCH  12  13
ATOM     13  C   UNL     1      -5.703   1.140   3.497  0.00  0.00    +0.129 A 
ATOM     14  C   UNL     1      -5.484  -0.228   3.578  0.00  0.00    +0.046 A 
ATOM     15  C   UNL     1      -6.361  -1.104   2.968  0.00  0.00    +0.004 A 
ATOM     16  C   UNL     1      -7.450  -0.619   2.269  0.00  0.00    +0.000 A 
ATOM     17  C   UNL     1      -7.668   0.744   2.182  0.00  0.00    +0.004 A 
ATOM     18  C   UNL     1      -6.797   1.624   2.795  0.00  0.00    +0.046 A 
ENDBRANCH  12  13
ENDBRANCH  10  12
ENDBRANCH   3   5
BRANCH   1  19
ATOM     19  C   UNL     1      -1.579   1.431   0.295  0.00  0.00    +0.180 C 
ATOM     20  C   UNL     1      -2.915   1.157  -0.399  0.00  0.00    +0.040 C 
BRANCH  19  21
ATOM     21  N   UNL     1      -0.518   0.674  -0.373  0.00  0.00    -0.196 N 
BRANCH  21  27
ATOM     22  C   UNL     1       1.244  -3.702   1.006  0.00  0.00    +0.044 C 
ATOM     23  C   UNL     1       0.258  -2.867   0.230  0.00  0.00    -0.048 A 
ATOM     24  C   UNL     1      -0.713  -3.482  -0.539  0.00  0.00    +0.006 A 
ATOM     25  C   UNL     1      -1.620  -2.719  -1.253  0.00  0.00    -0.048 A 
ATOM     26  C   UNL     1      -1.558  -1.341  -1.200  0.00  0.00    +0.028 A 
ATOM     27  C   UNL     1      -0.583  -0.720  -0.428  0.00  0.00    +0.052 A 
ATOM     28  C   UNL     1       0.329  -1.489   0.283  0.00  0.00    +0.028 A 
ATOM     29  C   UNL     1      -2.677  -3.394  -2.089  0.00  0.00    +0.044 C 
ENDBRANCH  21  27
BRANCH  21  30
ATOM     30  S   UNL     1       0.757   1.471  -1.068  0.00  0.00    +0.043 S 
ATOM     31  O   UNL     1       0.944   2.627  -0.262  0.00  0.00    -0.155 OA
ATOM     32  O   UNL     1       1.780   0.492  -1.179  0.00  0.00    -0.155 OA
ATOM     33  C   UNL     1       0.166   1.947  -2.716  0.00  0.00    +0.218 C 
ENDBRANCH  21  30
ENDBRANCH  19  21
ENDBRANCH   1  19
TORSDOF 7
