REMARK  Name = ZINC39294493
REMARK  3 active torsions:
REMARK  status: ('A' for Active; 'I' for Inactive)
REMARK    1  A    between atoms: C_5  and  C_6
REMARK    2  A    between atoms: C_7  and  C_8
REMARK    3  A    between atoms: C_7  and  C_11
REMARK                            x       y       z     vdW  Elec       q    Type
REMARK                         _______ _______ _______ _____ _____    ______ ____
ROOT
ATOM      1  C   UNL     1      -1.183  -0.763   0.059  0.00  0.00    +0.032 C 
ATOM      2  C   UNL     1      -2.417  -0.127   0.130  0.00  0.00    +0.152 C 
ENDROOT
BRANCH   1   7
ATOM      3  C   UNL     1       0.159   0.993   1.221  0.00  0.00    +0.017 A 
ATOM      4  C   UNL     1       1.341   1.634   1.241  0.00  0.00    +0.047 A 
ATOM      5  S   UNL     1       2.236   0.891  -0.105  0.00  0.00    -0.085 S 
ATOM      6  C   UNL     1       1.091  -0.207  -0.653  0.00  0.00    +0.085 A 
ATOM      7  C   UNL     1       0.005  -0.015   0.194  0.00  0.00    +0.001 A 
ATOM      8 CL   UNL     1       1.231  -1.325  -1.974  0.00  0.00    -0.075 Cl
ENDBRANCH   1   7
BRANCH   2   9
ATOM      9  C   UNL     1      -2.487   1.335   0.139  0.00  0.00    +0.394 C 
ATOM     10  O   UNL     1      -1.475   1.998  -0.051  0.00  0.00    -0.240 OA
ATOM     11  O   UNL     1      -3.558   1.896   0.337  0.00  0.00    -0.240 OA
ENDBRANCH   2   9
BRANCH   2  12
ATOM     12  C   UNL     1      -3.646  -0.919   0.197  0.00  0.00    +0.394 C 
ATOM     13  O   UNL     1      -3.587  -2.142   0.189  0.00  0.00    -0.240 OA
ATOM     14  O   UNL     1      -4.733  -0.359   0.259  0.00  0.00    -0.240 OA
ENDBRANCH   2  12
TORSDOF 3
