REMARK  Name = ZINC18198337
REMARK  6 active torsions:
REMARK  status: ('A' for Active; 'I' for Inactive)
REMARK    1  A    between atoms: C_1  and  C_2
REMARK    2  A    between atoms: C_11  and  C_13
REMARK    3  A    between atoms: C_16  and  O_20
REMARK    4  A    between atoms: C_17  and  O_19
REMARK    5  A    between atoms: O_20  and  C_21
REMARK    6  A    between atoms: C_25  and  C_28
REMARK                            x       y       z     vdW  Elec       q    Type
REMARK                         _______ _______ _______ _____ _____    ______ ____
ROOT
ATOM      1  C   UNL     1      -4.315   2.942   0.884  0.00  0.00    +0.068 C 
ATOM      2  C   UNL     1      -3.754   1.552   0.731  0.00  0.00    +0.066 A 
ATOM      3  C   UNL     1      -2.454   1.236   0.361  0.00  0.00    +0.027 A 
ATOM      4  C   UNL     1      -2.344  -0.130   0.340  0.00  0.00    +0.122 A 
ATOM      5  N   UNL     1      -3.541  -0.643   0.681  0.00  0.00    -0.263 N 
ATOM      6  H   UNL     1      -3.769  -1.614   0.750  0.00  0.00    +0.190 HD
ATOM      7  N   UNL     1      -4.411   0.432   0.924  0.00  0.00    -0.177 NA
ATOM      8  N   UNL     1      -1.147  -0.754   0.008  0.00  0.00    -0.303 N 
ATOM      9  C   UNL     1       0.002  -0.004   0.002  0.00  0.00    +0.017 C 
ATOM     10  C   UNL     1      -0.016   1.346   0.009  0.00  0.00    +0.024 C 
ATOM     11  C   UNL     1      -1.304   2.141   0.020  0.00  0.00    +0.089 C 
ATOM     12  C   UNL     1       1.181   2.084   0.002  0.00  0.00    +0.162 C 
ATOM     13  O   UNL     1       1.131   3.298   0.022  0.00  0.00    -0.292 OA
ATOM     14  C   UNL     1       2.522   1.405  -0.030  0.00  0.00    +0.088 C 
ATOM     15  C   UNL     1       2.375   0.055  -0.741  0.00  0.00    +0.039 C 
ATOM     16  C   UNL     1       1.310  -0.761  -0.007  0.00  0.00    +0.060 C 
ATOM     17  H   UNL     1      -1.125  -1.698  -0.214  0.00  0.00    +0.153 HD
ENDROOT
BRANCH  11  18
ATOM     18  C   UNL     1      -1.528   2.751  -1.340  0.00  0.00    -0.032 A 
ATOM     19  C   UNL     1      -1.646   1.936  -2.451  0.00  0.00    +0.008 A 
ATOM     20  C   UNL     1      -1.851   2.490  -3.700  0.00  0.00    +0.050 A 
ATOM     21  C   UNL     1      -1.940   3.866  -3.842  0.00  0.00    +0.161 A 
ATOM     22  C   UNL     1      -1.821   4.686  -2.724  0.00  0.00    +0.159 A 
ATOM     23  C   UNL     1      -1.621   4.124  -1.474  0.00  0.00    +0.053 A 
BRANCH  22  24
ATOM     24  O   UNL     1      -1.907   6.037  -2.858  0.00  0.00    -0.503 OA
ATOM     25  H   UNL     1      -2.805   6.384  -2.773  0.00  0.00    +0.292 HD
ENDBRANCH  22  24
BRANCH  21  26
ATOM     26  O   UNL     1      -2.141   4.413  -5.071  0.00  0.00    -0.491 OA
ATOM     27  C   UNL     1      -2.253   3.510  -6.172  0.00  0.00    +0.277 C 
ENDBRANCH  21  26
ENDBRANCH  11  18
BRANCH  15  28
ATOM     28  C   UNL     1       3.690  -0.680  -0.710  0.00  0.00    -0.006 A 
ATOM     29  C   UNL     1       4.441  -1.131  -1.744  0.00  0.00    +0.011 A 
ATOM     30  C   UNL     1       5.629  -1.784  -1.476  0.00  0.00    +0.008 A 
ATOM     31  C   UNL     1       6.003  -1.965  -0.185  0.00  0.00    +0.045 A 
ATOM     32  S   UNL     1       4.660  -1.192   0.700  0.00  0.00    -0.101 S 
ENDBRANCH  15  28
TORSDOF 4
