REMARK  Name = ZINC26228418
REMARK  8 active torsions:
REMARK  status: ('A' for Active; 'I' for Inactive)
REMARK    1  A    between atoms: C_1  and  C_2
REMARK    2  A    between atoms: C_2  and  C_4
REMARK    3  A    between atoms: C_2  and  N_14
REMARK    4  A    between atoms: C_15  and  C_17
REMARK    5  A    between atoms: C_17  and  N_18
REMARK    6  A    between atoms: N_21  and  S_24
REMARK    7  A    between atoms: S_24  and  C_27
REMARK    8  A    between atoms: C_32  and  N_33
REMARK                            x       y       z     vdW  Elec       q    Type
REMARK                         _______ _______ _______ _____ _____    ______ ____
ROOT
ATOM      1  N   UNL     1      -1.543   2.546   3.612  0.00  0.00    +0.387 N 
ATOM      2  C   UNL     1      -0.972   2.905   2.308  0.00  0.00    -0.061 C 
ATOM      3  C   UNL     1      -2.030   2.704   1.218  0.00  0.00    +0.091 C 
ATOM      4  N   UNL     1      -2.546   1.330   1.314  0.00  0.00    -0.180 NA
ATOM      5  C   UNL     1      -3.015   0.853   2.624  0.00  0.00    +0.091 C 
ATOM      6  C   UNL     1      -1.913   1.125   3.660  0.00  0.00    -0.061 C 
ATOM      7  H   UNL     1      -2.462   3.135   3.749  0.00  0.00    -0.081 HD
ENDROOT
BRANCH   4   8
ATOM      8  S   UNL     1      -2.602   0.348  -0.018  0.00  0.00    +0.063 S 
ATOM      9  O   UNL     1      -2.797   1.197  -1.140  0.00  0.00    -0.153 OA
ATOM     10  O   UNL     1      -3.492  -0.714   0.298  0.00  0.00    -0.153 OA
BRANCH   8  11
ATOM     11  C   UNL     1      -1.004  -0.372  -0.202  0.00  0.00    +0.136 A 
ATOM     12  C   UNL     1      -0.077  -0.267   0.818  0.00  0.00    +0.031 A 
ATOM     13  C   UNL     1       1.176  -0.832   0.674  0.00  0.00    +0.002 A 
ATOM     14  C   UNL     1       1.502  -1.502  -0.491  0.00  0.00    +0.002 A 
ATOM     15  C   UNL     1       0.573  -1.612  -1.508  0.00  0.00    +0.035 A 
ATOM     16  C   UNL     1      -0.678  -1.042  -1.366  0.00  0.00    +0.152 A 
BRANCH  16  17
ATOM     17  N   UNL     1      -1.672  -1.155  -2.458  0.00  0.00    +0.058 N 
ATOM     18  O   UNL     1      -1.350  -1.648  -3.524  0.00  0.00    -0.126 OA
ATOM     19  O   UNL     1      -2.811  -0.761  -2.288  0.00  0.00    -0.126 OA
ENDBRANCH  16  17
ENDBRANCH   8  11
ENDBRANCH   4   8
BRANCH   1  20
ATOM     20  C   UNL     1      -0.619   2.886   4.703  0.00  0.00    +0.019 C 
BRANCH  20  22
ATOM     21  N   UNL     1      -0.670   2.996   7.174  0.00  0.00    -0.310 N 
ATOM     22  C   UNL     1      -1.326   2.736   6.025  0.00  0.00    +0.197 C 
ATOM     23  O   UNL     1      -2.485   2.380   6.056  0.00  0.00    -0.278 OA
ATOM     24  H   UNL     1       0.381   3.318   7.146  0.00  0.00    +0.149 HD
BRANCH  21  26
ATOM     25  C   UNL     1      -2.124   4.135   8.777  0.00  0.00    +0.033 C 
ATOM     26  C   UNL     1      -1.357   2.850   8.459  0.00  0.00    +0.100 C 
BRANCH  26  27
ATOM     27  C   UNL     1      -0.344   2.588   9.543  0.00  0.00    -0.027 A 
ATOM     28  C   UNL     1       0.862   3.265   9.544  0.00  0.00    +0.006 A 
ATOM     29  C   UNL     1       1.785   3.018  10.539  0.00  0.00    +0.004 A 
ATOM     30  C   UNL     1       1.514   2.095  11.540  0.00  0.00    -0.044 A 
ATOM     31  C   UNL     1       0.311   1.425  11.543  0.00  0.00    -0.044 A 
ATOM     32  C   UNL     1      -0.619   1.677  10.542  0.00  0.00    +0.009 A 
ATOM     33  C   UNL     1      -0.054   0.419  12.602  0.00  0.00    +0.035 C 
ATOM     34  C   UNL     1       1.193  -0.055  13.346  0.00  0.00    +0.005 C 
ATOM     35  C   UNL     1       1.975   1.178  13.814  0.00  0.00    +0.005 C 
ATOM     36  C   UNL     1       2.572   1.864  12.587  0.00  0.00    +0.035 C 
ENDBRANCH  26  27
ENDBRANCH  21  26
ENDBRANCH  20  22
ENDBRANCH   1  20
TORSDOF 7
