REMARK  Name = ZINC14701385
REMARK  7 active torsions:
REMARK  status: ('A' for Active; 'I' for Inactive)
REMARK    1  A    between atoms: C_1  and  C_2
REMARK    2  A    between atoms: C_3  and  C_14
REMARK    3  A    between atoms: N_5  and  C_7
REMARK    4  A    between atoms: N_16  and  C_17
REMARK    5  A    between atoms: C_17  and  C_19
REMARK    6  A    between atoms: C_17  and  C_20
REMARK    7  A    between atoms: C_23  and  N_26
REMARK                            x       y       z     vdW  Elec       q    Type
REMARK                         _______ _______ _______ _____ _____    ______ ____
ROOT
ATOM      1  C   UNL     1       3.550   0.756  -0.029  0.00  0.00    +0.249 C 
ATOM      2  O   UNL     1       4.148   0.777  -1.088  0.00  0.00    -0.270 OA
ATOM      3  N   UNL     1       4.236   0.767   1.132  0.00  0.00    -0.305 N 
ATOM      4  H   UNL     1       3.760   0.750   1.976  0.00  0.00    +0.150 HD
ENDROOT
BRANCH   1   7
ATOM      5  C   UNL     1       1.631   3.283   0.004  0.00  0.00    +0.068 C 
ATOM      6  C   UNL     1       1.211   1.836   0.000  0.00  0.00    +0.074 A 
ATOM      7  C   UNL     1       2.078   0.720  -0.014  0.00  0.00    +0.096 A 
ATOM      8  C   UNL     1       1.285  -0.413  -0.012  0.00  0.00    +0.145 A 
ATOM      9  N   UNL     1       0.002  -0.004   0.002  0.00  0.00    -0.220 N 
ATOM     10  N   UNL     1      -0.017   1.395   0.010  0.00  0.00    -0.170 NA
ATOM     11 CL   UNL     1       1.840  -2.058  -0.026  0.00  0.00    -0.061 Cl
BRANCH   9  12
ATOM     12  C   UNL     1      -1.124  -0.839   0.009  0.00  0.00    +0.067 A 
ATOM     13  C   UNL     1      -1.105  -2.038  -0.691  0.00  0.00    +0.028 A 
ATOM     14  C   UNL     1      -2.214  -2.861  -0.678  0.00  0.00    +0.002 A 
ATOM     15  C   UNL     1      -3.346  -2.486   0.022  0.00  0.00    +0.000 A 
ATOM     16  C   UNL     1      -3.370  -1.290   0.716  0.00  0.00    +0.002 A 
ATOM     17  C   UNL     1      -2.262  -0.466   0.711  0.00  0.00    +0.028 A 
ENDBRANCH   9  12
ENDBRANCH   1   7
BRANCH   3  18
ATOM     18  C   UNL     1       5.700   0.803   1.117  0.00  0.00    +0.100 C 
ATOM     19  C   UNL     1       6.245  -0.620   0.978  0.00  0.00    +0.033 C 
BRANCH  18  20
ATOM     20  C   UNL     1       6.201   1.409   2.403  0.00  0.00    -0.027 A 
ATOM     21  C   UNL     1       5.581   1.097   3.599  0.00  0.00    +0.007 A 
ATOM     22  C   UNL     1       6.041   1.646   4.780  0.00  0.00    +0.028 A 
ATOM     23  C   UNL     1       7.119   2.521   4.764  0.00  0.00    +0.067 A 
ATOM     24  C   UNL     1       7.736   2.837   3.560  0.00  0.00    +0.028 A 
ATOM     25  C   UNL     1       7.275   2.279   2.383  0.00  0.00    +0.007 A 
BRANCH  23  26
ATOM     26  N   UNL     1       7.585   3.085   5.960  0.00  0.00    -0.220 N 
ATOM     27  C   UNL     1       7.089   2.880   7.196  0.00  0.00    +0.225 A 
ATOM     28  N   UNL     1       7.801   3.583   8.039  0.00  0.00    -0.222 NA
ATOM     29  C   UNL     1       8.748   4.253   7.383  0.00  0.00    +0.245 A 
ATOM     30  N   UNL     1       8.657   3.980   6.108  0.00  0.00    -0.154 NA
ENDBRANCH  23  26
ENDBRANCH  18  20
ENDBRANCH   3  18
TORSDOF 5
