REMARK  Name = ZINC20760411
REMARK  6 active torsions:
REMARK  status: ('A' for Active; 'I' for Inactive)
REMARK    1  A    between atoms: C_1  and  C_2
REMARK    2  A    between atoms: C_3  and  C_18
REMARK    3  A    between atoms: N_7  and  S_8
REMARK    4  A    between atoms: S_8  and  C_11
REMARK    5  A    between atoms: N_20  and  C_21
REMARK    6  A    between atoms: C_21  and  C_22
REMARK                            x       y       z     vdW  Elec       q    Type
REMARK                         _______ _______ _______ _____ _____    ______ ____
ROOT
ATOM      1  C   UNL     1       1.432   3.498   0.008  0.00  0.00    +0.054 C 
ATOM      2  C   UNL     1       1.175   2.013   0.002  0.00  0.00    +0.019 A 
ATOM      3  C   UNL     1      -0.016   1.331   0.009  0.00  0.00    +0.113 A 
ATOM      4  N   UNL     1       0.002  -0.004   0.002  0.00  0.00    -0.328 N 
ATOM      5  C   UNL     1       1.138  -0.671  -0.012  0.00  0.00    +0.192 A 
ATOM      6  S   UNL     1       2.337   0.654  -0.017  0.00  0.00    -0.053 S 
ATOM      7  N   UNL     1       1.349  -2.040  -0.022  0.00  0.00    -0.103 NA
ATOM      8  H   UNL     1      -0.943  -0.567   0.008  0.00  0.00    +0.168 HD
ENDROOT
BRANCH   3   9
ATOM      9  C   UNL     1      -1.294   2.060   0.019  0.00  0.00    +0.261 C 
ATOM     10  O   UNL     1      -1.300   3.277   0.026  0.00  0.00    -0.269 OA
ATOM     11  N   UNL     1      -2.458   1.381   0.022  0.00  0.00    -0.310 N 
ATOM     12  H   UNL     1      -2.453   0.281   0.016  0.00  0.00    +0.149 HD
BRANCH  11  13
ATOM     13  C   UNL     1      -3.730   2.107   0.032  0.00  0.00    +0.106 C 
BRANCH  13  14
ATOM     14  C   UNL     1      -4.888   1.107   0.033  0.00  0.00    -0.008 C 
ATOM     15  C   UNL     1      -4.875   0.313  -1.275  0.00  0.00    +0.002 C 
ATOM     16  C   UNL     1      -5.083   1.285  -2.441  0.00  0.00    -0.018 C 
ATOM     17  C   UNL     1      -6.414   2.011  -2.248  0.00  0.00    -0.078 C 
ATOM     18  N   UNL     1      -6.404   2.756  -0.979  0.00  0.00    +0.382 N 
ATOM     19  C   UNL     1      -6.214   1.863   0.169  0.00  0.00    -0.064 C 
ATOM     20  C   UNL     1      -6.166   2.677   1.466  0.00  0.00    -0.015 C 
ATOM     21  C   UNL     1      -7.455   3.485   1.620  0.00  0.00    -0.003 C 
ATOM     22  C   UNL     1      -7.613   4.396   0.398  0.00  0.00    -0.019 C 
ATOM     23  C   UNL     1      -7.649   3.530  -0.861  0.00  0.00    -0.078 C 
ATOM     24  H   UNL     1      -5.549   3.449  -0.977  0.00  0.00    -0.081 HD
ENDBRANCH  13  14
ENDBRANCH  11  13
ENDBRANCH   3   9
BRANCH   7  25
ATOM     25  S   UNL     1       2.892  -2.640  -0.040  0.00  0.00    +0.101 S 
ATOM     26  O   UNL     1       2.777  -4.056  -0.020  0.00  0.00    -0.146 OA
ATOM     27  O   UNL     1       3.586  -1.947  -1.068  0.00  0.00    -0.146 OA
BRANCH  25  28
ATOM     28  C   UNL     1       3.650  -2.175   1.481  0.00  0.00    +0.113 A 
ATOM     29  C   UNL     1       4.340  -0.981   1.572  0.00  0.00    +0.030 A 
ATOM     30  C   UNL     1       4.930  -0.613   2.767  0.00  0.00    +0.022 A 
ATOM     31  C   UNL     1       4.839  -1.445   3.868  0.00  0.00    +0.041 A 
ATOM     32  C   UNL     1       4.152  -2.642   3.775  0.00  0.00    +0.022 A 
ATOM     33  C   UNL     1       3.558  -3.006   2.582  0.00  0.00    +0.030 A 
ATOM     34 CL   UNL     1       5.585  -0.986   5.367  0.00  0.00    -0.084 Cl
ENDBRANCH  25  28
ENDBRANCH   7  25
TORSDOF 5
