REMARK  Name = ZINC55131925
REMARK  3 active torsions:
REMARK  status: ('A' for Active; 'I' for Inactive)
REMARK    1  A    between atoms: C_1  and  C_2
REMARK    2  A    between atoms: C_8  and  C_12
REMARK    3  A    between atoms: C_23  and  C_25
REMARK                            x       y       z     vdW  Elec       q    Type
REMARK                         _______ _______ _______ _____ _____    ______ ____
ROOT
ATOM      1  C   UNL     1       0.060  -2.957   3.653  0.00  0.00    +0.267 C 
ATOM      2  O   UNL     1       0.144  -1.840   4.127  0.00  0.00    -0.268 OA
ATOM      3  N   UNL     1      -0.024  -4.029   4.466  0.00  0.00    -0.296 N 
ATOM      4  C   UNL     1      -0.005  -5.390   3.913  0.00  0.00    +0.110 C 
ATOM      5  C   UNL     1      -1.241  -6.144   4.418  0.00  0.00    +0.054 C 
ATOM      6  C   UNL     1      -1.293  -6.069   5.940  0.00  0.00    +0.114 C 
ATOM      7  C   UNL     1      -1.370  -4.622   6.413  0.00  0.00    +0.054 C 
ATOM      8  C   UNL     1      -0.130  -3.858   5.921  0.00  0.00    +0.110 C 
ATOM      9  C   UNL     1      -2.467  -6.862   6.468  0.00  0.00    +0.261 C 
ATOM     10  O   UNL     1      -3.646  -6.671   6.246  0.00  0.00    -0.271 OA
ATOM     11  N   UNL     1      -1.930  -7.821   7.234  0.00  0.00    -0.168 NA
ATOM     12  C   UNL     1      -0.628  -7.757   7.270  0.00  0.00    +0.092 C 
ATOM     13  N   UNL     1      -0.130  -6.745   6.531  0.00  0.00    -0.320 N 
ATOM     14  H   UNL     1       0.804  -6.512   6.413  0.00  0.00    +0.148 HD
ENDROOT
BRANCH   1  22
ATOM     15  C   UNL     1      -0.077   1.503   0.012  0.00  0.00    +0.044 C 
ATOM     16  C   UNL     1      -0.042  -0.004   0.003  0.00  0.00    -0.050 A 
ATOM     17  C   UNL     1      -0.038  -0.686  -1.207  0.00  0.00    +0.005 A 
ATOM     18  C   UNL     1      -0.007  -2.052  -1.242  0.00  0.00    +0.028 A 
ATOM     19  C   UNL     1       0.021  -2.774  -0.053  0.00  0.00    +0.067 A 
ATOM     20  C   UNL     1       0.016  -2.080   1.173  0.00  0.00    +0.032 A 
ATOM     21  C   UNL     1      -0.010  -0.688   1.186  0.00  0.00    +0.015 A 
ATOM     22  C   UNL     1       0.050  -3.138   2.191  0.00  0.00    +0.155 A 
ATOM     23  N   UNL     1       0.069  -4.280   1.537  0.00  0.00    -0.168 NA
ATOM     24  N   UNL     1       0.054  -4.106   0.265  0.00  0.00    -0.276 N 
ATOM     25  H   UNL     1       0.064  -4.825  -0.386  0.00  0.00    +0.189 HD
ENDBRANCH   1  22
BRANCH  12  26
ATOM     26  C   UNL     1       0.230  -8.715   8.056  0.00  0.00    +0.050 C 
ATOM     27  C   UNL     1       0.459  -8.184   9.493  0.00  0.00    +0.011 C 
ATOM     28  C   UNL     1       0.784  -9.474  10.286  0.00  0.00    +0.001 C 
ATOM     29  C   UNL     1      -0.152 -10.538   9.678  0.00  0.00    +0.001 C 
ATOM     30  C   UNL     1      -0.505 -10.056   8.260  0.00  0.00    +0.011 C 
ENDBRANCH  12  26
TORSDOF 2
