REMARK  Name = ZINC12607054
REMARK  9 active torsions:
REMARK  status: ('A' for Active; 'I' for Inactive)
REMARK    1  A    between atoms: C_1  and  C_2
REMARK    2  A    between atoms: C_2  and  C_4
REMARK    3  A    between atoms: C_2  and  S_19
REMARK    4  A    between atoms: N_6  and  C_7
REMARK    5  A    between atoms: C_11  and  S_13
REMARK    6  A    between atoms: S_13  and  N_16
REMARK    7  A    between atoms: N_16  and  C_17
REMARK    8  A    between atoms: N_16  and  C_18
REMARK    9  A    between atoms: S_19  and  C_20
REMARK                            x       y       z     vdW  Elec       q    Type
REMARK                         _______ _______ _______ _____ _____    ______ ____
ROOT
ATOM      1  C   UNL     1       0.255   1.282  -1.028  0.00  0.00    +0.029 C 
ATOM      2  C   UNL     1      -0.780   1.588   0.057  0.00  0.00    +0.137 C 
ENDROOT
BRANCH   2   3
ATOM      3  C   UNL     1      -2.141   1.132  -0.404  0.00  0.00    +0.230 C 
ATOM      4  O   UNL     1      -2.895   1.918  -0.938  0.00  0.00    -0.274 OA
ATOM      5  N   UNL     1      -2.520  -0.148  -0.222  0.00  0.00    -0.285 N 
ATOM      6  H   UNL     1      -1.892  -0.793   0.140  0.00  0.00    +0.155 HD
BRANCH   5   7
ATOM      7  C   UNL     1      -3.818  -0.548  -0.557  0.00  0.00    +0.035 A 
ATOM      8  C   UNL     1      -4.457   0.012  -1.656  0.00  0.00    +0.023 A 
ATOM      9  C   UNL     1      -5.739  -0.384  -1.983  0.00  0.00    +0.004 A 
ATOM     10  C   UNL     1      -6.386  -1.338  -1.218  0.00  0.00    +0.028 A 
ATOM     11  C   UNL     1      -5.753  -1.897  -0.124  0.00  0.00    +0.107 A 
ATOM     12  C   UNL     1      -4.469  -1.509   0.206  0.00  0.00    +0.051 A 
BRANCH  11  13
ATOM     13  S   UNL     1      -6.582  -3.111   0.847  0.00  0.00    +0.060 S 
ATOM     14  O   UNL     1      -5.982  -3.080   2.135  0.00  0.00    -0.153 OA
ATOM     15  O   UNL     1      -7.974  -2.907   0.650  0.00  0.00    -0.153 OA
BRANCH  13  16
ATOM     16  N   UNL     1      -6.223  -4.590   0.193  0.00  0.00    -0.183 NA
ATOM     17  C   UNL     1      -5.049  -5.331   0.660  0.00  0.00    +0.131 C 
ATOM     18  C   UNL     1      -7.079  -5.155  -0.852  0.00  0.00    +0.131 C 
ENDBRANCH  13  16
ENDBRANCH  11  13
ENDBRANCH   5   7
ENDBRANCH   2   3
BRANCH   2  19
ATOM     19  S   UNL     1      -0.816   3.370   0.372  0.00  0.00    -0.073 S 
BRANCH  19  20
ATOM     20  C   UNL     1       0.806   3.598   1.023  0.00  0.00    +0.192 A 
ATOM     21  N   UNL     1       1.614   2.551   1.140  0.00  0.00    -0.207 NA
ATOM     22  C   UNL     1       2.842   2.661   1.616  0.00  0.00    +0.129 A 
ATOM     23  C   UNL     1       3.316   3.938   2.029  0.00  0.00    +0.051 A 
ATOM     24  C   UNL     1       4.624   4.293   2.586  0.00  0.00    -0.025 A 
ATOM     25  C   UNL     1       4.825   5.588   2.899  0.00  0.00    -0.004 A 
ATOM     26  S   UNL     1       3.308   6.406   2.480  0.00  0.00    -0.073 S 
ATOM     27  C   UNL     1       2.404   5.002   1.882  0.00  0.00    +0.115 A 
ATOM     28  N   UNL     1       1.194   4.811   1.392  0.00  0.00    -0.214 NA
ATOM     29  C   UNL     1       6.064   6.200   3.477  0.00  0.00    +0.043 C 
ATOM     30  C   UNL     1       6.959   5.073   4.011  0.00  0.00    +0.005 C 
ATOM     31  C   UNL     1       7.063   3.981   2.942  0.00  0.00    +0.005 C 
ATOM     32  C   UNL     1       5.723   3.257   2.808  0.00  0.00    +0.037 C 
ATOM     33  N   UNL     1       3.655   1.547   1.718  0.00  0.00    -0.343 N 
ATOM     34  H   UNL     1       4.443   1.571   2.284  0.00  0.00    +0.144 HD
ATOM     35  H   UNL     1       3.439   0.742   1.223  0.00  0.00    +0.144 HD
ENDBRANCH  19  20
ENDBRANCH   2  19
TORSDOF 6
