REMARK  Name = ZINC12150894
REMARK  9 active torsions:
REMARK  status: ('A' for Active; 'I' for Inactive)
REMARK    1  A    between atoms: C_1  and  N_2
REMARK    2  A    between atoms: N_2  and  C_3
REMARK    3  A    between atoms: C_3  and  C_5
REMARK    4  A    between atoms: C_3  and  C_12
REMARK    5  A    between atoms: C_5  and  C_6
REMARK    6  A    between atoms: C_17  and  C_18
REMARK    7  A    between atoms: C_17  and  N_67
REMARK    8  A    between atoms: C_23  and  C_24
REMARK    9  A    between atoms: C_30  and  C_32
REMARK                            x       y       z     vdW  Elec       q    Type
REMARK                         _______ _______ _______ _____ _____    ______ ____
ROOT
ATOM      1  C   UNL     1       0.324   1.170  -1.476  0.00  0.00    +0.006 C 
ATOM      2  C   UNL     1       1.029   0.843  -0.156  0.00  0.00    -0.013 C 
ATOM      3  C   UNL     1       0.182   1.357   1.010  0.00  0.00    -0.078 C 
ATOM      4  C   UNL     1      -1.858   1.061  -0.266  0.00  0.00    -0.078 C 
ATOM      5  C   UNL     1      -1.071   0.538  -1.470  0.00  0.00    -0.013 C 
ATOM      6  N   UNL     1      -1.139   0.693   0.973  0.00  0.00    +0.382 N 
ATOM      7  H   UNL     1      -1.001  -0.325   0.988  0.00  0.00    -0.081 HD
ENDROOT
BRANCH   1   8
ATOM      8  C   UNL     1       1.137   0.606  -2.643  0.00  0.00    +0.083 C 
BRANCH   8  10
ATOM      9  C   UNL     1       0.122  -1.718  -2.579  0.00  0.00    +0.132 C 
ATOM     10  N   UNL     1       1.291  -0.841  -2.477  0.00  0.00    -0.297 N 
ATOM     11  C   UNL     1       2.507  -1.366  -2.231  0.00  0.00    +0.253 C 
ATOM     12  O   UNL     1       3.490  -0.647  -2.225  0.00  0.00    -0.269 OA
BRANCH  11  13
ATOM     13  C   UNL     1       2.648  -2.801  -1.971  0.00  0.00    +0.074 A 
ATOM     14  C   UNL     1       3.779  -3.518  -1.611  0.00  0.00    +0.021 A 
ATOM     15  C   UNL     1       3.629  -4.869  -1.425  0.00  0.00    +0.008 A 
ATOM     16  C   UNL     1       2.406  -5.433  -1.608  0.00  0.00    +0.046 A 
ATOM     17  S   UNL     1       1.409  -4.084  -2.044  0.00  0.00    -0.092 S 
ENDBRANCH  11  13
ENDBRANCH   8  10
BRANCH   8  18
ATOM     18  C   UNL     1       0.409   0.895  -3.958  0.00  0.00    +0.058 C 
BRANCH  18  19
ATOM     19  C   UNL     1       1.266   0.450  -5.114  0.00  0.00    -0.046 A 
ATOM     20  C   UNL     1       2.161   1.332  -5.691  0.00  0.00    +0.004 A 
ATOM     21  C   UNL     1       2.951   0.922  -6.749  0.00  0.00    +0.000 A 
ATOM     22  C   UNL     1       2.839  -0.366  -7.237  0.00  0.00    +0.000 A 
ATOM     23  C   UNL     1       1.940  -1.246  -6.664  0.00  0.00    +0.000 A 
ATOM     24  C   UNL     1       1.154  -0.839  -5.603  0.00  0.00    +0.004 A 
ENDBRANCH  18  19
ENDBRANCH   8  18
ENDBRANCH   1   8
BRANCH   6  25
ATOM     25  C   UNL     1      -1.935   1.086   2.154  0.00  0.00    -0.039 C 
BRANCH  25  26
ATOM     26  C   UNL     1      -1.070   1.000   3.384  0.00  0.00    -0.019 A 
ATOM     27  C   UNL     1      -0.580   2.045   4.087  0.00  0.00    +0.107 A 
ATOM     28  N   UNL     1       0.144   1.553   5.115  0.00  0.00    -0.284 N 
ATOM     29  H   UNL     1       0.626   2.094   5.805  0.00  0.00    +0.188 HD
ATOM     30  N   UNL     1       0.102   0.155   5.048  0.00  0.00    -0.174 NA
ATOM     31  C   UNL     1      -0.632  -0.183   4.010  0.00  0.00    +0.094 A 
BRANCH  31  32
ATOM     32  C   UNL     1      -0.942  -1.567   3.573  0.00  0.00    +0.002 A 
ATOM     33  C   UNL     1      -2.211  -1.881   3.092  0.00  0.00    +0.010 A 
ATOM     34  C   UNL     1      -2.492  -3.169   2.681  0.00  0.00    +0.001 A 
ATOM     35  C   UNL     1      -1.519  -4.149   2.757  0.00  0.00    +0.000 A 
ATOM     36  C   UNL     1      -0.259  -3.845   3.239  0.00  0.00    +0.001 A 
ATOM     37  C   UNL     1       0.034  -2.559   3.647  0.00  0.00    +0.010 A 
ENDBRANCH  31  32
ENDBRANCH  25  26
ENDBRANCH   6  25
TORSDOF 8
