REMARK  Name = ZINC33579831
REMARK  8 active torsions:
REMARK  status: ('A' for Active; 'I' for Inactive)
REMARK    1  A    between atoms: C_1  and  C_2
REMARK    2  A    between atoms: C_3  and  C_7
REMARK    3  A    between atoms: C_7  and  C_8
REMARK    4  A    between atoms: C_8  and  N_9
REMARK    5  A    between atoms: C_14  and  C_36
REMARK    6  A    between atoms: C_17  and  C_22
REMARK    7  A    between atoms: C_17  and  C_33
REMARK    8  A    between atoms: C_22  and  C_23
REMARK                            x       y       z     vdW  Elec       q    Type
REMARK                         _______ _______ _______ _____ _____    ______ ____
ROOT
ATOM      1  N   UNL     1       2.721   3.715   0.830  0.00  0.00    -0.241 N 
ATOM      2  C   UNL     1       2.330   4.154  -0.411  0.00  0.00    +0.224 C 
ATOM      3  O   UNL     1       2.887   4.967  -1.116  0.00  0.00    -0.275 OA
ATOM      4  C   UNL     1       1.112   3.428  -0.710  0.00  0.00    +0.079 C 
ATOM      5  C   UNL     1       0.298   3.004  -1.864  0.00  0.00    -0.001 C 
ATOM      6  N   UNL     1      -0.652   2.018  -1.241  0.00  0.00    +0.397 N 
ATOM      7  C   UNL     1      -0.018   1.503   0.010  0.00  0.00    +0.052 C 
ATOM      8  C   UNL     1       1.399   2.048  -0.000  0.00  0.00    +0.086 C 
ATOM      9  C   UNL     1       2.044   2.597   1.232  0.00  0.00    +0.225 C 
ATOM     10  O   UNL     1       1.980   2.145   2.355  0.00  0.00    -0.275 OA
ATOM     11  H   UNL     1      -1.602   2.522  -1.009  0.00  0.00    -0.083 HD
ATOM     12  H   UNL     1      -0.837   1.193  -1.944  0.00  0.00    -0.083 HD
ENDROOT
BRANCH   5  13
ATOM     13  C   UNL     1      -0.447   4.174  -2.453  0.00  0.00    +0.065 A 
ATOM     14  N   UNL     1      -1.511   4.790  -1.994  0.00  0.00    -0.254 NA
ATOM     15  C   UNL     1      -2.043   5.811  -2.633  0.00  0.00    +0.118 A 
ATOM     16  C   UNL     1      -1.471   6.213  -3.797  0.00  0.00    +0.066 A 
ATOM     17  S   UNL     1      -0.121   5.048  -3.918  0.00  0.00    -0.082 S 
ENDBRANCH   5  13
BRANCH   7  18
ATOM     18  C   UNL     1       0.002  -0.004   0.002  0.00  0.00    +0.347 C 
ATOM     19  O   UNL     1       0.963  -0.598   0.432  0.00  0.00    -0.248 OA
ATOM     20  O   UNL     1      -1.047  -0.687  -0.483  0.00  0.00    -0.248 OA
ENDBRANCH   7  18
BRANCH   1  21
ATOM     21  C   UNL     1       3.752   4.373   1.636  0.00  0.00    +0.121 C 
BRANCH  21  22
ATOM     22  C   UNL     1       5.120   3.772   1.305  0.00  0.00    +0.063 C 
BRANCH  22  25
ATOM     23  C   UNL     1       6.126   2.929   4.108  0.00  0.00    +0.066 C 
ATOM     24  C   UNL     1       6.659   4.126   3.362  0.00  0.00    +0.049 A 
ATOM     25  C   UNL     1       6.180   4.449   2.134  0.00  0.00    +0.014 A 
ATOM     26  S   UNL     1       7.163   5.897   1.770  0.00  0.00    -0.080 S 
ATOM     27  C   UNL     1       8.074   5.928   3.248  0.00  0.00    +0.156 A 
ATOM     28  N   UNL     1       7.600   4.882   3.886  0.00  0.00    -0.252 NA
ENDBRANCH  22  25
ENDBRANCH  21  22
ENDBRANCH   1  21
BRANCH   7  29
ATOM     29  C   UNL     1      -0.773   2.015   1.239  0.00  0.00    +0.037 C 
BRANCH  29  30
ATOM     30  C   UNL     1      -2.186   1.489   1.216  0.00  0.00    -0.023 A 
ATOM     31  C   UNL     1      -3.266   2.123   0.735  0.00  0.00    +0.087 A 
ATOM     32  N   UNL     1      -4.375   1.334   0.882  0.00  0.00    -0.360 N 
ATOM     33  H   UNL     1      -5.355   1.693   0.536  0.00  0.00    +0.165 HD
ATOM     34  C   UNL     1      -4.026   0.145   1.484  0.00  0.00    +0.047 A 
ATOM     35  C   UNL     1      -2.640   0.190   1.719  0.00  0.00    +0.003 A 
ATOM     36  C   UNL     1      -2.001  -0.893   2.325  0.00  0.00    +0.010 A 
ATOM     37  C   UNL     1      -2.727  -1.993   2.688  0.00  0.00    +0.001 A 
ATOM     38  C   UNL     1      -4.095  -2.041   2.458  0.00  0.00    +0.002 A 
ATOM     39  C   UNL     1      -4.745  -0.984   1.861  0.00  0.00    +0.026 A 
ENDBRANCH  29  30
ENDBRANCH   7  29
TORSDOF 7
