REMARK  Name = ZINC01069573
REMARK  4 active torsions:
REMARK  status: ('A' for Active; 'I' for Inactive)
REMARK    1  A    between atoms: C_1  and  C_2
REMARK    2  A    between atoms: C_12  and  C_22
REMARK    3  A    between atoms: C_25  and  O_29
REMARK    4  A    between atoms: C_26  and  O_28
REMARK                            x       y       z     vdW  Elec       q    Type
REMARK                         _______ _______ _______ _____ _____    ______ ____
ROOT
ATOM      1  C   UNL     1       4.941   4.054  -0.002  0.00  0.00    +0.065 C 
ATOM      2  C   UNL     1       3.609   3.349  -0.002  0.00  0.00    +0.039 A 
ATOM      3  C   UNL     1       2.440   4.107  -0.002  0.00  0.00    +0.023 A 
ATOM      4  C   UNL     1       1.224   3.485  -0.001  0.00  0.00    +0.012 A 
ATOM      5  C   UNL     1       1.198   2.077   0.002  0.00  0.00    +0.006 A 
ATOM      6  C   UNL     1       2.425   1.367  -0.003  0.00  0.00    +0.072 A 
ATOM      7  N   UNL     1       3.581   2.038  -0.002  0.00  0.00    -0.252 NA
ATOM      8  C   UNL     1       2.405  -0.039  -0.008  0.00  0.00    +0.030 A 
ATOM      9  C   UNL     1       1.218  -0.700  -0.007  0.00  0.00    +0.025 A 
ATOM     10  C   UNL     1       0.002  -0.004   0.002  0.00  0.00    +0.036 A 
ATOM     11  C   UNL     1      -0.017   1.373   0.010  0.00  0.00    -0.005 A 
ATOM     12  C   UNL     1      -1.318   2.121   0.033  0.00  0.00    +0.086 C 
ATOM     13  C   UNL     1      -2.469   1.244  -0.387  0.00  0.00    +0.024 C 
ATOM     14  C   UNL     1      -2.365  -0.102  -0.373  0.00  0.00    +0.016 C 
ATOM     15  N   UNL     1      -1.201  -0.710   0.002  0.00  0.00    -0.317 N 
ATOM     16  C   UNL     1      -3.531  -0.977  -0.765  0.00  0.00    +0.051 C 
ATOM     17  C   UNL     1      -4.384  -0.258  -1.812  0.00  0.00    +0.014 C 
ATOM     18  C   UNL     1      -4.858   1.074  -1.221  0.00  0.00    +0.080 C 
ATOM     19  C   UNL     1      -3.659   1.873  -0.789  0.00  0.00    +0.162 C 
ATOM     20  O   UNL     1      -3.722   3.087  -0.789  0.00  0.00    -0.292 OA
ATOM     21  H   UNL     1      -1.211  -1.642   0.271  0.00  0.00    +0.152 HD
ENDROOT
BRANCH  12  22
ATOM     22  C   UNL     1      -1.569   2.628   1.430  0.00  0.00    -0.032 A 
ATOM     23  C   UNL     1      -1.677   1.733   2.479  0.00  0.00    +0.008 A 
ATOM     24  C   UNL     1      -1.901   2.193   3.763  0.00  0.00    +0.049 A 
ATOM     25  C   UNL     1      -2.031   3.552   3.999  0.00  0.00    +0.158 A 
ATOM     26  C   UNL     1      -1.928   4.452   2.943  0.00  0.00    +0.159 A 
ATOM     27  C   UNL     1      -1.697   3.985   1.659  0.00  0.00    +0.053 A 
BRANCH  26  28
ATOM     28  O   UNL     1      -2.055   5.787   3.170  0.00  0.00    -0.503 OA
ATOM     29  H   UNL     1      -2.963   6.113   3.100  0.00  0.00    +0.292 HD
ENDBRANCH  26  28
BRANCH  25  30
ATOM     30  O   UNL     1      -2.258   4.006   5.261  0.00  0.00    -0.503 OA
ATOM     31  H   UNL     1      -3.195   4.077   5.491  0.00  0.00    +0.292 HD
ENDBRANCH  25  30
ENDBRANCH  12  22
TORSDOF 3
