REMARK  Name = ZINC39531039
REMARK  10 active torsions:
REMARK  status: ('A' for Active; 'I' for Inactive)
REMARK    1  A    between atoms: C_1  and  C_2
REMARK    2  A    between atoms: C_4  and  C_8
REMARK    3  A    between atoms: C_8  and  N_9
REMARK    4  A    between atoms: N_9  and  C_10
REMARK    5  A    between atoms: C_11  and  C_13
REMARK    6  A    between atoms: C_13  and  C_14
REMARK    7  A    between atoms: N_21  and  C_22
REMARK    8  A    between atoms: C_22  and  C_23
REMARK    9  A    between atoms: C_27  and  O_29
REMARK   10  A    between atoms: O_29  and  C_30
REMARK                            x       y       z     vdW  Elec       q    Type
REMARK                         _______ _______ _______ _____ _____    ______ ____
ROOT
ATOM      1  C   UNL     1      -1.041  -7.926  -0.041  0.00  0.00    +0.028 C 
ATOM      2  C   UNL     1      -0.325  -9.246  -0.005  0.00  0.00    +0.200 C 
ATOM      3  O   UNL     1       0.867  -9.268  -0.231  0.00  0.00    -0.278 OA
ATOM      4  N   UNL     1      -0.947 -10.399   0.265  0.00  0.00    -0.318 N 
ATOM      5  C   UNL     1      -2.373 -10.469   0.576  0.00  0.00    +0.085 C 
ATOM      6  C   UNL     1      -3.069  -9.184   0.123  0.00  0.00    -0.058 C 
ATOM      7  N   UNL     1      -2.327  -8.033   0.660  0.00  0.00    +0.391 N 
ATOM      8  H   UNL     1      -0.432 -11.220   0.254  0.00  0.00    +0.149 HD
ATOM      9  H   UNL     1      -2.164  -8.165   1.647  0.00  0.00    -0.080 HD
ENDROOT
BRANCH   1  10
ATOM     10  C   UNL     1      -0.179  -6.862   0.640  0.00  0.00    +0.090 C 
BRANCH  10  13
ATOM     11  N   UNL     1       0.988  -6.570   2.802  0.00  0.00    -0.302 N 
ATOM     12  C   UNL     1       1.573  -5.339   2.266  0.00  0.00    +0.132 C 
ATOM     13  C   UNL     1       0.152  -7.306   2.042  0.00  0.00    +0.214 C 
ATOM     14  O   UNL     1      -0.332  -8.325   2.486  0.00  0.00    -0.276 OA
BRANCH  11  15
ATOM     15  C   UNL     1       1.309  -7.002   4.165  0.00  0.00    +0.140 C 
BRANCH  15  19
ATOM     16  C   UNL     1       1.286  -5.320   8.572  0.00  0.00    +0.067 C 
ATOM     17  C   UNL     1       0.883  -5.533   7.136  0.00  0.00    +0.058 C 
ATOM     18  C   UNL     1       0.677  -6.728   6.576  0.00  0.00    +0.027 C 
ATOM     19  C   UNL     1       0.299  -6.399   5.143  0.00  0.00    +0.170 C 
ATOM     20  N   UNL     1       0.356  -4.928   5.114  0.00  0.00    -0.178 NA
ATOM     21  N   UNL     1       0.675  -4.542   6.242  0.00  0.00    -0.159 NA
ENDBRANCH  15  19
ENDBRANCH  11  15
ENDBRANCH  10  13
ENDBRANCH   1  10
BRANCH   7  22
ATOM     22  C   UNL     1      -3.107  -6.806   0.447  0.00  0.00    -0.042 C 
BRANCH  22  23
ATOM     23  C   UNL     1      -4.367  -6.863   1.272  0.00  0.00    -0.060 A 
ATOM     24  C   UNL     1      -5.516  -7.417   0.739  0.00  0.00    +0.002 A 
ATOM     25  C   UNL     1      -6.674  -7.470   1.493  0.00  0.00    +0.004 A 
ATOM     26  C   UNL     1      -6.685  -6.970   2.781  0.00  0.00    +0.046 A 
ATOM     27  C   UNL     1      -5.533  -6.414   3.317  0.00  0.00    +0.129 A 
ATOM     28  C   UNL     1      -4.371  -6.366   2.560  0.00  0.00    +0.048 A 
BRANCH  27  29
ATOM     29  O   UNL     1      -5.541  -5.921   4.584  0.00  0.00    -0.456 OA
BRANCH  29  30
ATOM     30  C   UNL     1      -5.386  -4.581   4.748  0.00  0.00    +0.128 A 
ATOM     31  C   UNL     1      -5.350  -3.745   3.641  0.00  0.00    +0.046 A 
ATOM     32  C   UNL     1      -5.192  -2.383   3.810  0.00  0.00    +0.004 A 
ATOM     33  C   UNL     1      -5.070  -1.853   5.082  0.00  0.00    +0.000 A 
ATOM     34  C   UNL     1      -5.106  -2.684   6.186  0.00  0.00    +0.004 A 
ATOM     35  C   UNL     1      -5.270  -4.045   6.022  0.00  0.00    +0.046 A 
ENDBRANCH  29  30
ENDBRANCH  27  29
ENDBRANCH  22  23
ENDBRANCH   7  22
TORSDOF 8
