REMARK  Name = ZINC65666362
REMARK  5 active torsions:
REMARK  status: ('A' for Active; 'I' for Inactive)
REMARK    1  A    between atoms: C_1  and  C_2
REMARK    2  A    between atoms: C_2  and  C_29
REMARK    3  A    between atoms: C_9  and  O_13
REMARK    4  A    between atoms: O_13  and  C_14
REMARK    5  A    between atoms: C_14  and  C_16
REMARK                            x       y       z     vdW  Elec       q    Type
REMARK                         _______ _______ _______ _____ _____    ______ ____
ROOT
ATOM      1  C   UNL     1       3.486  -5.141   2.710  0.00  0.00    +0.350 C 
ATOM      2  O   UNL     1       3.423  -5.370   1.518  0.00  0.00    -0.244 OA
ENDROOT
BRANCH   1   3
ATOM      3  C   UNL     1       4.484  -5.832   3.539  0.00  0.00    +0.124 A 
ATOM      4  C   UNL     1       5.368  -6.745   2.980  0.00  0.00    +0.033 A 
ATOM      5  C   UNL     1       6.309  -7.383   3.816  0.00  0.00    +0.038 A 
ATOM      6  C   UNL     1       6.356  -7.100   5.171  0.00  0.00    +0.030 A 
ATOM      7  N   UNL     1       5.495  -6.218   5.716  0.00  0.00    -0.325 N 
ATOM      8  H   UNL     1       5.542  -6.041   6.669  0.00  0.00    +0.169 HD
ATOM      9  C   UNL     1       4.576  -5.572   4.979  0.00  0.00    +0.263 A 
ATOM     10  O   UNL     1       3.820  -4.776   5.506  0.00  0.00    -0.267 OA
ATOM     11  C   UNL     1       7.369  -7.755   6.075  0.00  0.00    +0.054 C 
ATOM     12  C   UNL     1       7.862  -9.075   5.491  0.00  0.00    +0.014 C 
ATOM     13  C   UNL     1       8.402  -8.831   4.075  0.00  0.00    +0.080 C 
ATOM     14  C   UNL     1       7.240  -8.360   3.227  0.00  0.00    +0.165 C 
ATOM     15  O   UNL     1       7.080  -8.775   2.098  0.00  0.00    -0.292 OA
ENDBRANCH   1   3
BRANCH   1  16
ATOM     16  O   UNL     1       2.640  -4.254   3.272  0.00  0.00    -0.422 OA
BRANCH  16  25
ATOM     17  C   UNL     1       0.067   1.413  -0.246  0.00  0.00    +0.056 C 
ATOM     18  C   UNL     1       0.032  -0.114  -0.159  0.00  0.00    +0.112 C 
ATOM     19  C   UNL     1      -1.425  -0.588  -0.058  0.00  0.00    +0.127 C 
ATOM     20  C   UNL     1      -1.397  -2.101   0.058  0.00  0.00    +0.170 C 
ATOM     21  O   UNL     1      -2.203  -2.801  -0.520  0.00  0.00    -0.292 OA
ATOM     22  C   UNL     1      -0.343  -2.676   0.908  0.00  0.00    +0.059 A 
ATOM     23  C   UNL     1      -0.382  -4.023   1.281  0.00  0.00    +0.018 A 
ATOM     24  C   UNL     1       0.610  -4.539   2.065  0.00  0.00    +0.047 A 
ATOM     25  C   UNL     1       1.659  -3.729   2.494  0.00  0.00    +0.135 A 
ATOM     26  C   UNL     1       1.709  -2.390   2.135  0.00  0.00    +0.092 A 
ATOM     27  C   UNL     1       0.709  -1.850   1.341  0.00  0.00    +0.135 A 
ATOM     28  O   UNL     1       0.750  -0.542   0.999  0.00  0.00    -0.485 OA
ATOM     29  C   UNL     1       0.679  -0.711  -1.410  0.00  0.00    +0.056 C 
ENDBRANCH  16  25
ENDBRANCH   1  16
TORSDOF 3
