REMARK  Name = ZINC39465781
REMARK  8 active torsions:
REMARK  status: ('A' for Active; 'I' for Inactive)
REMARK    1  A    between atoms: C_1  and  C_2
REMARK    2  A    between atoms: C_2  and  O_3
REMARK    3  A    between atoms: O_3  and  P_4
REMARK    4  A    between atoms: C_12  and  S_27
REMARK    5  A    between atoms: C_13  and  C_20
REMARK    6  A    between atoms: C_25  and  O_26
REMARK    7  A    between atoms: S_27  and  O_30
REMARK    8  A    between atoms: O_30  and  C_31
REMARK                            x       y       z     vdW  Elec       q    Type
REMARK                         _______ _______ _______ _____ _____    ______ ____
ROOT
ATOM      1  P   UNL     1       0.467  -2.729   1.337  0.00  0.00    +0.421 P 
ATOM      2  O   UNL     1       0.840  -3.535   0.154  0.00  0.00    -0.239 OA
ATOM      3  N   UNL     1      -0.975  -3.251   1.957  0.00  0.00    -0.156 NA
ATOM      4  N   UNL     1      -1.231  -2.931   3.272  0.00  0.00    -0.224 NA
ATOM      5  C   UNL     1      -2.535  -3.481   3.673  0.00  0.00    +0.108 C 
ATOM      6  C   UNL     1      -2.950  -2.844   4.999  0.00  0.00    +0.052 C 
ATOM      7  C   UNL     1      -1.832  -2.982   6.000  0.00  0.00    -0.039 A 
ATOM      8  C   UNL     1      -2.129  -2.834   7.348  0.00  0.00    +0.035 A 
ATOM      9  C   UNL     1      -1.139  -2.951   8.299  0.00  0.00    +0.136 A 
ATOM     10  C   UNL     1       0.170  -3.220   7.903  0.00  0.00    +0.014 A 
ATOM     11  C   UNL     1       0.463  -3.366   6.551  0.00  0.00    +0.016 A 
ATOM     12  C   UNL     1      -0.539  -3.247   5.601  0.00  0.00    -0.023 A 
ATOM     13  C   UNL     1      -0.167  -3.415   4.151  0.00  0.00    +0.130 C 
ATOM     14  C   UNL     1       1.147  -2.675   3.883  0.00  0.00    +0.196 C 
ATOM     15  O   UNL     1       1.556  -2.939   2.526  0.00  0.00    -0.294 OA
ATOM     16  H   UNL     1      -1.607  -3.756   1.422  0.00  0.00    +0.153 HD
ENDROOT
BRANCH  10  17
ATOM     17  C   UNL     1       1.245  -3.348   8.917  0.00  0.00    +0.025 A 
ATOM     18  C   UNL     1       2.284  -2.422   8.956  0.00  0.00    +0.012 A 
ATOM     19  C   UNL     1       3.282  -2.546   9.902  0.00  0.00    +0.001 A 
ATOM     20  C   UNL     1       3.253  -3.587  10.812  0.00  0.00    +0.004 A 
ATOM     21  C   UNL     1       2.227  -4.511  10.783  0.00  0.00    +0.046 A 
ATOM     22  C   UNL     1       1.215  -4.396   9.842  0.00  0.00    +0.125 A 
BRANCH  22  23
ATOM     23  O   UNL     1       0.203  -5.301   9.816  0.00  0.00    -0.506 OA
ATOM     24  H   UNL     1       0.374  -6.067   9.252  0.00  0.00    +0.292 HD
ENDBRANCH  22  23
ENDBRANCH  10  17
BRANCH   9  25
ATOM     25  S   UNL     1      -1.526  -2.762  10.008  0.00  0.00    +0.152 S 
ATOM     26  O   UNL     1      -1.988  -4.027  10.462  0.00  0.00    -0.131 OA
ATOM     27  O   UNL     1      -0.421  -2.096  10.603  0.00  0.00    -0.131 OA
BRANCH  25  28
ATOM     28  O   UNL     1      -2.709  -1.809  10.098  0.00  0.00    -0.342 OA
BRANCH  28  29
ATOM     29  C   UNL     1      -2.385  -0.505   9.899  0.00  0.00    +0.157 A 
ATOM     30  C   UNL     1      -1.914   0.263  10.954  0.00  0.00    +0.048 A 
ATOM     31  C   UNL     1      -1.585   1.589  10.749  0.00  0.00    +0.004 A 
ATOM     32  C   UNL     1      -1.724   2.151   9.494  0.00  0.00    +0.000 A 
ATOM     33  C   UNL     1      -2.193   1.388   8.441  0.00  0.00    +0.004 A 
ATOM     34  C   UNL     1      -2.518   0.060   8.639  0.00  0.00    +0.048 A 
ENDBRANCH  28  29
ENDBRANCH  25  28
ENDBRANCH   9  25
BRANCH   1  35
ATOM     35  O   UNL     1       0.370  -1.172   0.940  0.00  0.00    -0.296 OA
BRANCH  35  37
ATOM     36  C   UNL     1      -0.234   0.820  -0.288  0.00  0.00    +0.035 C 
ATOM     37  C   UNL     1      -0.344  -0.704  -0.206  0.00  0.00    +0.168 C 
ENDBRANCH  35  37
ENDBRANCH   1  35
TORSDOF 7
