REMARK  Name = ZINC34791360
REMARK  13 active torsions:
REMARK  status: ('A' for Active; 'I' for Inactive)
REMARK    1  A    between atoms: C_1  and  C_2
REMARK    2  A    between atoms: C_2  and  N_3
REMARK    3  A    between atoms: C_6  and  C_11
REMARK    4  A    between atoms: C_14  and  C_18
REMARK    5  A    between atoms: C_16  and  C_17
REMARK    6  A    between atoms: N_21  and  C_23
REMARK    7  A    between atoms: C_23  and  C_25
REMARK    8  A    between atoms: C_23  and  C_29
REMARK    9  A    between atoms: C_25  and  C_26
REMARK   10  A    between atoms: C_26  and  C_27
REMARK   11  A    between atoms: C_26  and  C_28
REMARK   12  A    between atoms: N_31  and  C_32
REMARK   13  A    between atoms: C_32  and  C_33
REMARK                            x       y       z     vdW  Elec       q    Type
REMARK                         _______ _______ _______ _____ _____    ______ ____
ROOT
ATOM      1  N   UNL     1       1.004  -0.565  -1.681  0.00  0.00    -0.257 N 
ATOM      2  C   UNL     1       0.141  -0.408  -2.728  0.00  0.00    +0.042 C 
ATOM      3  C   UNL     1       0.591  -0.283  -3.993  0.00  0.00    +0.058 C 
ATOM      4  C   UNL     1       2.089  -0.323  -4.214  0.00  0.00    +0.142 C 
ATOM      5  N   UNL     1       2.935  -0.495  -3.021  0.00  0.00    -0.288 N 
ATOM      6  C   UNL     1       2.336  -0.601  -1.819  0.00  0.00    +0.307 C 
ATOM      7  O   UNL     1       3.026  -0.739  -0.828  0.00  0.00    -0.252 OA
ATOM      8  C   UNL     1      -0.490  -0.136  -4.886  0.00  0.00    +0.247 C 
ATOM      9  O   UNL     1      -0.374  -0.004  -6.090  0.00  0.00    -0.270 OA
ATOM     10  N   UNL     1      -1.666  -0.160  -4.233  0.00  0.00    -0.281 N 
ATOM     11  C   UNL     1      -1.368  -0.335  -2.804  0.00  0.00    +0.160 C 
ATOM     12  H   UNL     1       3.902  -0.528  -3.099  0.00  0.00    +0.151 HD
ENDROOT
BRANCH   4  13
ATOM     13  C   UNL     1       2.389  -1.454  -5.163  0.00  0.00    -0.020 A 
ATOM     14  C   UNL     1       1.427  -2.412  -5.423  0.00  0.00    +0.006 A 
ATOM     15  C   UNL     1       1.702  -3.450  -6.294  0.00  0.00    +0.004 A 
ATOM     16  C   UNL     1       2.940  -3.530  -6.904  0.00  0.00    -0.050 A 
ATOM     17  C   UNL     1       3.902  -2.572  -6.645  0.00  0.00    +0.007 A 
ATOM     18  C   UNL     1       3.625  -1.532  -5.778  0.00  0.00    -0.045 A 
ATOM     19  C   UNL     1       4.672  -0.484  -5.499  0.00  0.00    +0.044 C 
ATOM     20  C   UNL     1       3.240  -4.662  -7.852  0.00  0.00    +0.044 C 
ENDBRANCH   4  13
BRANCH   1  22
ATOM     21  C   UNL     1       0.304   0.694   0.295  0.00  0.00    +0.025 C 
ATOM     22  C   UNL     1       0.443  -0.694  -0.334  0.00  0.00    +0.111 C 
ENDBRANCH   1  22
BRANCH  10  23
ATOM     23  C   UNL     1      -2.996  -0.034  -4.834  0.00  0.00    +0.163 C 
BRANCH  23  24
ATOM     24  C   UNL     1      -3.267  -1.231  -5.710  0.00  0.00    +0.234 C 
ATOM     25  O   UNL     1      -2.431  -2.102  -5.821  0.00  0.00    -0.274 OA
ATOM     26  N   UNL     1      -4.438  -1.332  -6.370  0.00  0.00    -0.310 N 
ATOM     27  H   UNL     1      -5.106  -0.635  -6.281  0.00  0.00    +0.149 HD
BRANCH  26  28
ATOM     28  C   UNL     1      -4.701  -2.495  -7.221  0.00  0.00    +0.139 C 
BRANCH  28  29
ATOM     29  C   UNL     1      -6.069  -2.366  -7.839  0.00  0.00    -0.030 A 
ATOM     30  C   UNL     1      -7.174  -2.878  -7.185  0.00  0.00    +0.008 A 
ATOM     31  C   UNL     1      -8.429  -2.760  -7.751  0.00  0.00    +0.038 A 
ATOM     32  C   UNL     1      -8.580  -2.128  -8.973  0.00  0.00    +0.123 A 
ATOM     33  C   UNL     1      -7.473  -1.615  -9.628  0.00  0.00    +0.038 A 
ATOM     34  C   UNL     1      -6.219  -1.730  -9.058  0.00  0.00    +0.008 A 
ATOM     35  F   UNL     1      -9.806  -2.012  -9.528  0.00  0.00    -0.205 F 
ENDBRANCH  28  29
ENDBRANCH  26  28
ENDBRANCH  23  24
BRANCH  23  36
ATOM     36  C   UNL     1      -3.056   1.240  -5.679  0.00  0.00    +0.035 C 
BRANCH  36  37
ATOM     37  C   UNL     1      -2.955   2.463  -4.765  0.00  0.00    -0.015 C 
ATOM     38  C   UNL     1      -1.560   2.517  -4.138  0.00  0.00    +0.007 C 
ATOM     39  C   UNL     1      -3.196   3.733  -5.583  0.00  0.00    +0.007 C 
ENDBRANCH  36  37
ENDBRANCH  23  36
ENDBRANCH  10  23
TORSDOF 8
