REMARK  Name = ZINC13961614
REMARK  9 active torsions:
REMARK  status: ('A' for Active; 'I' for Inactive)
REMARK    1  A    between atoms: C_1  and  C_2
REMARK    2  A    between atoms: C_2  and  C_3
REMARK    3  A    between atoms: C_3  and  O_4
REMARK    4  A    between atoms: O_4  and  C_5
REMARK    5  A    between atoms: C_5  and  C_7
REMARK    6  A    between atoms: C_11  and  N_12
REMARK    7  A    between atoms: C_13  and  C_15
REMARK    8  A    between atoms: C_24  and  N_27
REMARK    9  A    between atoms: C_34  and  C_38
REMARK                            x       y       z     vdW  Elec       q    Type
REMARK                         _______ _______ _______ _____ _____    ______ ____
ROOT
ATOM      1  N   UNL     1      -2.113   2.171  -4.954  0.00  0.00    -0.279 N 
ATOM      2  C   UNL     1      -1.534   1.354  -5.856  0.00  0.00    +0.224 C 
ATOM      3  O   UNL     1      -0.698   0.552  -5.500  0.00  0.00    -0.275 OA
ATOM      4  H   UNL     1      -2.872   2.899  -5.278  0.00  0.00    +0.155 HD
ENDROOT
BRANCH   1   9
ATOM      5  C   UNL     1      -2.230   2.843  -2.550  0.00  0.00    +0.091 A 
ATOM      6  C   UNL     1      -1.680   2.563  -1.235  0.00  0.00    -0.021 A 
ATOM      7  C   UNL     1      -0.747   1.587  -1.197  0.00  0.00    -0.004 A 
ATOM      8  S   UNL     1      -0.594   1.042  -2.874  0.00  0.00    -0.077 S 
ATOM      9  C   UNL     1      -1.752   2.095  -3.618  0.00  0.00    +0.086 A 
ATOM     10  C   UNL     1      -0.013   1.086   0.008  0.00  0.00    +0.046 C 
ATOM     11  C   UNL     1      -0.742   1.586   1.263  0.00  0.00    -0.009 C 
ATOM     12  C   UNL     1      -1.028   3.083   1.103  0.00  0.00    +0.008 C 
ATOM     13  C   UNL     1      -2.100   3.297   0.033  0.00  0.00    +0.037 C 
ATOM     14  C   UNL     1       0.139   1.360   2.493  0.00  0.00    +0.008 C 
BRANCH   5  15
ATOM     15  C   UNL     1      -3.251   3.875  -2.743  0.00  0.00    +0.342 C 
ATOM     16  O   UNL     1      -4.430   3.588  -2.659  0.00  0.00    -0.245 OA
BRANCH  15  17
ATOM     17  O   UNL     1      -2.884   5.144  -3.014  0.00  0.00    -0.461 OA
BRANCH  17  18
ATOM     18  C   UNL     1      -3.949   6.115  -3.193  0.00  0.00    +0.232 C 
BRANCH  18  20
ATOM     19  C   UNL     1      -4.465   8.511  -3.679  0.00  0.00    +0.007 C 
ATOM     20  C   UNL     1      -3.343   7.488  -3.490  0.00  0.00    +0.038 C 
ENDBRANCH  18  20
ENDBRANCH  17  18
ENDBRANCH  15  17
ENDBRANCH   5  15
ENDBRANCH   1   9
BRANCH   2  21
ATOM     21  C   UNL     1      -1.927   1.438  -7.309  0.00  0.00    +0.050 C 
ATOM     22  C   UNL     1      -3.422   1.145  -7.451  0.00  0.00    +0.020 C 
ATOM     23  C   UNL     1      -3.820   1.230  -8.926  0.00  0.00    -0.007 C 
ATOM     24  C   UNL     1      -3.523   2.634  -9.454  0.00  0.00    +0.007 C 
ATOM     25  C   UNL     1      -2.028   2.927  -9.313  0.00  0.00    -0.007 C 
ATOM     26  C   UNL     1      -1.630   2.842  -7.838  0.00  0.00    +0.020 C 
ATOM     27  C   UNL     1      -1.229   1.900 -10.117  0.00  0.00    +0.034 C 
ATOM     28  C   UNL     1      -1.526   0.495  -9.588  0.00  0.00    +0.067 C 
ATOM     29  C   UNL     1      -3.021   0.202  -9.730  0.00  0.00    +0.034 C 
ATOM     30  C   UNL     1      -1.127   0.410  -8.113  0.00  0.00    +0.046 C 
BRANCH  28  31
ATOM     31  N   UNL     1      -0.761  -0.489 -10.358  0.00  0.00    -0.244 N 
ATOM     32  C   UNL     1      -1.019  -0.911 -11.607  0.00  0.00    +0.221 A 
ATOM     33  N   UNL     1      -0.106  -1.789 -11.937  0.00  0.00    -0.205 NA
ATOM     34  C   UNL     1       0.749  -1.952 -10.927  0.00  0.00    +0.242 A 
ATOM     35  N   UNL     1       0.392  -1.173  -9.939  0.00  0.00    -0.137 NA
ATOM     36 CL   UNL     1       2.117  -3.021 -10.926  0.00  0.00    -0.040 Cl
ENDBRANCH  28  31
ENDBRANCH   2  21
TORSDOF 7
