REMARK  Name = ZINC13223679
REMARK  17 active torsions:
REMARK  status: ('A' for Active; 'I' for Inactive)
REMARK    1  A    between atoms: C_1  and  C_2
REMARK    2  A    between atoms: C_4  and  C_14
REMARK    3  A    between atoms: C_5  and  C_13
REMARK    4  A    between atoms: N_6  and  C_7
REMARK    5  A    between atoms: C_7  and  C_9
REMARK    6  A    between atoms: C_7  and  C_10
REMARK    7  A    between atoms: C_10  and  O_11
REMARK    8  A    between atoms: O_11  and  C_12
REMARK    9  A    between atoms: C_14  and  C_16
REMARK   10  A    between atoms: C_16  and  S_17
REMARK   11  A    between atoms: S_17  and  C_18
REMARK   12  A    between atoms: N_28  and  C_29
REMARK   13  A    between atoms: C_29  and  C_30
REMARK   14  A    between atoms: C_30  and  C_31
REMARK   15  A    between atoms: C_31  and  C_32
REMARK   16  A    between atoms: C_32  and  C_33
REMARK   17  A    between atoms: C_33  and  C_34
REMARK                            x       y       z     vdW  Elec       q    Type
REMARK                         _______ _______ _______ _____ _____    ______ ____
ROOT
ATOM      1  C   UNL     1      -4.503   3.210   7.428  0.00  0.00    +0.173 A 
ATOM      2  N   UNL     1      -4.342   4.367   6.832  0.00  0.00    -0.223 NA
ATOM      3  C   UNL     1      -4.823   5.508   7.365  0.00  0.00    +0.079 A 
ATOM      4  C   UNL     1      -4.656   6.741   6.728  0.00  0.00    +0.028 A 
ATOM      5  C   UNL     1      -5.155   7.874   7.306  0.00  0.00    +0.002 A 
ATOM      6  C   UNL     1      -5.829   7.820   8.519  0.00  0.00    +0.001 A 
ATOM      7  C   UNL     1      -6.008   6.629   9.167  0.00  0.00    +0.015 A 
ATOM      8  C   UNL     1      -5.509   5.457   8.600  0.00  0.00    +0.065 A 
ATOM      9  C   UNL     1      -5.671   4.150   9.250  0.00  0.00    +0.262 A 
ATOM     10  O   UNL     1      -6.253   4.042  10.314  0.00  0.00    -0.267 OA
ATOM     11  N   UNL     1      -5.151   3.070   8.621  0.00  0.00    -0.287 N 
ENDROOT
BRANCH   1  12
ATOM     12  S   UNL     1      -3.845   1.770   6.655  0.00  0.00    -0.080 S 
BRANCH  12  13
ATOM     13  C   UNL     1      -3.126   2.511   5.168  0.00  0.00    +0.157 C 
BRANCH  13  14
ATOM     14  C   UNL     1      -2.488   1.434   4.329  0.00  0.00    +0.175 C 
ATOM     15  O   UNL     1      -2.517   0.279   4.699  0.00  0.00    -0.291 OA
BRANCH  14  19
ATOM     16  C   UNL     1      -0.671   4.067   0.363  0.00  0.00    +0.063 C 
ATOM     17  C   UNL     1      -1.037   2.962   1.320  0.00  0.00    +0.017 A 
ATOM     18  C   UNL     1      -1.708   3.120   2.473  0.00  0.00    +0.034 A 
ATOM     19  C   UNL     1      -1.833   1.782   3.066  0.00  0.00    +0.039 A 
ATOM     20  C   UNL     1      -1.212   0.918   2.184  0.00  0.00    +0.027 A 
ATOM     21  N   UNL     1      -0.739   1.640   1.153  0.00  0.00    -0.343 N 
ATOM     22  C   UNL     1      -1.084  -0.574   2.351  0.00  0.00    +0.064 C 
BRANCH  21  23
ATOM     23  C   UNL     1      -0.011   1.086   0.009  0.00  0.00    +0.110 C 
ATOM     24  C   UNL     1      -0.694   1.521  -1.289  0.00  0.00    +0.033 C 
BRANCH  23  25
ATOM     25  C   UNL     1       1.430   1.600   0.024  0.00  0.00    +0.184 C 
BRANCH  25  26
ATOM     26  O   UNL     1       2.174   0.962  -1.017  0.00  0.00    -0.381 OA
ATOM     27  C   UNL     1       3.541   1.373  -1.090  0.00  0.00    +0.194 C 
ENDBRANCH  25  26
ENDBRANCH  23  25
ENDBRANCH  21  23
ENDBRANCH  14  19
ENDBRANCH  13  14
ENDBRANCH  12  13
ENDBRANCH   1  12
BRANCH  11  28
ATOM     28  C   UNL     1      -5.285   1.742   9.226  0.00  0.00    +0.127 C 
BRANCH  28  29
ATOM     29  C   UNL     1      -4.084   1.473  10.135  0.00  0.00    +0.022 C 
BRANCH  29  30
ATOM     30  C   UNL     1      -4.224   0.086  10.766  0.00  0.00    +0.002 C 
BRANCH  30  31
ATOM     31  C   UNL     1      -3.023  -0.183  11.676  0.00  0.00    +0.011 C 
BRANCH  31  32
ATOM     32  C   UNL     1      -3.163  -1.570  12.307  0.00  0.00    +0.125 C 
BRANCH  32  33
ATOM     33  C   UNL     1      -1.980  -1.835  13.203  0.00  0.00    +0.356 C 
ATOM     34  O   UNL     1      -1.115  -1.001  13.325  0.00  0.00    -0.246 OA
ATOM     35  O   UNL     1      -1.889  -2.999  13.866  0.00  0.00    -0.246 OA
ENDBRANCH  32  33
ENDBRANCH  31  32
ENDBRANCH  30  31
ENDBRANCH  29  30
ENDBRANCH  28  29
ENDBRANCH  11  28
TORSDOF 13
