REMARK  Name = ZINC34830278
REMARK  8 active torsions:
REMARK  status: ('A' for Active; 'I' for Inactive)
REMARK    1  A    between atoms: C_1  and  C_2
REMARK    2  A    between atoms: C_7  and  C_8
REMARK    3  A    between atoms: N_17  and  C_18
REMARK    4  A    between atoms: C_18  and  C_19
REMARK    5  A    between atoms: C_19  and  C_20
REMARK    6  A    between atoms: C_26  and  C_29
REMARK    7  A    between atoms: C_30  and  C_32
REMARK    8  A    between atoms: C_32  and  C_33
REMARK                            x       y       z     vdW  Elec       q    Type
REMARK                         _______ _______ _______ _____ _____    ______ ____
ROOT
ATOM      1  C   UNL     1      -1.580  -2.422   4.640  0.00  0.00    +0.077 C 
ENDROOT
BRANCH   1   2
ATOM      2  C   UNL     1      -2.997  -2.931   4.578  0.00  0.00    +0.214 C 
ATOM      3  O   UNL     1      -3.763  -2.494   3.746  0.00  0.00    -0.276 OA
ATOM      4  N   UNL     1      -3.413  -3.873   5.449  0.00  0.00    -0.298 N 
ATOM      5  C   UNL     1      -2.498  -4.407   6.467  0.00  0.00    +0.127 C 
ATOM      6  C   UNL     1      -2.450  -5.934   6.330  0.00  0.00    +0.127 C 
ATOM      7  N   UNL     1      -3.827  -6.444   6.278  0.00  0.00    -0.295 N 
ATOM      8  C   UNL     1      -4.742  -5.910   5.260  0.00  0.00    +0.090 C 
ATOM      9  C   UNL     1      -4.792  -4.379   5.400  0.00  0.00    +0.130 C 
ATOM     10  C   UNL     1      -4.238  -6.288   3.866  0.00  0.00    +0.029 C 
ATOM     11  C   UNL     1      -4.243  -7.385   7.148  0.00  0.00    +0.220 C 
ATOM     12  O   UNL     1      -5.382  -7.799   7.096  0.00  0.00    -0.275 OA
BRANCH  11  13
ATOM     13  C   UNL     1      -3.293  -7.924   8.187  0.00  0.00    +0.131 C 
BRANCH  13  14
ATOM     14  C   UNL     1      -4.000  -8.956   9.027  0.00  0.00    -0.038 A 
ATOM     15  C   UNL     1      -4.675  -8.572  10.170  0.00  0.00    +0.007 A 
ATOM     16  C   UNL     1      -5.324  -9.517  10.941  0.00  0.00    +0.038 A 
ATOM     17  C   UNL     1      -5.298 -10.850  10.568  0.00  0.00    +0.123 A 
ATOM     18  C   UNL     1      -4.622 -11.234   9.423  0.00  0.00    +0.038 A 
ATOM     19  C   UNL     1      -3.978 -10.286   8.650  0.00  0.00    +0.007 A 
ATOM     20  F   UNL     1      -5.932 -11.775  11.322  0.00  0.00    -0.205 F 
ENDBRANCH  13  14
ENDBRANCH  11  13
ENDBRANCH   1   2
BRANCH   1  21
ATOM     21  C   UNL     1      -1.369  -1.368   3.551  0.00  0.00    -0.068 C 
BRANCH  21  30
ATOM     22  C   UNL     1       0.243   0.050   2.492  0.00  0.00    -0.006 C 
ATOM     23  C   UNL     1       1.644   0.640   2.620  0.00  0.00    -0.047 A 
ATOM     24  C   UNL     1       2.341   1.229   1.568  0.00  0.00    +0.010 A 
ATOM     25  C   UNL     1       3.583   1.725   1.772  0.00  0.00    +0.045 A 
ATOM     26  S   UNL     1       3.839   1.376   3.506  0.00  0.00    -0.101 S 
ATOM     27  C   UNL     1       2.280   0.602   3.825  0.00  0.00    -0.010 A 
ATOM     28  C   UNL     1       1.740   0.030   5.095  0.00  0.00    +0.024 C 
ATOM     29  C   UNL     1       0.230  -0.194   4.897  0.00  0.00    -0.072 C 
ATOM     30  N   UNL     1       0.012  -0.871   3.611  0.00  0.00    +0.388 N 
ATOM     31  H   UNL     1       0.648  -1.651   3.536  0.00  0.00    -0.080 HD
BRANCH  22  38
ATOM     32  C   UNL     1      -0.648   1.422   0.111  0.00  0.00    +0.044 C 
ATOM     33  C   UNL     1      -0.299  -0.043   0.050  0.00  0.00    -0.049 A 
ATOM     34  C   UNL     1      -0.400  -0.728  -1.146  0.00  0.00    +0.003 A 
ATOM     35  C   UNL     1      -0.080  -2.072  -1.202  0.00  0.00    +0.000 A 
ATOM     36  C   UNL     1       0.342  -2.730  -0.061  0.00  0.00    +0.000 A 
ATOM     37  C   UNL     1       0.443  -2.044   1.134  0.00  0.00    +0.002 A 
ATOM     38  C   UNL     1       0.127  -0.699   1.189  0.00  0.00    -0.054 A 
ENDBRANCH  22  38
ENDBRANCH  21  30
ENDBRANCH   1  21
TORSDOF 6
