REMARK  Name = ZINC60155736
REMARK  13 active torsions:
REMARK  status: ('A' for Active; 'I' for Inactive)
REMARK    1  A    between atoms: C_1  and  C_2
REMARK    2  A    between atoms: C_5  and  C_8
REMARK    3  A    between atoms: C_8  and  C_10
REMARK    4  A    between atoms: C_8  and  N_29
REMARK    5  A    between atoms: C_10  and  N_11
REMARK    6  A    between atoms: C_12  and  C_14
REMARK    7  A    between atoms: N_17  and  C_22
REMARK    8  A    between atoms: C_18  and  C_19
REMARK    9  A    between atoms: C_19  and  C_20
REMARK   10  A    between atoms: C_19  and  C_21
REMARK   11  A    between atoms: C_25  and  C_28
REMARK   12  A    between atoms: N_29  and  C_30
REMARK   13  A    between atoms: N_29  and  C_31
REMARK                            x       y       z     vdW  Elec       q    Type
REMARK                         _______ _______ _______ _____ _____    ______ ____
ROOT
ATOM      1  N   UNL     1      -1.343  -5.966   0.264  0.00  0.00    -0.312 N 
ATOM      2  C   UNL     1      -2.305  -6.910   0.250  0.00  0.00    +0.247 C 
ATOM      3  O   UNL     1      -3.467  -6.591   0.085  0.00  0.00    -0.270 OA
ATOM      4  H   UNL     1      -0.416  -6.221   0.395  0.00  0.00    +0.149 HD
ENDROOT
BRANCH   2   5
ATOM      5  C   UNL     1      -1.949  -8.328   0.434  0.00  0.00    +0.078 A 
ATOM      6  C   UNL     1      -0.643  -8.862   0.512  0.00  0.00    +0.148 A 
ATOM      7  N   UNL     1      -0.742 -10.153   0.676  0.00  0.00    -0.174 NA
ATOM      8  N   UNL     1      -2.097 -10.503   0.710  0.00  0.00    -0.236 N 
ATOM      9  C   UNL     1      -2.830  -9.384   0.568  0.00  0.00    +0.060 A 
BRANCH   8  10
ATOM     10  C   UNL     1      -2.604 -11.799   0.872  0.00  0.00    +0.066 A 
ATOM     11  C   UNL     1      -3.743 -12.010   1.638  0.00  0.00    +0.028 A 
ATOM     12  C   UNL     1      -4.240 -13.289   1.795  0.00  0.00    +0.005 A 
ATOM     13  C   UNL     1      -3.606 -14.359   1.191  0.00  0.00    -0.050 A 
ATOM     14  C   UNL     1      -2.471 -14.152   0.427  0.00  0.00    +0.005 A 
ATOM     15  C   UNL     1      -1.972 -12.874   0.261  0.00  0.00    +0.028 A 
ATOM     16  C   UNL     1      -4.151 -15.753   1.365  0.00  0.00    +0.044 C 
ENDBRANCH   8  10
BRANCH   9  17
ATOM     17  C   UNL     1      -4.334  -9.298   0.554  0.00  0.00    +0.032 C 
ATOM     18  C   UNL     1      -4.801  -8.340   1.652  0.00  0.00    +0.014 C 
ATOM     19  C   UNL     1      -4.803  -8.780  -0.808  0.00  0.00    +0.014 C 
ENDBRANCH   9  17
ENDBRANCH   2   5
BRANCH   1  20
ATOM     20  C   UNL     1      -1.697  -4.556   0.082  0.00  0.00    +0.094 C 
BRANCH  20  21
ATOM     21  C   UNL     1      -0.421  -3.715   0.010  0.00  0.00    -0.021 C 
BRANCH  21  26
ATOM     22  C   UNL     1       2.630  -5.240  -4.655  0.00  0.00    +0.044 C 
ATOM     23  C   UNL     1       1.834  -4.843  -3.438  0.00  0.00    -0.050 A 
ATOM     24  C   UNL     1       2.185  -5.330  -2.193  0.00  0.00    +0.003 A 
ATOM     25  C   UNL     1       1.456  -4.965  -1.077  0.00  0.00    +0.002 A 
ATOM     26  C   UNL     1       0.375  -4.112  -1.206  0.00  0.00    -0.059 A 
ATOM     27  C   UNL     1       0.025  -3.624  -2.451  0.00  0.00    +0.002 A 
ATOM     28  C   UNL     1       0.757  -3.986  -3.567  0.00  0.00    +0.003 A 
ENDBRANCH  21  26
BRANCH  21  29
ATOM     29  N   UNL     1      -0.776  -2.293  -0.080  0.00  0.00    +0.382 N 
ATOM     30  C   UNL     1      -1.476  -1.884   1.145  0.00  0.00    -0.096 C 
ATOM     31  C   UNL     1       0.445  -1.492  -0.237  0.00  0.00    -0.096 C 
ATOM     32  H   UNL     1      -1.379  -2.147  -0.876  0.00  0.00    -0.082 HD
ENDBRANCH  21  29
ENDBRANCH  20  21
ENDBRANCH   1  20
TORSDOF 7
