REMARK  Name = ZINC08789586
REMARK  10 active torsions:
REMARK  status: ('A' for Active; 'I' for Inactive)
REMARK    1  A    between atoms: C_1  and  C_2
REMARK    2  A    between atoms: N_6  and  O_7
REMARK    3  A    between atoms: O_7  and  C_8
REMARK    4  A    between atoms: C_8  and  C_9
REMARK    5  A    between atoms: N_11  and  C_12
REMARK    6  A    between atoms: C_12  and  C_13
REMARK    7  A    between atoms: C_13  and  C_14
REMARK    8  A    between atoms: C_31  and  C_40
REMARK    9  A    between atoms: C_36  and  C_37
REMARK   10  A    between atoms: C_36  and  O_39
REMARK                            x       y       z     vdW  Elec       q    Type
REMARK                         _______ _______ _______ _____ _____    ______ ____
ROOT
ATOM      1  C   UNL     1      -2.415   2.567   6.703  0.00  0.00    +0.016 C 
ATOM      2  C   UNL     1      -1.139   2.960   5.956  0.00  0.00    -0.007 C 
ATOM      3  C   UNL     1      -1.538   3.480   4.587  0.00  0.00    +0.017 C 
ATOM      4  C   UNL     1      -1.833   2.340   3.612  0.00  0.00    +0.059 C 
ATOM      5  C   UNL     1      -0.585   1.483   3.530  0.00  0.00    +0.080 C 
ATOM      6  N   UNL     1      -0.073   1.130   2.393  0.00  0.00    -0.089 NA
ATOM      7  C   UNL     1       0.012   1.067   4.811  0.00  0.00    +0.026 C 
ATOM      8  C   UNL     1      -0.237   1.764   5.918  0.00  0.00    -0.062 C 
ATOM      9  C   UNL     1       0.360   1.262   7.217  0.00  0.00    +0.031 C 
ATOM     10  C   UNL     1       1.006   2.448   7.937  0.00  0.00    +0.008 C 
ATOM     11  C   UNL     1      -0.036   3.554   8.124  0.00  0.00    -0.003 C 
ATOM     12  C   UNL     1      -0.457   4.084   6.746  0.00  0.00    +0.002 C 
ATOM     13  C   UNL     1      -1.413   5.267   6.861  0.00  0.00    +0.005 C 
ATOM     14  C   UNL     1      -0.833   6.382   7.745  0.00  0.00    +0.011 C 
ATOM     15  C   UNL     1      -0.538   5.769   9.101  0.00  0.00    +0.011 C 
ATOM     16  C   UNL     1       0.578   4.711   8.891  0.00  0.00    +0.002 C 
ATOM     17  C   UNL     1       0.993   4.407  10.335  0.00  0.00    +0.008 C 
ATOM     18  C   UNL     1       1.004   5.813  10.996  0.00  0.00    +0.049 C 
ATOM     19  C   UNL     1       0.053   6.699  10.155  0.00  0.00    +0.132 C 
ATOM     20  C   UNL     1      -1.798   5.097   9.650  0.00  0.00    +0.015 C 
ENDROOT
BRANCH  19  21
ATOM     21  C   UNL     1       0.807   7.787   9.509  0.00  0.00    -0.070 C 
ATOM     22  C   UNL     1       1.408   8.654   8.995  0.00  0.00    +0.007 C 
ENDBRANCH  19  21
BRANCH  19  23
ATOM     23  O   UNL     1      -0.984   7.235  10.979  0.00  0.00    -0.376 OA
ATOM     24  H   UNL     1      -0.667   7.835  11.669  0.00  0.00    +0.211 HD
ENDBRANCH  19  23
BRANCH   6  25
ATOM     25  O   UNL     1      -0.682   1.547   1.184  0.00  0.00    -0.384 OA
BRANCH  25  26
ATOM     26  C   UNL     1      -0.013   1.086   0.008  0.00  0.00    +0.358 C 
BRANCH  26  27
ATOM     27  C   UNL     1      -0.742   1.585  -1.213  0.00  0.00    +0.253 C 
ATOM     28  O   UNL     1      -1.736   2.268  -1.088  0.00  0.00    -0.272 OA
ATOM     29  N   UNL     1      -0.288   1.272  -2.443  0.00  0.00    -0.312 N 
ATOM     30  H   UNL     1       0.507   0.726  -2.543  0.00  0.00    +0.149 HD
BRANCH  29  31
ATOM     31  C   UNL     1      -0.997   1.758  -3.630  0.00  0.00    +0.109 C 
BRANCH  31  32
ATOM     32  C   UNL     1      -0.281   1.264  -4.889  0.00  0.00    +0.054 C 
BRANCH  32  33
ATOM     33  C   UNL     1      -1.010   1.763  -6.110  0.00  0.00    -0.046 A 
ATOM     34  C   UNL     1      -2.018   1.002  -6.671  0.00  0.00    +0.006 A 
ATOM     35  C   UNL     1      -2.690   1.462  -7.788  0.00  0.00    +0.038 A 
ATOM     36  C   UNL     1      -2.347   2.679  -8.351  0.00  0.00    +0.123 A 
ATOM     37  C   UNL     1      -1.333   3.438  -7.790  0.00  0.00    +0.038 A 
ATOM     38  C   UNL     1      -0.666   2.979  -6.670  0.00  0.00    +0.006 A 
ATOM     39  F   UNL     1      -3.000   3.127  -9.445  0.00  0.00    -0.205 F 
ENDBRANCH  32  33
ENDBRANCH  31  32
ENDBRANCH  29  31
ENDBRANCH  26  27
ENDBRANCH  25  26
ENDBRANCH   6  25
TORSDOF 8
