REMARK  Name = ZINC26835160
REMARK  14 active torsions:
REMARK  status: ('A' for Active; 'I' for Inactive)
REMARK    1  A    between atoms: C_1  and  C_2
REMARK    2  A    between atoms: C_2  and  O_3
REMARK    3  A    between atoms: O_3  and  C_4
REMARK    4  A    between atoms: C_4  and  C_6
REMARK    5  A    between atoms: C_7  and  C_37
REMARK    6  A    between atoms: C_9  and  C_36
REMARK    7  A    between atoms: C_11  and  O_13
REMARK    8  A    between atoms: O_13  and  C_14
REMARK    9  A    between atoms: C_14  and  C_15
REMARK   10  A    between atoms: C_16  and  C_18
REMARK   11  A    between atoms: C_19  and  C_35
REMARK   12  A    between atoms: C_22  and  C_23
REMARK   13  A    between atoms: C_23  and  C_24
REMARK   14  A    between atoms: C_24  and  C_25
REMARK                            x       y       z     vdW  Elec       q    Type
REMARK                         _______ _______ _______ _____ _____    ______ ____
ROOT
ATOM      1  C   UNL     1       0.669  -1.528   2.347  0.00  0.00    +0.070 C 
ATOM      2  C   UNL     1       0.548  -2.896   2.538  0.00  0.00    +0.049 C 
ATOM      3  N   UNL     1       1.048  -3.500   3.598  0.00  0.00    -0.256 NA
ATOM      4  C   UNL     1       1.703  -2.908   4.578  0.00  0.00    +0.049 C 
ATOM      5  C   UNL     1       1.936  -1.542   4.586  0.00  0.00    +0.070 C 
ATOM      6  C   UNL     1       2.628  -0.932   5.626  0.00  0.00    +0.338 C 
ATOM      7  O   UNL     1       2.837   0.384   5.607  0.00  0.00    -0.245 OA
ATOM      8  C   UNL     1       1.410  -0.738   3.410  0.00  0.00    +0.101 C 
ATOM      9  C   UNL     1       2.213  -3.742   5.724  0.00  0.00    +0.066 C 
ATOM     10  C   UNL     1      -0.176  -3.717   1.504  0.00  0.00    +0.066 C 
ENDROOT
BRANCH   8  11
ATOM     11  C   UNL     1       0.480   0.319   3.946  0.00  0.00    +0.030 A 
ATOM     12  C   UNL     1      -0.702   0.087   4.672  0.00  0.00    +0.085 A 
ATOM     13  N   UNL     1      -1.232   1.242   4.962  0.00  0.00    -0.083 NA
ATOM     14  O   UNL     1      -0.397   2.252   4.424  0.00  0.00    -0.359 OA
ATOM     15  C   UNL     1       0.638   1.651   3.817  0.00  0.00    +0.142 A 
ATOM     16  C   UNL     1      -1.258  -1.261   5.050  0.00  0.00    +0.069 C 
BRANCH  15  17
ATOM     17  C   UNL     1       1.776   2.343   3.112  0.00  0.00    +0.082 C 
BRANCH  17  18
ATOM     18  C   UNL     1       1.376   2.636   1.664  0.00  0.00    +0.043 C 
BRANCH  18  19
ATOM     19  C   UNL     1       2.460   3.443   0.997  0.00  0.00    -0.039 A 
ATOM     20  C   UNL     1       2.376   4.801   0.957  0.00  0.00    +0.004 A 
ATOM     21  C   UNL     1       3.368   5.564   0.345  0.00  0.00    +0.001 A 
ATOM     22  C   UNL     1       4.450   4.973  -0.232  0.00  0.00    +0.008 A 
ATOM     23  C   UNL     1       4.572   3.573  -0.211  0.00  0.00    -0.018 A 
ATOM     24  C   UNL     1       3.565   2.798   0.418  0.00  0.00    -0.015 A 
ATOM     25  C   UNL     1       3.690   1.398   0.444  0.00  0.00    +0.009 A 
ATOM     26  C   UNL     1       4.775   0.808  -0.127  0.00  0.00    +0.001 A 
ATOM     27  C   UNL     1       5.768   1.571  -0.739  0.00  0.00    +0.001 A 
ATOM     28  C   UNL     1       5.675   2.927  -0.796  0.00  0.00    +0.008 A 
ENDBRANCH  18  19
ENDBRANCH  17  18
ENDBRANCH  15  17
ENDBRANCH   8  11
BRANCH   1  29
ATOM     29  C   UNL     1       0.136  -0.906   1.223  0.00  0.00    +0.338 C 
ATOM     30  O   UNL     1       0.923  -0.613   0.189  0.00  0.00    -0.245 OA
BRANCH  29  31
ATOM     31  O   UNL     1      -1.176  -0.600   1.180  0.00  0.00    -0.462 OA
BRANCH  31  33
ATOM     32  C   UNL     1      -3.148   0.321   0.130  0.00  0.00    +0.048 C 
ATOM     33  C   UNL     1      -1.678  -0.064  -0.046  0.00  0.00    +0.229 C 
ENDBRANCH  31  33
ENDBRANCH  29  31
ENDBRANCH   1  29
BRANCH   6  34
ATOM     34  O   UNL     1       3.087  -1.673   6.655  0.00  0.00    -0.462 OA
BRANCH  34  35
ATOM     35  C   UNL     1       3.790  -0.981   7.689  0.00  0.00    +0.229 C 
ATOM     36  C   UNL     1       4.231  -1.979   8.762  0.00  0.00    +0.048 C 
ENDBRANCH  34  35
ENDBRANCH   6  34
TORSDOF 9
