REMARK  Name = ZINC39990345
REMARK  11 active torsions:
REMARK  status: ('A' for Active; 'I' for Inactive)
REMARK    1  A    between atoms: C_1  and  C_2
REMARK    2  A    between atoms: C_2  and  C_3
REMARK    3  A    between atoms: C_3  and  C_4
REMARK    4  A    between atoms: C_4  and  N_5
REMARK    5  A    between atoms: C_6  and  N_31
REMARK    6  A    between atoms: C_7  and  C_15
REMARK    7  A    between atoms: C_8  and  C_14
REMARK    8  A    between atoms: C_9  and  C_12
REMARK    9  A    between atoms: N_19  and  C_23
REMARK   10  A    between atoms: C_23  and  C_24
REMARK   11  A    between atoms: C_27  and  C_30
REMARK                            x       y       z     vdW  Elec       q    Type
REMARK                         _______ _______ _______ _____ _____    ______ ____
ROOT
ATOM      1  N   UNL     1       1.276  -2.447   2.837  0.00  0.00    -0.295 N 
ATOM      2  C   UNL     1       2.595  -2.689   2.621  0.00  0.00    +0.112 A 
ATOM      3  C   UNL     1       3.319  -3.522   3.491  0.00  0.00    +0.019 A 
ATOM      4  C   UNL     1       2.667  -4.105   4.591  0.00  0.00    -0.017 A 
ATOM      5  C   UNL     1       1.315  -3.840   4.790  0.00  0.00    +0.120 A 
ATOM      6  C   UNL     1       0.631  -2.988   3.886  0.00  0.00    +0.270 A 
ATOM      7  O   UNL     1      -0.551  -2.748   4.058  0.00  0.00    -0.266 OA
ATOM      8  C   UNL     1       3.420  -5.003   5.539  0.00  0.00    +0.046 C 
ENDROOT
BRANCH   3   9
ATOM      9  C   UNL     1       4.740  -3.781   3.252  0.00  0.00    +0.032 C 
ATOM     10  C   UNL     1       5.670  -3.344   4.144  0.00  0.00    +0.077 C 
ATOM     11  C   UNL     1       7.087  -3.524   4.141  0.00  0.00    +0.259 C 
ATOM     12  O   UNL     1       7.638  -4.147   3.252  0.00  0.00    -0.269 OA
ATOM     13  N   UNL     1       7.782  -2.994   5.133  0.00  0.00    -0.251 N 
ATOM     14  C   UNL     1       7.170  -2.303   6.120  0.00  0.00    +0.121 C 
ATOM     15  S   UNL     1       7.865  -1.541   7.486  0.00  0.00    -0.027 S 
ATOM     16  S   UNL     1       5.452  -2.380   5.634  0.00  0.00    -0.061 S 
BRANCH  13  17
ATOM     17  C   UNL     1       9.237  -3.160   5.163  0.00  0.00    +0.150 C 
BRANCH  17  18
ATOM     18  C   UNL     1       9.887  -2.017   4.426  0.00  0.00    -0.030 A 
ATOM     19  C   UNL     1      10.130  -2.119   3.069  0.00  0.00    +0.005 A 
ATOM     20  C   UNL     1      10.727  -1.071   2.393  0.00  0.00    +0.003 A 
ATOM     21  C   UNL     1      11.080   0.079   3.075  0.00  0.00    -0.050 A 
ATOM     22  C   UNL     1      10.837   0.181   4.431  0.00  0.00    +0.003 A 
ATOM     23  C   UNL     1      10.236  -0.865   5.106  0.00  0.00    +0.005 A 
ATOM     24  C   UNL     1      11.732   1.221   2.338  0.00  0.00    +0.044 C 
ENDBRANCH  17  18
ENDBRANCH  13  17
ENDBRANCH   3   9
BRANCH   2  25
ATOM     25  N   UNL     1       3.221  -2.120   1.551  0.00  0.00    -0.316 N 
ATOM     26  C   UNL     1       3.930  -0.841   1.692  0.00  0.00    +0.106 C 
ATOM     27  C   UNL     1       5.362  -1.011   1.176  0.00  0.00    +0.019 C 
ATOM     28  C   UNL     1       5.323  -1.554  -0.255  0.00  0.00    +0.003 C 
ATOM     29  C   UNL     1       4.641  -2.924  -0.264  0.00  0.00    +0.019 C 
ATOM     30  C   UNL     1       3.205  -2.778   0.238  0.00  0.00    +0.106 C 
ENDBRANCH   2  25
BRANCH   5  31
ATOM     31  C   UNL     1       0.622  -4.419   5.902  0.00  0.00    +0.105 C 
ATOM     32  N   UNL     1       0.072  -4.878   6.783  0.00  0.00    -0.191 NA
ENDBRANCH   5  31
BRANCH   1  33
ATOM     33  C   UNL     1       0.545  -1.575   1.915  0.00  0.00    +0.126 C 
BRANCH  33  34
ATOM     34  C   UNL     1       0.525  -0.149   2.469  0.00  0.00    +0.021 C 
BRANCH  34  36
ATOM     35  C   UNL     1      -0.259   2.188   2.059  0.00  0.00    +0.004 C 
ATOM     36  C   UNL     1      -0.239   0.762   1.505  0.00  0.00    -0.002 C 
ENDBRANCH  34  36
ENDBRANCH  33  34
ENDBRANCH   1  33
TORSDOF 8
