REMARK  Name = ZINC09461240
REMARK  18 active torsions:
REMARK  status: ('A' for Active; 'I' for Inactive)
REMARK    1  A    between atoms: C_1  and  C_2
REMARK    2  A    between atoms: C_2  and  C_3
REMARK    3  A    between atoms: C_3  and  C_4
REMARK    4  A    between atoms: C_4  and  C_5
REMARK    5  A    between atoms: C_5  and  C_7
REMARK    6  A    between atoms: C_5  and  C_9
REMARK    7  A    between atoms: C_7  and  C_8
REMARK    8  A    between atoms: C_9  and  N_10
REMARK    9  A    between atoms: C_14  and  C_15
REMARK   10  A    between atoms: C_16  and  N_27
REMARK   11  A    between atoms: C_19  and  C_26
REMARK   12  A    between atoms: N_27  and  C_28
REMARK   13  A    between atoms: C_28  and  C_29
REMARK   14  A    between atoms: C_29  and  C_30
REMARK   15  A    between atoms: C_30  and  O_31
REMARK   16  A    between atoms: O_31  and  C_32
REMARK   17  A    between atoms: C_32  and  C_33
REMARK   18  A    between atoms: C_32  and  C_34
REMARK                            x       y       z     vdW  Elec       q    Type
REMARK                         _______ _______ _______ _____ _____    ______ ____
ROOT
ATOM      1  C   UNL     1      -2.128   5.534  -0.096  0.00  0.00    +0.081 A 
ATOM      2  C   UNL     1      -1.024   6.380  -0.355  0.00  0.00    +0.134 A 
ATOM      3  N   UNL     1       0.184   5.854  -0.490  0.00  0.00    -0.214 NA
ATOM      4  C   UNL     1       0.391   4.541  -0.389  0.00  0.00    +0.145 A 
ATOM      5  C   UNL     1       1.696   4.039  -0.542  0.00  0.00    -0.007 A 
ATOM      6  C   UNL     1       1.917   2.698  -0.441  0.00  0.00    +0.008 A 
ATOM      7  C   UNL     1       0.841   1.837  -0.185  0.00  0.00    +0.019 A 
ATOM      8  C   UNL     1      -0.407   2.336  -0.046  0.00  0.00    +0.096 A 
ATOM      9  N   UNL     1      -0.638   3.676  -0.141  0.00  0.00    -0.267 N 
ATOM     10  C   UNL     1      -1.897   4.142   0.009  0.00  0.00    +0.267 A 
ATOM     11  O   UNL     1      -2.819   3.376   0.232  0.00  0.00    -0.267 OA
ATOM     12  C   UNL     1       2.842   4.979  -0.818  0.00  0.00    +0.047 C 
ENDROOT
BRANCH   1  17
ATOM     13  N   UNL     1      -4.873   8.566   2.310  0.00  0.00    -0.255 N 
ATOM     14  C   UNL     1      -4.895   7.662   1.347  0.00  0.00    +0.258 C 
ATOM     15  O   UNL     1      -5.935   7.378   0.778  0.00  0.00    -0.269 OA
ATOM     16  C   UNL     1      -3.671   7.024   0.997  0.00  0.00    +0.077 C 
ATOM     17  C   UNL     1      -3.430   6.066   0.054  0.00  0.00    +0.037 C 
ATOM     18  S   UNL     1      -2.535   7.824   2.121  0.00  0.00    -0.061 S 
ATOM     19  C   UNL     1      -3.718   8.886   2.936  0.00  0.00    +0.121 C 
ATOM     20  S   UNL     1      -3.456  10.021   4.191  0.00  0.00    -0.027 S 
BRANCH  13  21
ATOM     21  C   UNL     1      -6.115   9.237   2.700  0.00  0.00    +0.118 C 
BRANCH  21  22
ATOM     22  C   UNL     1      -6.301  10.498   1.854  0.00  0.00    +0.007 C 
BRANCH  22  23
ATOM     23  C   UNL     1      -6.496  10.105   0.388  0.00  0.00    +0.002 C 
ATOM     24  C   UNL     1      -6.542  11.367  -0.476  0.00  0.00    +0.004 C 
ENDBRANCH  22  23
BRANCH  22  25
ATOM     25  C   UNL     1      -7.531  11.265   2.345  0.00  0.00    +0.005 C 
BRANCH  25  26
ATOM     26  C   UNL     1      -7.284  11.769   3.768  0.00  0.00    +0.000 C 
BRANCH  26  28
ATOM     27  C   UNL     1      -8.306  12.943   5.722  0.00  0.00    +0.004 C 
ATOM     28  C   UNL     1      -8.553  12.439   4.299  0.00  0.00    -0.003 C 
ENDBRANCH  26  28
ENDBRANCH  25  26
ENDBRANCH  22  25
ENDBRANCH  21  22
ENDBRANCH  13  21
ENDBRANCH   1  17
BRANCH   2  29
ATOM     29  N   UNL     1      -1.204   7.742  -0.465  0.00  0.00    -0.328 N 
ATOM     30  H   UNL     1      -2.091   8.123  -0.365  0.00  0.00    +0.147 HD
BRANCH  29  31
ATOM     31  C   UNL     1      -0.058   8.613  -0.734  0.00  0.00    +0.105 C 
BRANCH  31  32
ATOM     32  C   UNL     1      -0.528  10.067  -0.808  0.00  0.00    +0.047 C 
BRANCH  32  33
ATOM     33  C   UNL     1       0.669  10.977  -1.089  0.00  0.00    +0.161 C 
BRANCH  33  34
ATOM     34  O   UNL     1       0.230  12.335  -1.159  0.00  0.00    -0.377 OA
BRANCH  34  35
ATOM     35  C   UNL     1       1.277  13.272  -1.418  0.00  0.00    +0.112 C 
ATOM     36  C   UNL     1       1.428  13.462  -2.929  0.00  0.00    +0.037 C 
ATOM     37  C   UNL     1       0.933  14.613  -0.768  0.00  0.00    +0.037 C 
ENDBRANCH  34  35
ENDBRANCH  33  34
ENDBRANCH  32  33
ENDBRANCH  31  32
ENDBRANCH  29  31
ENDBRANCH   2  29
TORSDOF 13
