REMARK  Name = ZINC08725519
REMARK  7 active torsions:
REMARK  status: ('A' for Active; 'I' for Inactive)
REMARK    1  A    between atoms: C_6  and  C_10
REMARK    2  A    between atoms: C_10  and  C_11
REMARK    3  A    between atoms: C_11  and  N_12
REMARK    4  A    between atoms: N_12  and  C_13
REMARK    5  A    between atoms: C_16  and  S_22
REMARK    6  A    between atoms: C_18  and  N_19
REMARK    7  A    between atoms: S_22  and  N_25
REMARK                            x       y       z     vdW  Elec       q    Type
REMARK                         _______ _______ _______ _____ _____    ______ ____
ROOT
ATOM      1  C   UNL     1       5.463  -5.507   2.537  0.00  0.00    +0.058 A 
ATOM      2  C   UNL     1       5.302  -4.816   3.731  0.00  0.00    +0.027 A 
ATOM      3  C   UNL     1       5.511  -5.461   4.934  0.00  0.00    +0.030 A 
ATOM      4  C   UNL     1       5.881  -6.794   4.951  0.00  0.00    +0.108 A 
ATOM      5  C   UNL     1       6.043  -7.484   3.764  0.00  0.00    +0.063 A 
ATOM      6  C   UNL     1       5.830  -6.847   2.557  0.00  0.00    +0.149 A 
ENDROOT
BRANCH   6   7
ATOM      7  N   UNL     1       5.997  -7.589   1.288  0.00  0.00    +0.058 N 
ATOM      8  O   UNL     1       5.250  -7.378   0.361  0.00  0.00    -0.126 OA
ATOM      9  O   UNL     1       6.882  -8.406   1.177  0.00  0.00    -0.126 OA
ENDBRANCH   6   7
BRANCH   4  10
ATOM     10  S   UNL     1       6.148  -7.613   6.488  0.00  0.00    +0.061 S 
ATOM     11  O   UNL     1       7.016  -8.705   6.221  0.00  0.00    -0.153 OA
ATOM     12  O   UNL     1       6.463  -6.603   7.437  0.00  0.00    -0.153 OA
BRANCH  10  13
ATOM     13  N   UNL     1       4.698  -8.263   6.954  0.00  0.00    -0.177 NA
ATOM     14  C   UNL     1       3.807  -7.462   7.763  0.00  0.00    +0.109 C 
ATOM     15  C   UNL     1       4.124  -7.687   9.262  0.00  0.00    +0.017 C 
ATOM     16  C   UNL     1       3.694  -9.031   9.679  0.00  0.00    +0.001 C 
ATOM     17  C   UNL     1       4.414 -10.171   8.966  0.00  0.00    +0.001 C 
ATOM     18  C   UNL     1       3.722 -10.458   7.656  0.00  0.00    +0.017 C 
ATOM     19  C   UNL     1       4.366  -9.634   6.521  0.00  0.00    +0.109 C 
ENDBRANCH  10  13
ENDBRANCH   4  10
BRANCH   1  20
ATOM     20  N   UNL     1       5.252  -4.858   1.318  0.00  0.00    -0.342 N 
ATOM     21  H   UNL     1       5.446  -5.315   0.485  0.00  0.00    +0.146 HD
BRANCH  20  22
ATOM     22  C   UNL     1       4.736  -3.487   1.298  0.00  0.00    +0.108 C 
BRANCH  22  23
ATOM     23  C   UNL     1       4.597  -3.015  -0.150  0.00  0.00    +0.073 C 
BRANCH  23  29
ATOM     24  C   UNL     1       1.791   2.280  -0.319  0.00  0.00    +0.005 A 
ATOM     25  C   UNL     1       3.095   2.778  -0.161  0.00  0.00    +0.018 A 
ATOM     26  C   UNL     1       4.141   1.930  -0.067  0.00  0.00    +0.092 A 
ATOM     27  N   UNL     1       3.948   0.580  -0.125  0.00  0.00    -0.308 N 
ATOM     28  C   UNL     1       4.808  -0.482  -0.058  0.00  0.00    +0.113 A 
ATOM     29  C   UNL     1       4.066  -1.605  -0.171  0.00  0.00    +0.036 A 
ATOM     30  N   UNL     1       2.784  -1.257  -0.303  0.00  0.00    -0.343 N 
ATOM     31  C   UNL     1       2.687   0.064  -0.278  0.00  0.00    +0.115 A 
ATOM     32  C   UNL     1       1.585   0.937  -0.377  0.00  0.00    +0.045 A 
ATOM     33  H   UNL     1       2.042  -1.874  -0.402  0.00  0.00    +0.167 HD
ENDBRANCH  23  29
ENDBRANCH  22  23
ENDBRANCH  20  22
ENDBRANCH   1  20
TORSDOF 7
