REMARK  Name = ZINC64364162
REMARK  9 active torsions:
REMARK  status: ('A' for Active; 'I' for Inactive)
REMARK    1  A    between atoms: C_1  and  C_2
REMARK    2  A    between atoms: C_2  and  C_3
REMARK    3  A    between atoms: C_2  and  C_4
REMARK    4  A    between atoms: C_4  and  C_6
REMARK    5  A    between atoms: C_4  and  N_24
REMARK    6  A    between atoms: C_11  and  C_14
REMARK    7  A    between atoms: C_25  and  O_27
REMARK    8  A    between atoms: O_27  and  C_28
REMARK    9  A    between atoms: C_28  and  C_29
REMARK                            x       y       z     vdW  Elec       q    Type
REMARK                         _______ _______ _______ _____ _____    ______ ____
ROOT
ATOM      1  C   UNL     1      -0.200  -0.045  -2.548  0.00  0.00    +0.237 C 
ATOM      2  O   UNL     1      -0.827  -0.808  -3.252  0.00  0.00    -0.274 OA
ATOM      3  N   UNL     1      -0.228   1.279  -2.795  0.00  0.00    -0.296 N 
ATOM      4  C   UNL     1      -0.903   1.820  -3.987  0.00  0.00    +0.113 C 
ATOM      5  C   UNL     1      -2.053   2.713  -3.516  0.00  0.00    +0.054 C 
ATOM      6  C   UNL     1      -1.593   3.621  -2.414  0.00  0.00    -0.043 C 
ATOM      7  C   UNL     1      -0.505   3.414  -1.683  0.00  0.00    -0.004 C 
ATOM      8  C   UNL     1       0.408   2.240  -1.883  0.00  0.00    +0.135 C 
ENDROOT
BRANCH   6   9
ATOM      9  C   UNL     1      -2.365   4.769  -2.138  0.00  0.00    -0.016 C 
ATOM     10  C   UNL     1      -3.600   5.099  -2.680  0.00  0.00    +0.003 A 
ATOM     11  C   UNL     1      -4.436   4.448  -3.618  0.00  0.00    +0.013 A 
ATOM     12  C   UNL     1      -5.615   5.013  -3.972  0.00  0.00    +0.039 A 
ATOM     13  C   UNL     1      -6.036   6.236  -3.432  0.00  0.00    +0.125 A 
ATOM     14  C   UNL     1      -5.286   6.914  -2.527  0.00  0.00    +0.064 A 
ATOM     15  C   UNL     1      -4.038   6.385  -2.107  0.00  0.00    +0.046 A 
ATOM     16  N   UNL     1      -3.140   6.840  -1.259  0.00  0.00    -0.380 N 
ATOM     17  C   UNL     1      -2.023   5.893  -1.186  0.00  0.00    +0.149 C 
ATOM     18  F   UNL     1      -7.222   6.753  -3.821  0.00  0.00    -0.205 F 
ATOM     19  H   UNL     1      -3.208   7.668  -0.759  0.00  0.00    +0.160 HD
ENDBRANCH   6   9
BRANCH   1  20
ATOM     20  C   UNL     1       0.612  -0.579  -1.396  0.00  0.00    +0.165 C 
BRANCH  20  21
ATOM     21  N   UNL     1       1.238  -1.846  -1.785  0.00  0.00    -0.270 N 
ATOM     22  C   UNL     1       2.365  -2.257  -1.172  0.00  0.00    +0.401 C 
ATOM     23  O   UNL     1       2.863  -1.577  -0.296  0.00  0.00    -0.226 OA
ATOM     24  H   UNL     1       0.841  -2.388  -2.484  0.00  0.00    +0.153 HD
BRANCH  22  25
ATOM     25  O   UNL     1       2.940  -3.421  -1.529  0.00  0.00    -0.446 OA
BRANCH  25  26
ATOM     26  C   UNL     1       4.133  -3.795  -0.837  0.00  0.00    +0.269 C 
BRANCH  26  27
ATOM     27  C   UNL     1       4.629  -5.115  -1.368  0.00  0.00    -0.010 A 
ATOM     28  C   UNL     1       4.196  -6.296  -0.796  0.00  0.00    +0.007 A 
ATOM     29  C   UNL     1       4.651  -7.508  -1.283  0.00  0.00    +0.000 A 
ATOM     30  C   UNL     1       5.538  -7.537  -2.342  0.00  0.00    +0.000 A 
ATOM     31  C   UNL     1       5.971  -6.356  -2.915  0.00  0.00    +0.000 A 
ATOM     32  C   UNL     1       5.512  -5.145  -2.431  0.00  0.00    +0.007 A 
ENDBRANCH  26  27
ENDBRANCH  25  26
ENDBRANCH  22  25
ENDBRANCH  20  21
BRANCH  20  34
ATOM     33  C   UNL     1      -0.840   0.532   0.306  0.00  0.00    +0.009 C 
ATOM     34  C   UNL     1      -0.302  -0.811  -0.191  0.00  0.00    +0.012 C 
ATOM     35  C   UNL     1      -1.471  -1.708  -0.604  0.00  0.00    +0.009 C 
ENDBRANCH  20  34
ENDBRANCH   1  20
TORSDOF 7
