REMARK  Name = ZINC01490516
REMARK  6 active torsions:
REMARK  status: ('A' for Active; 'I' for Inactive)
REMARK    1  A    between atoms: N_9  and  C_10
REMARK    2  A    between atoms: N_13  and  C_16
REMARK    3  A    between atoms: C_16  and  C_17
REMARK    4  A    between atoms: N_19  and  C_20
REMARK    5  A    between atoms: C_30  and  C_32
REMARK    6  A    between atoms: C_32  and  C_33
REMARK                            x       y       z     vdW  Elec       q    Type
REMARK                         _______ _______ _______ _____ _____    ______ ____
ROOT
ATOM      1  C   UNL     1      -5.030   2.124  -2.502  0.00  0.00    +0.197 C 
ATOM      2  O   UNL     1      -6.023   2.329  -1.836  0.00  0.00    -0.278 OA
ATOM      3  N   UNL     1      -3.884   1.747  -1.902  0.00  0.00    -0.313 N 
ATOM      4  H   UNL     1      -2.983   1.562  -2.506  0.00  0.00    +0.149 HD
ENDROOT
BRANCH   3   5
ATOM      5  C   UNL     1      -3.837   1.584  -0.447  0.00  0.00    +0.081 C 
ATOM      6  C   UNL     1      -3.562   2.939   0.215  0.00  0.00    +0.027 C 
ATOM      7  C   UNL     1      -2.357   3.577  -0.473  0.00  0.00    +0.037 C 
ATOM      8  C   UNL     1      -1.204   2.609  -0.529  0.00  0.00    -0.041 A 
ATOM      9  C   UNL     1       0.062   3.125  -0.771  0.00  0.00    +0.042 A 
ATOM     10  C   UNL     1       1.159   2.288  -0.841  0.00  0.00    +0.124 A 
ATOM     11  C   UNL     1       0.994   0.924  -0.669  0.00  0.00    +0.038 A 
ATOM     12  C   UNL     1      -0.263   0.412  -0.427  0.00  0.00    +0.007 A 
ATOM     13  C   UNL     1      -1.367   1.252  -0.359  0.00  0.00    -0.039 A 
ATOM     14  C   UNL     1      -2.708   0.627  -0.072  0.00  0.00    +0.044 C 
ATOM     15  F   UNL     1       2.388   2.798  -1.076  0.00  0.00    -0.205 F 
BRANCH  14  16
ATOM     16  C   UNL     1      -2.845  -0.660  -0.889  0.00  0.00    +0.046 C 
BRANCH  16  17
ATOM     17  C   UNL     1      -4.109  -1.376  -0.489  0.00  0.00    -0.029 A 
ATOM     18  C   UNL     1      -4.131  -2.188   0.636  0.00  0.00    +0.006 A 
ATOM     19  C   UNL     1      -5.317  -2.823   0.968  0.00  0.00    +0.020 A 
ATOM     20  C   UNL     1      -6.428  -2.636   0.167  0.00  0.00    +0.111 A 
ATOM     21  N   UNL     1      -6.370  -1.861  -0.898  0.00  0.00    -0.263 NA
ATOM     22  C   UNL     1      -5.260  -1.237  -1.241  0.00  0.00    +0.114 A 
ENDBRANCH  16  17
ENDBRANCH  14  16
ENDBRANCH   3   5
BRANCH   1  23
ATOM     23  C   UNL     1      -5.079   2.292  -3.998  0.00  0.00    +0.019 C 
BRANCH  23  27
ATOM     24  C   UNL     1      -8.884   2.191  -5.945  0.00  0.00    +0.089 C 
ATOM     25  C   UNL     1      -8.774   1.752  -4.482  0.00  0.00    +0.006 C 
ATOM     26  C   UNL     1      -7.319   1.391  -4.172  0.00  0.00    -0.076 C 
ATOM     27  N   UNL     1      -6.461   2.558  -4.417  0.00  0.00    +0.386 N 
ATOM     28  C   UNL     1      -6.515   2.969  -5.826  0.00  0.00    -0.076 C 
ATOM     29  C   UNL     1      -7.945   3.377  -6.186  0.00  0.00    +0.006 C 
ATOM     30  H   UNL     1      -6.846   3.390  -3.810  0.00  0.00    -0.081 HD
BRANCH  24  39
ATOM     31  C   UNL     1     -13.218   1.351  -8.837  0.00  0.00    +0.002 A 
ATOM     32  C   UNL     1     -12.019   0.659  -8.916  0.00  0.00    +0.002 A 
ATOM     33  C   UNL     1     -10.964   0.992  -8.091  0.00  0.00    +0.028 A 
ATOM     34  C   UNL     1     -11.103   2.025  -7.177  0.00  0.00    +0.070 A 
ATOM     35  C   UNL     1     -12.315   2.730  -7.093  0.00  0.00    +0.067 A 
ATOM     36  C   UNL     1     -13.373   2.380  -7.936  0.00  0.00    +0.028 A 
ATOM     37  N   UNL     1     -12.163   3.671  -6.125  0.00  0.00    -0.306 N 
ATOM     38  C   UNL     1     -10.962   3.588  -5.616  0.00  0.00    +0.328 A 
ATOM     39  N   UNL     1     -10.264   2.592  -6.232  0.00  0.00    -0.289 N 
ATOM     40  O   UNL     1     -10.482   4.375  -4.626  0.00  0.00    -0.247 OA
ATOM     41  H   UNL     1     -12.993   4.353  -5.885  0.00  0.00    +0.170 HD
ENDBRANCH  24  39
ENDBRANCH  23  27
ENDBRANCH   1  23
TORSDOF 6
