REMARK  Name = ZINC36304244
REMARK  15 active torsions:
REMARK  status: ('A' for Active; 'I' for Inactive)
REMARK    1  A    between atoms: C_1  and  C_2
REMARK    2  A    between atoms: C_3  and  C_22
REMARK    3  A    between atoms: C_4  and  O_13
REMARK    4  A    between atoms: N_5  and  C_7
REMARK    5  A    between atoms: O_13  and  C_14
REMARK    6  A    between atoms: C_22  and  N_23
REMARK    7  A    between atoms: N_23  and  C_24
REMARK    8  A    between atoms: N_23  and  C_31
REMARK    9  A    between atoms: C_24  and  C_25
REMARK   10  A    between atoms: C_31  and  C_32
REMARK   11  A    between atoms: C_32  and  C_34
REMARK   12  A    between atoms: C_32  and  O_39
REMARK   13  A    between atoms: C_34  and  O_35
REMARK   14  A    between atoms: O_35  and  C_36
REMARK   15  A    between atoms: C_36  and  C_37
REMARK                            x       y       z     vdW  Elec       q    Type
REMARK                         _______ _______ _______ _____ _____    ______ ____
ROOT
ATOM      1  C   UNL     1       0.259   1.236   0.185  0.00  0.00    +0.068 C 
ATOM      2  C   UNL     1       0.038  -0.232  -0.074  0.00  0.00    +0.065 A 
ATOM      3  C   UNL     1      -0.009  -0.842  -1.331  0.00  0.00    +0.021 A 
ATOM      4  C   UNL     1      -0.226  -2.171  -1.143  0.00  0.00    +0.225 A 
ATOM      5  N   UNL     1      -0.312  -2.385   0.198  0.00  0.00    -0.200 N 
ATOM      6  N   UNL     1      -0.138  -1.153   0.840  0.00  0.00    -0.168 NA
ENDROOT
BRANCH   5   7
ATOM      7  C   UNL     1      -0.530  -3.619   0.825  0.00  0.00    +0.069 A 
ATOM      8  C   UNL     1      -1.466  -4.506   0.309  0.00  0.00    +0.028 A 
ATOM      9  C   UNL     1      -1.679  -5.722   0.928  0.00  0.00    +0.002 A 
ATOM     10  C   UNL     1      -0.961  -6.056   2.062  0.00  0.00    +0.000 A 
ATOM     11  C   UNL     1      -0.029  -5.176   2.579  0.00  0.00    +0.002 A 
ATOM     12  C   UNL     1       0.192  -3.961   1.960  0.00  0.00    +0.028 A 
ENDBRANCH   5   7
BRANCH   4  13
ATOM     13  O   UNL     1      -0.336  -3.113  -2.115  0.00  0.00    -0.435 OA
BRANCH  13  14
ATOM     14  C   UNL     1      -1.552  -3.291  -2.696  0.00  0.00    +0.166 A 
ATOM     15  C   UNL     1      -2.653  -2.589  -2.230  0.00  0.00    +0.052 A 
ATOM     16  C   UNL     1      -3.889  -2.771  -2.822  0.00  0.00    +0.042 A 
ATOM     17  C   UNL     1      -4.029  -3.653  -3.879  0.00  0.00    +0.126 A 
ATOM     18  C   UNL     1      -2.931  -4.356  -4.346  0.00  0.00    +0.080 A 
ATOM     19  C   UNL     1      -1.691  -4.172  -3.761  0.00  0.00    +0.168 A 
ATOM     20  F   UNL     1      -0.619  -4.853  -4.220  0.00  0.00    -0.202 F 
ATOM     21  F   UNL     1      -5.238  -3.830  -4.456  0.00  0.00    -0.205 F 
ENDBRANCH  13  14
ENDBRANCH   4  13
BRANCH   3  22
ATOM     22  C   UNL     1       0.151  -0.149  -2.660  0.00  0.00    -0.036 C 
BRANCH  22  23
ATOM     23  N   UNL     1       1.516   0.384  -2.772  0.00  0.00    +0.386 N 
ATOM     24  H   UNL     1       1.776   0.827  -1.904  0.00  0.00    -0.081 HD
BRANCH  23  25
ATOM     25  C   UNL     1       2.448  -0.714  -3.061  0.00  0.00    -0.046 C 
BRANCH  25  26
ATOM     26  C   UNL     1       2.582  -1.608  -1.827  0.00  0.00    +0.102 C 
ATOM     27  C   UNL     1       3.718  -2.641  -2.031  0.00  0.00    +0.032 C 
ATOM     28  C   UNL     1       4.105  -2.950  -0.559  0.00  0.00    +0.030 C 
ATOM     29  C   UNL     1       3.881  -1.587   0.131  0.00  0.00    +0.160 C 
ATOM     30  O   UNL     1       2.981  -0.828  -0.688  0.00  0.00    -0.378 OA
ENDBRANCH  25  26
ENDBRANCH  23  25
BRANCH  23  31
ATOM     31  C   UNL     1       1.568   1.369  -3.860  0.00  0.00    -0.044 C 
BRANCH  31  32
ATOM     32  C   UNL     1       2.942   2.042  -3.873  0.00  0.00    +0.124 C 
BRANCH  32  33
ATOM     33  O   UNL     1       3.169   2.685  -2.617  0.00  0.00    -0.391 OA
ATOM     34  H   UNL     1       2.519   3.368  -2.402  0.00  0.00    +0.210 HD
ENDBRANCH  32  33
BRANCH  32  35
ATOM     35  C   UNL     1       2.990   3.082  -4.995  0.00  0.00    +0.189 C 
BRANCH  35  36
ATOM     36  O   UNL     1       4.308   3.628  -5.082  0.00  0.00    -0.373 OA
BRANCH  36  37
ATOM     37  C   UNL     1       4.462   4.614  -6.104  0.00  0.00    +0.186 C 
BRANCH  37  38
ATOM     38  C   UNL     1       5.882   5.118  -6.106  0.00  0.00    -0.007 C 
ATOM     39  C   UNL     1       6.527   5.256  -7.239  0.00  0.00    +0.006 C 
ENDBRANCH  37  38
ENDBRANCH  36  37
ENDBRANCH  35  36
ENDBRANCH  32  35
ENDBRANCH  31  32
ENDBRANCH  23  31
ENDBRANCH  22  23
ENDBRANCH   3  22
TORSDOF 14
