REMARK  Name = ZINC03337867
REMARK  7 active torsions:
REMARK  status: ('A' for Active; 'I' for Inactive)
REMARK    1  A    between atoms: C_1  and  C_2
REMARK    2  A    between atoms: C_2  and  C_4
REMARK    3  A    between atoms: C_2  and  N_10
REMARK    4  A    between atoms: C_11  and  C_13
REMARK    5  A    between atoms: C_18  and  N_19
REMARK    6  A    between atoms: C_20  and  C_22
REMARK    7  A    between atoms: C_22  and  N_23
REMARK                            x       y       z     vdW  Elec       q    Type
REMARK                         _______ _______ _______ _____ _____    ______ ____
ROOT
ATOM      1  N   UNL     1       1.193   3.479   0.012  0.00  0.00    -0.284 N 
ATOM      2  C   UNL     1       2.356   4.151  -0.092  0.00  0.00    +0.235 C 
ATOM      3  O   UNL     1       3.390   3.547  -0.283  0.00  0.00    -0.274 OA
ATOM      4  H   UNL     1       0.357   3.965   0.089  0.00  0.00    +0.155 HD
ENDROOT
BRANCH   1  10
ATOM      5  C   UNL     1       0.137   1.384  -0.594  0.00  0.00    +0.058 A 
ATOM      6  C   UNL     1       0.147  -0.013  -0.590  0.00  0.00    +0.015 A 
ATOM      7  C   UNL     1       1.188  -0.691   0.005  0.00  0.00    +0.001 A 
ATOM      8  C   UNL     1       2.228   0.006   0.600  0.00  0.00    +0.002 A 
ATOM      9  C   UNL     1       2.231   1.386   0.605  0.00  0.00    +0.024 A 
ATOM     10  C   UNL     1       1.190   2.086   0.010  0.00  0.00    +0.046 A 
BRANCH   5  12
ATOM     11  N   UNL     1      -1.927   1.442  -1.905  0.00  0.00    -0.305 N 
ATOM     12  C   UNL     1      -0.972   2.117  -1.235  0.00  0.00    +0.246 C 
ATOM     13  O   UNL     1      -1.024   3.329  -1.158  0.00  0.00    -0.270 OA
ATOM     14  H   UNL     1      -1.885   0.475  -1.966  0.00  0.00    +0.150 HD
BRANCH  11  16
ATOM     15  C   UNL     1      -4.133   2.421  -1.514  0.00  0.00    +0.033 C 
ATOM     16  C   UNL     1      -3.028   2.169  -2.542  0.00  0.00    +0.100 C 
BRANCH  16  17
ATOM     17  C   UNL     1      -3.578   1.351  -3.681  0.00  0.00    -0.027 A 
ATOM     18  C   UNL     1      -3.711  -0.018  -3.548  0.00  0.00    +0.005 A 
ATOM     19  C   UNL     1      -4.220  -0.768  -4.592  0.00  0.00    +0.000 A 
ATOM     20  C   UNL     1      -4.587  -0.150  -5.772  0.00  0.00    +0.000 A 
ATOM     21  C   UNL     1      -4.449   1.219  -5.908  0.00  0.00    +0.000 A 
ATOM     22  C   UNL     1      -3.944   1.969  -4.862  0.00  0.00    +0.005 A 
ENDBRANCH  16  17
ENDBRANCH  11  16
ENDBRANCH   5  12
ENDBRANCH   1  10
BRANCH   2  23
ATOM     23  C   UNL     1       2.372   5.653   0.030  0.00  0.00    +0.214 C 
BRANCH  23  24
ATOM     24  N   UNL     1       3.746   6.141  -0.118  0.00  0.00    -0.215 N 
ATOM     25  C   UNL     1       4.606   6.307   0.908  0.00  0.00    +0.247 C 
ATOM     26  O   UNL     1       4.399   6.091   2.083  0.00  0.00    -0.273 OA
ATOM     27  C   UNL     1       5.883   6.818   0.283  0.00  0.00    +0.117 C 
ATOM     28  C   UNL     1       7.032   5.843   0.530  0.00  0.00    +0.040 C 
ATOM     29  C   UNL     1       8.215   6.258  -0.344  0.00  0.00    +0.038 C 
ATOM     30  C   UNL     1       8.512   7.725  -0.177  0.00  0.00    -0.044 A 
ATOM     31  C   UNL     1       9.759   8.181  -0.587  0.00  0.00    +0.004 A 
ATOM     32  C   UNL     1      10.093   9.513  -0.468  0.00  0.00    +0.000 A 
ATOM     33  C   UNL     1       9.180  10.405   0.064  0.00  0.00    +0.000 A 
ATOM     34  C   UNL     1       7.943   9.955   0.474  0.00  0.00    +0.004 A 
ATOM     35  C   UNL     1       7.606   8.613   0.357  0.00  0.00    -0.042 A 
ATOM     36  C   UNL     1       6.242   8.188   0.838  0.00  0.00    +0.070 C 
ATOM     37  N   UNL     1       5.575   6.898  -1.149  0.00  0.00    -0.285 N 
ATOM     38  C   UNL     1       4.301   6.482  -1.288  0.00  0.00    +0.310 C 
ATOM     39  O   UNL     1       3.722   6.423  -2.354  0.00  0.00    -0.252 OA
ATOM     40  H   UNL     1       6.170   7.193  -1.856  0.00  0.00    +0.151 HD
ENDBRANCH  23  24
ENDBRANCH   2  23
TORSDOF 6
