REMARK  Name = ZINC04320918
REMARK  4 active torsions:
REMARK  status: ('A' for Active; 'I' for Inactive)
REMARK    1  A    between atoms: C_1  and  O_2
REMARK    2  A    between atoms: O_2  and  C_3
REMARK    3  A    between atoms: C_6  and  C_12
REMARK    4  A    between atoms: C_8  and  N_9
REMARK                            x       y       z     vdW  Elec       q    Type
REMARK                         _______ _______ _______ _____ _____    ______ ____
ROOT
ATOM      1  C   UNL     1      -1.263   3.490   0.114  0.00  0.00    +0.105 C 
ATOM      2  C   UNL     1      -0.229   4.175  -0.755  0.00  0.00    +0.029 C 
ATOM      3  C   UNL     1      -0.164   5.706  -0.724  0.00  0.00    +0.033 C 
ATOM      4  C   UNL     1       1.316   5.954  -1.030  0.00  0.00    -0.030 C 
ATOM      5  C   UNL     1       2.038   4.905  -0.651  0.00  0.00    -0.023 C 
ATOM      6  C   UNL     1       1.130   3.904  -0.039  0.00  0.00    +0.049 C 
ATOM      7  C   UNL     1       1.374   2.447  -0.126  0.00  0.00    -0.017 A 
ATOM      8  C   UNL     1       2.649   1.929  -0.226  0.00  0.00    +0.006 A 
ATOM      9  C   UNL     1       2.850   0.563  -0.270  0.00  0.00    +0.003 A 
ATOM     10  C   UNL     1       1.764  -0.291  -0.215  0.00  0.00    +0.040 A 
ATOM     11  C   UNL     1       0.486   0.218  -0.123  0.00  0.00    +0.144 A 
ATOM     12  C   UNL     1       0.266   1.598  -0.085  0.00  0.00    +0.067 A 
ATOM     13  N   UNL     1      -1.056   2.040  -0.028  0.00  0.00    -0.334 N 
ATOM     14  F   UNL     1      -0.567  -0.627  -0.070  0.00  0.00    -0.204 F 
ATOM     15  H   UNL     1      -1.593   1.671  -0.799  0.00  0.00    +0.147 HD
ENDROOT
BRANCH   1  19
ATOM     16  C   UNL     1      -0.736   4.648   4.194  0.00  0.00    +0.150 A 
ATOM     17  C   UNL     1      -0.133   3.494   3.716  0.00  0.00    +0.048 A 
ATOM     18  C   UNL     1      -0.309   3.118   2.398  0.00  0.00    +0.009 A 
ATOM     19  C   UNL     1      -1.077   3.898   1.553  0.00  0.00    -0.025 A 
ATOM     20  C   UNL     1      -1.680   5.049   2.027  0.00  0.00    +0.042 A 
ATOM     21  C   UNL     1      -1.511   5.425   3.345  0.00  0.00    +0.168 A 
BRANCH  21  22
ATOM     22  N   UNL     1      -2.156   6.657   3.852  0.00  0.00    +0.060 N 
ATOM     23  O   UNL     1      -2.835   7.340   3.107  0.00  0.00    -0.126 OA
ATOM     24  O   UNL     1      -2.006   6.989   5.015  0.00  0.00    -0.126 OA
ENDBRANCH  21  22
BRANCH  16  26
ATOM     25  C   UNL     1       0.242   4.168   6.307  0.00  0.00    +0.277 C 
ATOM     26  O   UNL     1      -0.568   5.016   5.491  0.00  0.00    -0.493 OA
ENDBRANCH  16  26
ENDBRANCH   1  19
TORSDOF 3
