REMARK  Name = ZINC35894789
REMARK  8 active torsions:
REMARK  status: ('A' for Active; 'I' for Inactive)
REMARK    1  A    between atoms: C_1  and  C_2
REMARK    2  A    between atoms: C_2  and  C_3
REMARK    3  A    between atoms: C_2  and  C_4
REMARK    4  A    between atoms: C_4  and  N_5
REMARK    5  A    between atoms: C_6  and  C_8
REMARK    6  A    between atoms: C_13  and  N_32
REMARK    7  A    between atoms: N_21  and  C_24
REMARK    8  A    between atoms: C_24  and  C_25
REMARK                            x       y       z     vdW  Elec       q    Type
REMARK                         _______ _______ _______ _____ _____    ______ ____
ROOT
ATOM      1  C   UNL     1      -0.315  -0.103   4.898  0.00  0.00    +0.098 C 
ATOM      2  C   UNL     1      -0.445   1.419   4.969  0.00  0.00    +0.051 C 
ATOM      3  C   UNL     1       0.919   2.029   5.160  0.00  0.00    -0.023 A 
ATOM      4  C   UNL     1       1.145   3.326   4.734  0.00  0.00    +0.038 A 
ATOM      5  C   UNL     1       2.390   3.903   4.895  0.00  0.00    +0.127 A 
ATOM      6  C   UNL     1       3.416   3.186   5.484  0.00  0.00    +0.034 A 
ATOM      7  C   UNL     1       3.196   1.893   5.915  0.00  0.00    +0.025 A 
ATOM      8  C   UNL     1       1.942   1.311   5.754  0.00  0.00    +0.033 A 
ATOM      9  N   UNL     1       1.745  -0.002   6.212  0.00  0.00    -0.329 N 
ATOM     10  C   UNL     1       0.426  -0.610   6.140  0.00  0.00    +0.069 C 
ATOM     11  C   UNL     1       0.461  -2.130   6.106  0.00  0.00    -0.055 C 
ATOM     12  N   UNL     1       1.497  -2.672   6.984  0.00  0.00    +0.385 N 
ATOM     13  C   UNL     1       2.810  -2.197   6.521  0.00  0.00    -0.059 C 
ATOM     14  C   UNL     1       2.902  -0.697   6.784  0.00  0.00    +0.087 C 
ATOM     15  H   UNL     1       1.338  -2.357   7.929  0.00  0.00    -0.081 HD
ENDROOT
BRANCH   1  17
ATOM     16  N   UNL     1      -0.008  -0.140   2.444  0.00  0.00    -0.315 N 
ATOM     17  C   UNL     1       0.457  -0.484   3.661  0.00  0.00    +0.218 C 
ATOM     18  O   UNL     1       1.496  -1.101   3.761  0.00  0.00    -0.275 OA
ATOM     19  H   UNL     1      -0.840   0.353   2.364  0.00  0.00    +0.149 HD
BRANCH  16  20
ATOM     20  C   UNL     1       0.742  -0.511   1.242  0.00  0.00    +0.107 C 
BRANCH  20  22
ATOM     21  C   UNL     1      -0.019   1.526   0.010  0.00  0.00    +0.009 C 
ATOM     22  C   UNL     1       0.002  -0.004   0.002  0.00  0.00    -0.000 C 
ATOM     23  C   UNL     1       0.718  -0.497  -1.257  0.00  0.00    +0.009 C 
ENDBRANCH  20  22
ENDBRANCH  16  20
ENDBRANCH   1  17
BRANCH   5  24
ATOM     24  N   UNL     1       2.627   5.290   4.438  0.00  0.00    +0.056 N 
ATOM     25  O   UNL     1       1.731   5.918   3.923  0.00  0.00    -0.126 OA
ATOM     26  O   UNL     1       3.716   5.796   4.579  0.00  0.00    -0.126 OA
ENDBRANCH   5  24
BRANCH  12  27
ATOM     27  C   UNL     1       1.461  -4.140   6.940  0.00  0.00    -0.043 C 
BRANCH  27  28
ATOM     28  C   UNL     1       2.445  -4.697   7.936  0.00  0.00    -0.064 A 
ATOM     29  C   UNL     1       3.751  -4.943   7.554  0.00  0.00    +0.004 A 
ATOM     30  C   UNL     1       4.654  -5.453   8.467  0.00  0.00    +0.038 A 
ATOM     31  C   UNL     1       4.251  -5.719   9.764  0.00  0.00    +0.123 A 
ATOM     32  C   UNL     1       2.943  -5.472  10.146  0.00  0.00    +0.038 A 
ATOM     33  C   UNL     1       2.043  -4.957   9.233  0.00  0.00    +0.004 A 
ATOM     34  F   UNL     1       5.133  -6.218  10.658  0.00  0.00    -0.205 F 
ENDBRANCH  27  28
ENDBRANCH  12  27
TORSDOF 6
