REMARK  Name = ZINC23778296
REMARK  11 active torsions:
REMARK  status: ('A' for Active; 'I' for Inactive)
REMARK    1  A    between atoms: C_1  and  C_2
REMARK    2  A    between atoms: C_2  and  C_3
REMARK    3  A    between atoms: C_3  and  N_4
REMARK    4  A    between atoms: N_4  and  C_5
REMARK    5  A    between atoms: N_4  and  C_16
REMARK    6  A    between atoms: C_5  and  C_6
REMARK    7  A    between atoms: C_9  and  C_11
REMARK    8  A    between atoms: C_16  and  C_17
REMARK    9  A    between atoms: N_19  and  C_20
REMARK   10  A    between atoms: C_21  and  C_31
REMARK   11  A    between atoms: C_26  and  C_30
REMARK                            x       y       z     vdW  Elec       q    Type
REMARK                         _______ _______ _______ _____ _____    ______ ____
ROOT
ATOM      1  C   UNL     1       0.037   1.077   2.553  0.00  0.00    +0.020 C 
ENDROOT
BRANCH   1   2
ATOM      2  C   UNL     1      -0.680   1.554   3.790  0.00  0.00    +0.201 C 
ATOM      3  O   UNL     1      -1.642   2.285   3.690  0.00  0.00    -0.278 OA
ATOM      4  N   UNL     1      -0.252   1.167   5.008  0.00  0.00    -0.281 N 
ATOM      5  H   UNL     1       0.621   0.504   5.100  0.00  0.00    +0.155 HD
BRANCH   4   6
ATOM      6  C   UNL     1      -0.912   1.606   6.148  0.00  0.00    +0.090 A 
ATOM      7  C   UNL     1      -0.625   1.320   7.474  0.00  0.00    +0.084 A 
ATOM      8  C   UNL     1      -1.479   1.911   8.489  0.00  0.00    -0.018 A 
ATOM      9  C   UNL     1      -2.478   2.690   8.018  0.00  0.00    -0.004 A 
ATOM     10  S   UNL     1      -2.291   2.649   6.258  0.00  0.00    -0.077 S 
ATOM     11  C   UNL     1      -3.506   3.424   8.822  0.00  0.00    +0.046 C 
ATOM     12  C   UNL     1      -3.036   3.468  10.284  0.00  0.00    -0.009 C 
ATOM     13  C   UNL     1      -2.594   2.063  10.702  0.00  0.00    +0.008 C 
ATOM     14  C   UNL     1      -1.294   1.692   9.986  0.00  0.00    +0.037 C 
ATOM     15  C   UNL     1      -4.186   3.932  11.181  0.00  0.00    +0.008 C 
BRANCH   7  16
ATOM     16  C   UNL     1       0.474   0.473   7.830  0.00  0.00    +0.102 C 
ATOM     17  N   UNL     1       1.345  -0.200   8.112  0.00  0.00    -0.191 NA
ENDBRANCH   7  16
ENDBRANCH   4   6
ENDBRANCH   1   2
BRANCH   1  18
ATOM     18  N   UNL     1      -0.698   1.520   1.361  0.00  0.00    +0.391 N 
ATOM     19  H   UNL     1      -0.955   2.580   1.497  0.00  0.00    -0.080 HD
BRANCH  18  20
ATOM     20  C   UNL     1      -1.949   0.768   1.204  0.00  0.00    -0.078 C 
BRANCH  20  22
ATOM     21  C   UNL     1      -2.934  -1.490   0.782  0.00  0.00    +0.002 C 
ATOM     22  C   UNL     1      -1.630  -0.708   0.956  0.00  0.00    -0.022 C 
ENDBRANCH  20  22
ENDBRANCH  18  20
BRANCH  18  23
ATOM     23  C   UNL     1       0.137   1.409   0.157  0.00  0.00    +0.021 C 
BRANCH  23  24
ATOM     24  C   UNL     1      -0.550   2.094  -0.996  0.00  0.00    +0.202 A 
ATOM     25  N   UNL     1      -0.426   3.347  -1.331  0.00  0.00    -0.114 NA
ATOM     26  N   UNL     1      -1.152   3.591  -2.365  0.00  0.00    -0.107 NA
ATOM     27  C   UNL     1      -1.778   2.492  -2.724  0.00  0.00    +0.255 A 
ATOM     28  O   UNL     1      -1.408   1.523  -1.861  0.00  0.00    -0.422 OA
BRANCH  27  29
ATOM     29  C   UNL     1      -2.708   2.346  -3.853  0.00  0.00    +0.076 A 
ATOM     30  C   UNL     1      -3.130   3.297  -4.764  0.00  0.00    +0.021 A 
ATOM     31  C   UNL     1      -4.013   2.916  -5.747  0.00  0.00    +0.008 A 
ATOM     32  C   UNL     1      -4.448   1.630  -5.787  0.00  0.00    +0.046 A 
ATOM     33  S   UNL     1      -3.594   0.896  -4.402  0.00  0.00    -0.092 S 
ENDBRANCH  27  29
ENDBRANCH  23  24
ENDBRANCH  18  23
ENDBRANCH   1  18
TORSDOF 9
