REMARK  Name = ZINC09462346
REMARK  7 active torsions:
REMARK  status: ('A' for Active; 'I' for Inactive)
REMARK    1  A    between atoms: C_1  and  O_2
REMARK    2  A    between atoms: O_2  and  C_3
REMARK    3  A    between atoms: C_6  and  C_9
REMARK    4  A    between atoms: C_10  and  C_11
REMARK    5  A    between atoms: N_13  and  C_14
REMARK    6  A    between atoms: C_17  and  C_31
REMARK    7  A    between atoms: C_20  and  C_24
REMARK                            x       y       z     vdW  Elec       q    Type
REMARK                         _______ _______ _______ _____ _____    ______ ____
ROOT
ATOM      1  C   UNL     1       3.815  -6.383  -6.659  0.00  0.00    +0.241 C 
ATOM      2  N   UNL     1       4.386  -5.766  -7.662  0.00  0.00    -0.140 NA
ATOM      3  N   UNL     1       4.887  -6.729  -8.541  0.00  0.00    -0.180 N 
ATOM      4  C   UNL     1       5.613  -6.647  -9.815  0.00  0.00    +0.156 C 
ATOM      5  C   UNL     1       5.985  -7.966 -10.467  0.00  0.00    +0.030 C 
ATOM      6  C   UNL     1       5.621  -9.096  -9.828  0.00  0.00    +0.073 C 
ATOM      7  N   UNL     1       4.950  -9.062  -8.650  0.00  0.00    -0.217 NA
ATOM      8  C   UNL     1       4.596  -7.960  -8.029  0.00  0.00    +0.211 C 
ATOM      9  N   UNL     1       3.930  -7.747  -6.848  0.00  0.00    -0.254 N 
ATOM     10  H   UNL     1       3.595  -8.435  -6.252  0.00  0.00    +0.158 HD
ENDROOT
BRANCH   6  11
ATOM     11  C   UNL     1       5.964 -10.409 -10.429  0.00  0.00    +0.000 A 
ATOM     12  C   UNL     1       6.657 -10.465 -11.636  0.00  0.00    +0.011 A 
ATOM     13  C   UNL     1       6.973 -11.689 -12.191  0.00  0.00    +0.020 A 
ATOM     14  C   UNL     1       6.602 -12.858 -11.550  0.00  0.00    +0.041 A 
ATOM     15  C   UNL     1       5.912 -12.807 -10.351  0.00  0.00    +0.020 A 
ATOM     16  C   UNL     1       5.597 -11.589  -9.785  0.00  0.00    +0.011 A 
ATOM     17 CL   UNL     1       7.002 -14.395 -12.254  0.00  0.00    -0.084 Cl
ENDBRANCH   6  11
BRANCH   4  18
ATOM     18  C   UNL     1       6.882  -5.869  -9.581  0.00  0.00    -0.021 A 
ATOM     19  C   UNL     1       7.612  -6.069  -8.424  0.00  0.00    +0.007 A 
ATOM     20  C   UNL     1       8.776  -5.355  -8.209  0.00  0.00    +0.020 A 
ATOM     21  C   UNL     1       9.210  -4.441  -9.151  0.00  0.00    +0.041 A 
ATOM     22  C   UNL     1       8.480  -4.240 -10.309  0.00  0.00    +0.020 A 
ATOM     23  C   UNL     1       7.319  -4.959 -10.526  0.00  0.00    +0.007 A 
ATOM     24 CL   UNL     1      10.672  -3.543  -8.881  0.00  0.00    -0.084 Cl
ENDBRANCH   4  18
BRANCH   1  27
ATOM     25  C   UNL     1       3.165  -4.466  -5.532  0.00  0.00    +0.273 C 
ATOM     26  O   UNL     1       3.717  -3.716  -6.514  0.00  0.00    -0.266 OA
ATOM     27  N   UNL     1       3.212  -5.780  -5.602  0.00  0.00    -0.174 NA
BRANCH  25  29
ATOM     28  C   UNL     1       2.488  -2.489  -4.357  0.00  0.00    +0.013 C 
ATOM     29  C   UNL     1       2.537  -3.837  -4.429  0.00  0.00    +0.073 C 
BRANCH  28  33
ATOM     30  C   UNL     1       0.605  -0.607  -1.055  0.00  0.00    +0.120 A 
ATOM     31  C   UNL     1       1.172   0.166  -2.061  0.00  0.00    +0.046 A 
ATOM     32  C   UNL     1       1.785  -0.440  -3.135  0.00  0.00    +0.011 A 
ATOM     33  C   UNL     1       1.836  -1.836  -3.212  0.00  0.00    -0.025 A 
ATOM     34  C   UNL     1       1.264  -2.610  -2.196  0.00  0.00    +0.011 A 
ATOM     35  C   UNL     1       0.658  -1.994  -1.123  0.00  0.00    +0.046 A 
BRANCH  30  37
ATOM     36  C   UNL     1      -0.017   1.425   0.010  0.00  0.00    +0.277 C 
ATOM     37  O   UNL     1       0.002  -0.004   0.002  0.00  0.00    -0.495 OA
ENDBRANCH  30  37
ENDBRANCH  28  33
ENDBRANCH  25  29
ENDBRANCH   1  27
TORSDOF 6
