REMARK  Name = ZINC09298103
REMARK  7 active torsions:
REMARK  status: ('A' for Active; 'I' for Inactive)
REMARK    1  A    between atoms: C_1  and  C_2
REMARK    2  A    between atoms: C_9  and  N_18
REMARK    3  A    between atoms: C_10  and  C_11
REMARK    4  A    between atoms: C_14  and  O_16
REMARK    5  A    between atoms: O_16  and  C_17
REMARK    6  A    between atoms: C_19  and  C_21
REMARK    7  A    between atoms: C_25  and  N_30
REMARK                            x       y       z     vdW  Elec       q    Type
REMARK                         _______ _______ _______ _____ _____    ______ ____
ROOT
ATOM      1  C   UNL     1      -1.747  -3.378   0.095  0.00  0.00    +0.008 C 
ATOM      2  C   UNL     1      -0.654  -2.345   0.376  0.00  0.00    -0.009 C 
ATOM      3  C   UNL     1       0.580  -2.659  -0.475  0.00  0.00    +0.008 C 
ATOM      4  C   UNL     1       1.756  -1.790  -0.026  0.00  0.00    +0.037 C 
ATOM      5  C   UNL     1       1.312  -0.332  -0.013  0.00  0.00    -0.023 A 
ATOM      6  C   UNL     1       0.002  -0.004   0.002  0.00  0.00    -0.004 A 
ATOM      7  S   UNL     1      -0.022   1.766   0.012  0.00  0.00    -0.077 S 
ATOM      8  C   UNL     1       1.684   2.070  -0.003  0.00  0.00    +0.085 A 
ATOM      9  C   UNL     1       2.232   0.793  -0.015  0.00  0.00    +0.069 A 
ATOM     10  C   UNL     1      -1.164  -0.944   0.009  0.00  0.00    +0.046 C 
ENDROOT
BRANCH   9  11
ATOM     11  C   UNL     1       3.682   0.589  -0.030  0.00  0.00    +0.255 C 
ATOM     12  O   UNL     1       4.274   0.510  -1.091  0.00  0.00    -0.270 OA
ATOM     13  N   UNL     1       4.361   0.488   1.130  0.00  0.00    -0.217 N 
ATOM     14  C   UNL     1       5.696   0.301   1.115  0.00  0.00    +0.407 C 
ATOM     15  O   UNL     1       6.287   0.222   0.057  0.00  0.00    -0.226 OA
ATOM     16  H   UNL     1       3.889   0.551   1.975  0.00  0.00    +0.161 HD
BRANCH  14  17
ATOM     17  O   UNL     1       6.373   0.200   2.274  0.00  0.00    -0.453 OA
ATOM     18  C   UNL     1       7.808  -0.002   2.183  0.00  0.00    +0.282 C 
ENDBRANCH  14  17
ENDBRANCH   9  11
BRANCH   8  19
ATOM     19  N   UNL     1       2.341   3.288  -0.003  0.00  0.00    -0.275 N 
ATOM     20  C   UNL     1       1.634   4.435   0.011  0.00  0.00    +0.255 C 
ATOM     21  O   UNL     1       0.418   4.400   0.023  0.00  0.00    -0.269 OA
ATOM     22  H   UNL     1       3.311   3.316  -0.012  0.00  0.00    +0.156 HD
BRANCH  20  23
ATOM     23  C   UNL     1       2.331   5.729   0.011  0.00  0.00    +0.075 A 
ATOM     24  C   UNL     1       1.797   6.979   0.018  0.00  0.00    +0.029 A 
ATOM     25  C   UNL     1       2.643   8.103   0.022  0.00  0.00    -0.008 A 
ATOM     26  C   UNL     1       2.280   9.475   0.034  0.00  0.00    +0.041 A 
ATOM     27  C   UNL     1       3.231  10.444   0.030  0.00  0.00    +0.127 A 
ATOM     28  C   UNL     1       4.586  10.136   0.014  0.00  0.00    +0.034 A 
ATOM     29  C   UNL     1       4.983   8.815   0.002  0.00  0.00    +0.018 A 
ATOM     30  C   UNL     1       4.029   7.819   0.006  0.00  0.00    +0.020 A 
ATOM     31  S   UNL     1       4.087   6.045  -0.005  0.00  0.00    -0.084 S 
BRANCH  27  32
ATOM     32  N   UNL     1       2.814  11.865   0.043  0.00  0.00    +0.056 N 
ATOM     33  O   UNL     1       3.654  12.746   0.040  0.00  0.00    -0.126 OA
ATOM     34  O   UNL     1       1.630  12.151   0.057  0.00  0.00    -0.126 OA
ENDBRANCH  27  32
ENDBRANCH  20  23
ENDBRANCH   8  19
TORSDOF 5
