REMARK  Name = ZINC36302560
REMARK  17 active torsions:
REMARK  status: ('A' for Active; 'I' for Inactive)
REMARK    1  A    between atoms: C_1  and  C_2
REMARK    2  A    between atoms: C_2  and  O_3
REMARK    3  A    between atoms: O_3  and  C_4
REMARK    4  A    between atoms: C_4  and  C_5
REMARK    5  A    between atoms: C_5  and  C_7
REMARK    6  A    between atoms: C_5  and  O_38
REMARK    7  A    between atoms: C_7  and  N_8
REMARK    8  A    between atoms: N_8  and  C_9
REMARK    9  A    between atoms: N_8  and  C_16
REMARK   10  A    between atoms: C_9  and  C_10
REMARK   11  A    between atoms: C_16  and  C_17
REMARK   12  A    between atoms: C_18  and  C_37
REMARK   13  A    between atoms: N_20  and  C_31
REMARK   14  A    between atoms: C_21  and  O_22
REMARK   15  A    between atoms: O_22  and  C_23
REMARK   16  A    between atoms: C_26  and  O_29
REMARK   17  A    between atoms: O_29  and  C_30
REMARK                            x       y       z     vdW  Elec       q    Type
REMARK                         _______ _______ _______ _____ _____    ______ ____
ROOT
ATOM      1  C   UNL     1       3.590  -5.693  -4.187  0.00  0.00    +0.021 A 
ATOM      2  C   UNL     1       3.286  -5.784  -5.549  0.00  0.00    +0.065 A 
ATOM      3  N   UNL     1       4.388  -6.054  -6.202  0.00  0.00    -0.168 NA
ATOM      4  N   UNL     1       5.438  -6.145  -5.278  0.00  0.00    -0.200 N 
ATOM      5  C   UNL     1       4.923  -5.913  -4.041  0.00  0.00    +0.225 A 
ATOM      6  C   UNL     1       1.921  -5.603  -6.162  0.00  0.00    +0.068 C 
ENDROOT
BRANCH   4   7
ATOM      7  C   UNL     1       6.779  -6.420  -5.577  0.00  0.00    +0.069 A 
ATOM      8  C   UNL     1       7.793  -5.794  -4.865  0.00  0.00    +0.028 A 
ATOM      9  C   UNL     1       9.114  -6.068  -5.161  0.00  0.00    +0.002 A 
ATOM     10  C   UNL     1       9.427  -6.965  -6.166  0.00  0.00    +0.000 A 
ATOM     11  C   UNL     1       8.419  -7.589  -6.878  0.00  0.00    +0.002 A 
ATOM     12  C   UNL     1       7.096  -7.324  -6.582  0.00  0.00    +0.028 A 
ENDBRANCH   4   7
BRANCH   1  13
ATOM     13  C   UNL     1       2.612  -5.397  -3.079  0.00  0.00    -0.035 C 
BRANCH  13  14
ATOM     14  N   UNL     1       3.216  -4.448  -2.134  0.00  0.00    +0.387 N 
ATOM     15  H   UNL     1       4.102  -4.810  -1.814  0.00  0.00    -0.081 HD
BRANCH  14  16
ATOM     16  C   UNL     1       2.319  -4.261  -0.986  0.00  0.00    -0.044 C 
BRANCH  16  17
ATOM     17  C   UNL     1       3.150  -4.069   0.284  0.00  0.00    +0.124 C 
BRANCH  17  18
ATOM     18  O   UNL     1       4.015  -2.944   0.122  0.00  0.00    -0.391 OA
ATOM     19  H   UNL     1       3.557  -2.092   0.125  0.00  0.00    +0.210 HD
ENDBRANCH  17  18
BRANCH  17  20
ATOM     20  C   UNL     1       2.216  -3.828   1.472  0.00  0.00    +0.189 C 
BRANCH  20  21
ATOM     21  O   UNL     1       2.984  -3.764   2.676  0.00  0.00    -0.378 OA
BRANCH  21  23
ATOM     22  C   UNL     1       3.123  -3.491   5.073  0.00  0.00    +0.034 C 
ATOM     23  C   UNL     1       2.203  -3.540   3.852  0.00  0.00    +0.156 C 
ENDBRANCH  21  23
ENDBRANCH  20  21
ENDBRANCH  17  20
ENDBRANCH  16  17
ENDBRANCH  14  16
BRANCH  14  24
ATOM     24  C   UNL     1       3.429  -3.158  -2.804  0.00  0.00    -0.042 C 
BRANCH  24  25
ATOM     25  C   UNL     1       2.195  -2.790  -3.588  0.00  0.00    -0.064 A 
ATOM     26  C   UNL     1       2.123  -3.078  -4.939  0.00  0.00    +0.002 A 
ATOM     27  C   UNL     1       0.992  -2.741  -5.658  0.00  0.00    +0.000 A 
ATOM     28  C   UNL     1      -0.068  -2.116  -5.027  0.00  0.00    +0.000 A 
ATOM     29  C   UNL     1       0.004  -1.830  -3.676  0.00  0.00    +0.000 A 
ATOM     30  C   UNL     1       1.133  -2.171  -2.956  0.00  0.00    +0.002 A 
ENDBRANCH  24  25
ENDBRANCH  14  24
ENDBRANCH  13  14
ENDBRANCH   1  13
BRANCH   5  31
ATOM     31  O   UNL     1       5.615  -5.907  -2.873  0.00  0.00    -0.438 OA
BRANCH  31  32
ATOM     32  C   UNL     1       5.830  -7.096  -2.252  0.00  0.00    +0.131 A 
ATOM     33  C   UNL     1       5.445  -8.279  -2.866  0.00  0.00    +0.050 A 
ATOM     34  C   UNL     1       5.665  -9.488  -2.235  0.00  0.00    +0.049 A 
ATOM     35  C   UNL     1       6.269  -9.520  -0.987  0.00  0.00    +0.120 A 
ATOM     36  C   UNL     1       6.654  -8.337  -0.373  0.00  0.00    +0.049 A 
ATOM     37  C   UNL     1       6.441  -7.129  -1.006  0.00  0.00    +0.050 A 
BRANCH  35  38
ATOM     38  O   UNL     1       6.485 -10.710  -0.366  0.00  0.00    -0.495 OA
ATOM     39  C   UNL     1       7.112 -10.668   0.917  0.00  0.00    +0.277 C 
ENDBRANCH  35  38
ENDBRANCH  31  32
ENDBRANCH   5  31
TORSDOF 14
