REMARK  Name = ZINC08833962
REMARK  19 active torsions:
REMARK  status: ('A' for Active; 'I' for Inactive)
REMARK    1  A    between atoms: C_1  and  C_2
REMARK    2  A    between atoms: C_2  and  N_73
REMARK    3  A    between atoms: C_3  and  C_4
REMARK    4  A    between atoms: C_3  and  N_73
REMARK    5  A    between atoms: C_5  and  C_6
REMARK    6  A    between atoms: C_5  and  N_73
REMARK    7  A    between atoms: C_6  and  C_7
REMARK    8  A    between atoms: C_7  and  N_8
REMARK    9  A    between atoms: C_9  and  C_31
REMARK   10  A    between atoms: C_11  and  C_16
REMARK   11  A    between atoms: C_12  and  O_15
REMARK   12  A    between atoms: C_16  and  C_18
REMARK   13  A    between atoms: C_19  and  C_30
REMARK   14  A    between atoms: C_20  and  C_25
REMARK   15  A    between atoms: C_23  and  C_24
REMARK   16  A    between atoms: C_25  and  O_27
REMARK   17  A    between atoms: O_27  and  C_28
REMARK   18  A    between atoms: C_28  and  C_29
REMARK   19  A    between atoms: C_34  and  C_37
REMARK                            x       y       z     vdW  Elec       q    Type
REMARK                         _______ _______ _______ _____ _____    ______ ____
ROOT
ATOM      1  N   UNL     1      -6.607  -2.566   0.090  0.00  0.00    -0.284 N 
ATOM      2  C   UNL     1      -5.212  -2.113   0.040  0.00  0.00    +0.144 C 
ATOM      3  C   UNL     1      -4.374  -3.352  -0.173  0.00  0.00    +0.071 C 
ATOM      4  C   UNL     1      -5.231  -4.396  -0.240  0.00  0.00    +0.188 C 
ATOM      5  C   UNL     1      -6.614  -3.902  -0.071  0.00  0.00    +0.282 C 
ATOM      6  O   UNL     1      -7.610  -4.598  -0.080  0.00  0.00    -0.267 OA
ENDROOT
BRANCH   2   7
ATOM      7  C   UNL     1      -5.020  -1.154  -1.107  0.00  0.00    -0.022 A 
ATOM      8  C   UNL     1      -5.465  -1.491  -2.372  0.00  0.00    +0.006 A 
ATOM      9  C   UNL     1      -5.293  -0.610  -3.422  0.00  0.00    +0.004 A 
ATOM     10  C   UNL     1      -4.666   0.604  -3.211  0.00  0.00    -0.050 A 
ATOM     11  C   UNL     1      -4.216   0.939  -1.948  0.00  0.00    +0.004 A 
ATOM     12  C   UNL     1      -4.393   0.059  -0.895  0.00  0.00    +0.006 A 
ATOM     13  C   UNL     1      -4.474   1.563  -4.358  0.00  0.00    +0.044 C 
ENDBRANCH   2   7
BRANCH   4  14
ATOM     14  O   UNL     1      -4.879  -5.689  -0.429  0.00  0.00    -0.502 OA
ATOM     15  H   UNL     1      -5.700  -6.260  -0.439  0.00  0.00    +0.292 HD
ENDBRANCH   4  14
BRANCH   3  16
ATOM     16  C   UNL     1      -2.913  -3.411  -0.291  0.00  0.00    +0.197 C 
ATOM     17  O   UNL     1      -2.386  -3.299  -1.382  0.00  0.00    -0.287 OA
BRANCH  16  18
ATOM     18  C   UNL     1      -2.084  -3.606   0.912  0.00  0.00    +0.046 A 
ATOM     19  C   UNL     1      -0.674  -3.680   0.957  0.00  0.00    -0.008 A 
ATOM     20  C   UNL     1      -0.325  -3.869   2.263  0.00  0.00    +0.128 A 
ATOM     21  N   UNL     1      -1.478  -3.902   3.018  0.00  0.00    -0.352 N 
ATOM     22  H   UNL     1      -1.516  -4.020   3.980  0.00  0.00    +0.166 HD
ATOM     23  C   UNL     1      -2.539  -3.745   2.212  0.00  0.00    +0.025 A 
ATOM     24  C   UNL     1      -3.982  -3.723   2.647  0.00  0.00    +0.064 C 
ATOM     25  C   UNL     1       0.267  -3.575  -0.215  0.00  0.00    +0.047 C 
BRANCH  20  26
ATOM     26  C   UNL     1       1.042  -4.005   2.775  0.00  0.00    +0.356 C 
ATOM     27  O   UNL     1       1.986  -3.959   2.010  0.00  0.00    -0.243 OA
BRANCH  26  28
ATOM     28  O   UNL     1       1.253  -4.183   4.096  0.00  0.00    -0.460 OA
BRANCH  28  29
ATOM     29  C   UNL     1       2.632  -4.311   4.532  0.00  0.00    +0.229 C 
ATOM     30  C   UNL     1       2.671  -4.504   6.049  0.00  0.00    +0.048 C 
ENDBRANCH  28  29
ENDBRANCH  26  28
ENDBRANCH  20  26
ENDBRANCH  16  18
ENDBRANCH   3  16
BRANCH   1  31
ATOM     31  C   UNL     1      -7.784  -1.715   0.282  0.00  0.00    +0.107 C 
BRANCH  31  32
ATOM     32  C   UNL     1      -8.301  -1.246  -1.079  0.00  0.00    +0.000 C 
BRANCH  32  33
ATOM     33  C   UNL     1      -9.530  -0.356  -0.879  0.00  0.00    -0.077 C 
BRANCH  33  34
ATOM     34  N   UNL     1     -10.005   0.106  -2.200  0.00  0.00    +0.379 N 
ATOM     35  H   UNL     1      -9.216   0.516  -2.713  0.00  0.00    -0.082 HD
BRANCH  34  37
ATOM     36  C   UNL     1     -11.769  -1.624  -2.281  0.00  0.00    -0.017 C 
ATOM     37  C   UNL     1     -10.538  -1.036  -2.973  0.00  0.00    -0.082 C 
ENDBRANCH  34  37
BRANCH  34  38
ATOM     38  C   UNL     1     -11.053   1.133  -2.030  0.00  0.00    -0.082 C 
ATOM     39  C   UNL     1     -11.378   1.739  -3.396  0.00  0.00    -0.017 C 
ENDBRANCH  34  38
ENDBRANCH  33  34
ENDBRANCH  32  33
ENDBRANCH  31  32
ENDBRANCH   1  31
TORSDOF 13
