REMARK  Name = ZINC09140102
REMARK  6 active torsions:
REMARK  status: ('A' for Active; 'I' for Inactive)
REMARK    1  A    between atoms: C_8  and  N_11
REMARK    2  A    between atoms: N_11  and  N_12
REMARK    3  A    between atoms: C_13  and  C_15
REMARK    4  A    between atoms: C_18  and  N_21
REMARK    5  A    between atoms: N_21  and  S_22
REMARK    6  A    between atoms: S_22  and  C_25
REMARK                            x       y       z     vdW  Elec       q    Type
REMARK                         _______ _______ _______ _____ _____    ______ ____
ROOT
ATOM      1  C   UNL     1      -2.927  -3.452  -0.014  0.00  0.00    +0.038 A 
ATOM      2  C   UNL     1      -3.546  -2.200   0.026  0.00  0.00    +0.015 A 
ATOM      3  C   UNL     1      -4.900  -2.111   0.258  0.00  0.00    +0.025 A 
ATOM      4  C   UNL     1      -5.652  -3.266   0.452  0.00  0.00    +0.048 A 
ATOM      5  C   UNL     1      -5.038  -4.515   0.412  0.00  0.00    +0.025 A 
ATOM      6  C   UNL     1      -3.686  -4.611   0.175  0.00  0.00    +0.015 A 
ENDROOT
BRANCH   1   8
ATOM      7  N   UNL     1      -0.745  -2.434  -0.444  0.00  0.00    -0.232 N 
ATOM      8  C   UNL     1      -1.476  -3.552  -0.262  0.00  0.00    +0.260 C 
ATOM      9  O   UNL     1      -0.939  -4.642  -0.302  0.00  0.00    -0.269 OA
ATOM     10  H   UNL     1      -1.174  -1.564  -0.412  0.00  0.00    +0.173 HD
BRANCH   7  11
ATOM     11  N   UNL     1       0.632  -2.528  -0.680  0.00  0.00    -0.259 N 
ATOM     12  H   UNL     1       1.051  -3.399  -0.767  0.00  0.00    +0.170 HD
BRANCH  11  20
ATOM     13  C   UNL     1      -0.487   1.876  -0.757  0.00  0.00    +0.001 A 
ATOM     14  C   UNL     1       0.635   2.680  -0.881  0.00  0.00    +0.002 A 
ATOM     15  C   UNL     1       1.902   2.124  -0.965  0.00  0.00    +0.024 A 
ATOM     16  C   UNL     1       2.063   0.742  -0.925  0.00  0.00    +0.043 A 
ATOM     17  N   UNL     1       3.177  -0.042  -0.987  0.00  0.00    -0.280 N 
ATOM     18  C   UNL     1       2.865  -1.323  -0.912  0.00  0.00    +0.264 C 
ATOM     19  O   UNL     1       3.647  -2.257  -0.940  0.00  0.00    -0.268 OA
ATOM     20  C   UNL     1       1.369  -1.420  -0.783  0.00  0.00    +0.116 C 
ATOM     21  C   UNL     1       0.913  -0.079  -0.797  0.00  0.00    +0.024 A 
ATOM     22  C   UNL     1      -0.358   0.501  -0.715  0.00  0.00    +0.012 A 
ATOM     23  H   UNL     1       4.082   0.297  -1.076  0.00  0.00    +0.155 HD
ENDBRANCH  11  20
ENDBRANCH   7  11
ENDBRANCH   1   8
BRANCH   4  24
ATOM     24  N   UNL     1      -7.020  -3.172   0.685  0.00  0.00    -0.216 N 
ATOM     25  H   UNL     1      -7.360  -2.519   1.316  0.00  0.00    +0.174 HD
BRANCH  24  26
ATOM     26  S   UNL     1      -8.067  -4.176  -0.113  0.00  0.00    +0.072 S 
ATOM     27  O   UNL     1      -7.579  -5.499   0.067  0.00  0.00    -0.150 OA
ATOM     28  O   UNL     1      -9.377  -3.788   0.275  0.00  0.00    -0.150 OA
BRANCH  26  29
ATOM     29  C   UNL     1      -7.924  -3.817  -1.833  0.00  0.00    +0.109 A 
ATOM     30  C   UNL     1      -8.650  -2.778  -2.384  0.00  0.00    +0.030 A 
ATOM     31  C   UNL     1      -8.538  -2.496  -3.733  0.00  0.00    +0.017 A 
ATOM     32  C   UNL     1      -7.699  -3.253  -4.530  0.00  0.00    +0.018 A 
ATOM     33  C   UNL     1      -6.972  -4.293  -3.978  0.00  0.00    +0.017 A 
ATOM     34  C   UNL     1      -7.081  -4.571  -2.628  0.00  0.00    +0.030 A 
ATOM     35 BR   UNL     1      -7.545  -2.868  -6.375  0.00  0.00    -0.050 Br
ENDBRANCH  26  29
ENDBRANCH  24  26
ENDBRANCH   4  24
TORSDOF 6
