REMARK  Name = ZINC63996507
REMARK  12 active torsions:
REMARK  status: ('A' for Active; 'I' for Inactive)
REMARK    1  A    between atoms: C_1  and  C_2
REMARK    2  A    between atoms: C_2  and  C_3
REMARK    3  A    between atoms: C_2  and  C_4
REMARK    4  A    between atoms: C_4  and  C_6
REMARK    5  A    between atoms: C_4  and  N_29
REMARK    6  A    between atoms: N_8  and  C_9
REMARK    7  A    between atoms: C_9  and  C_10
REMARK    8  A    between atoms: C_10  and  C_12
REMARK    9  A    between atoms: C_10  and  C_20
REMARK   10  A    between atoms: C_15  and  O_18
REMARK   11  A    between atoms: O_18  and  C_19
REMARK   12  A    between atoms: C_30  and  C_32
REMARK                            x       y       z     vdW  Elec       q    Type
REMARK                         _______ _______ _______ _____ _____    ______ ____
ROOT
ATOM      1  C   UNL     1      -3.626   3.119   2.186  0.00  0.00    +0.064 C 
ENDROOT
BRANCH   1   2
ATOM      2  C   UNL     1      -4.357   3.439   0.908  0.00  0.00    -0.033 C 
ATOM      3  C   UNL     1      -3.916   4.213  -0.110  0.00  0.00    -0.000 A 
ATOM      4  C   UNL     1      -2.671   4.960  -0.323  0.00  0.00    +0.010 A 
ATOM      5  C   UNL     1      -2.514   5.660  -1.470  0.00  0.00    +0.001 A 
ATOM      6  C   UNL     1      -3.509   5.689  -2.457  0.00  0.00    +0.002 A 
ATOM      7  C   UNL     1      -4.679   5.028  -2.333  0.00  0.00    +0.026 A 
ATOM      8  C   UNL     1      -4.950   4.260  -1.168  0.00  0.00    +0.043 A 
ATOM      9  N   UNL     1      -5.991   3.543  -0.817  0.00  0.00    -0.380 N 
ATOM     10  C   UNL     1      -5.731   2.955   0.501  0.00  0.00    +0.145 C 
ATOM     11  H   UNL     1      -6.796   3.419  -1.344  0.00  0.00    +0.160 HD
ENDBRANCH   1   2
BRANCH   1  12
ATOM     12  C   UNL     1      -4.436   3.600   3.363  0.00  0.00    -0.038 A 
ATOM     13  C   UNL     1      -5.707   3.100   3.576  0.00  0.00    +0.008 A 
ATOM     14  C   UNL     1      -6.452   3.540   4.654  0.00  0.00    +0.046 A 
ATOM     15  C   UNL     1      -5.923   4.484   5.522  0.00  0.00    +0.120 A 
ATOM     16  C   UNL     1      -4.647   4.984   5.306  0.00  0.00    +0.046 A 
ATOM     17  C   UNL     1      -3.904   4.537   4.230  0.00  0.00    +0.008 A 
BRANCH  15  18
ATOM     18  O   UNL     1      -6.653   4.918   6.582  0.00  0.00    -0.495 OA
ATOM     19  C   UNL     1      -6.045   5.891   7.434  0.00  0.00    +0.277 C 
ENDBRANCH  15  18
ENDBRANCH   1  12
BRANCH   1  20
ATOM     20  C   UNL     1      -3.421   1.607   2.292  0.00  0.00    +0.116 C 
BRANCH  20  23
ATOM     21  C   UNL     1      -2.212  -0.147   1.109  0.00  0.00    +0.234 C 
ATOM     22  O   UNL     1      -2.580  -0.934   1.956  0.00  0.00    -0.274 OA
ATOM     23  N   UNL     1      -2.535   1.157   1.216  0.00  0.00    -0.313 N 
ATOM     24  H   UNL     1      -2.182   1.798   0.579  0.00  0.00    +0.149 HD
BRANCH  21  25
ATOM     25  C   UNL     1      -1.394  -0.627  -0.062  0.00  0.00    +0.162 C 
BRANCH  25  26
ATOM     26  N   UNL     1      -1.672  -2.045  -0.302  0.00  0.00    -0.299 N 
ATOM     27  C   UNL     1      -1.486  -2.570  -1.530  0.00  0.00    +0.251 C 
ATOM     28  O   UNL     1      -1.087  -1.865  -2.438  0.00  0.00    -0.270 OA
ATOM     29  H   UNL     1      -1.989  -2.607   0.422  0.00  0.00    +0.150 HD
BRANCH  27  30
ATOM     30  C   UNL     1      -1.763  -3.989  -1.770  0.00  0.00    +0.074 A 
ATOM     31  C   UNL     1      -1.634  -4.718  -2.942  0.00  0.00    +0.021 A 
ATOM     32  C   UNL     1      -1.974  -6.047  -2.859  0.00  0.00    +0.008 A 
ATOM     33  C   UNL     1      -2.401  -6.545  -1.672  0.00  0.00    +0.046 A 
ATOM     34  S   UNL     1      -2.347  -5.229  -0.630  0.00  0.00    -0.092 S 
ENDBRANCH  27  30
ENDBRANCH  25  26
BRANCH  25  36
ATOM     35  C   UNL     1       0.491  -1.359   1.405  0.00  0.00    +0.009 C 
ATOM     36  C   UNL     1       0.093  -0.443   0.246  0.00  0.00    +0.012 C 
ATOM     37  C   UNL     1       0.918  -0.801  -0.993  0.00  0.00    +0.009 C 
ENDBRANCH  25  36
ENDBRANCH  21  25
ENDBRANCH  20  23
ENDBRANCH   1  20
TORSDOF 9
