REMARK  Name = ZINC00001419
REMARK  6 active torsions:
REMARK  status: ('A' for Active; 'I' for Inactive)
REMARK    1  A    between atoms: C_1  and  C_2
REMARK    2  A    between atoms: C_3  and  O_23
REMARK    3  A    between atoms: C_4  and  C_22
REMARK    4  A    between atoms: C_7  and  O_8
REMARK    5  A    between atoms: C_12  and  C_15
REMARK    6  A    between atoms: C_18  and  O_21
REMARK                            x       y       z     vdW  Elec       q    Type
REMARK                         _______ _______ _______ _____ _____    ______ ____
ROOT
ATOM      1  C   UNL     1       2.734   5.657   0.502  0.00  0.00    +0.051 C 
ATOM      2  C   UNL     1       2.620   4.179   0.232  0.00  0.00    +0.033 A 
ATOM      3  C   UNL     1       3.760   3.433  -0.044  0.00  0.00    +0.130 A 
ATOM      4  C   UNL     1       3.672   2.070  -0.293  0.00  0.00    +0.034 A 
ATOM      5  C   UNL     1       2.442   1.436  -0.271  0.00  0.00    +0.142 A 
ATOM      6  C   UNL     1       1.284   2.188   0.002  0.00  0.00    +0.101 A 
ATOM      7  C   UNL     1       1.380   3.565   0.257  0.00  0.00    +0.137 A 
ATOM      8  C   UNL     1      -0.018   1.514   0.010  0.00  0.00    +0.174 C 
ATOM      9  O   UNL     1      -1.060   2.138   0.019  0.00  0.00    -0.292 OA
ATOM     10  C   UNL     1       0.002  -0.004   0.002  0.00  0.00    +0.129 C 
ATOM     11  C   UNL     1       1.121  -0.438  -0.957  0.00  0.00    +0.211 C 
ATOM     12  O   UNL     1       2.363   0.105  -0.509  0.00  0.00    -0.483 OA
ATOM     13  C   UNL     1       4.919   1.278  -0.589  0.00  0.00    +0.051 C 
ENDROOT
BRANCH  11  14
ATOM     14  C   UNL     1       1.208  -1.942  -0.980  0.00  0.00    -0.007 A 
ATOM     15  C   UNL     1       1.872  -2.610   0.033  0.00  0.00    +0.011 A 
ATOM     16  C   UNL     1       1.949  -3.989   0.017  0.00  0.00    +0.046 A 
ATOM     17  C   UNL     1       1.370  -4.703  -1.022  0.00  0.00    +0.117 A 
ATOM     18  C   UNL     1       0.710  -4.030  -2.039  0.00  0.00    +0.046 A 
ATOM     19  C   UNL     1       0.631  -2.651  -2.016  0.00  0.00    +0.011 A 
BRANCH  17  20
ATOM     20  O   UNL     1       1.449  -6.060  -1.042  0.00  0.00    -0.507 OA
ATOM     21  H   UNL     1       2.226  -6.402  -1.504  0.00  0.00    +0.292 HD
ENDBRANCH  17  20
ENDBRANCH  11  14
BRANCH   7  22
ATOM     22  O   UNL     1       0.265   4.289   0.526  0.00  0.00    -0.506 OA
ATOM     23  H   UNL     1      -0.158   4.666  -0.257  0.00  0.00    +0.292 HD
ENDBRANCH   7  22
BRANCH   3  24
ATOM     24  O   UNL     1       4.971   4.043  -0.070  0.00  0.00    -0.506 OA
ATOM     25  H   UNL     1       5.221   4.384  -0.939  0.00  0.00    +0.292 HD
ENDBRANCH   3  24
TORSDOF 4
