REMARK  Name = ZINC06462148
REMARK  13 active torsions:
REMARK  status: ('A' for Active; 'I' for Inactive)
REMARK    1  A    between atoms: C_1  and  C_2
REMARK    2  A    between atoms: C_2  and  C_3
REMARK    3  A    between atoms: C_3  and  C_4
REMARK    4  A    between atoms: C_3  and  C_5
REMARK    5  A    between atoms: C_3  and  N_6
REMARK    6  A    between atoms: C_7  and  C_9
REMARK    7  A    between atoms: C_9  and  C_11
REMARK    8  A    between atoms: C_9  and  N_21
REMARK    9  A    between atoms: N_21  and  C_22
REMARK   10  A    between atoms: C_22  and  C_23
REMARK   11  A    between atoms: C_29  and  C_31
REMARK   12  A    between atoms: C_32  and  N_39
REMARK   13  A    between atoms: C_33  and  C_36
REMARK                            x       y       z     vdW  Elec       q    Type
REMARK                         _______ _______ _______ _____ _____    ______ ____
ROOT
ATOM      1  N   UNL     1       4.487   0.618   0.028  0.00  0.00    -0.277 N 
ATOM      2  C   UNL     1       3.263   0.074   0.177  0.00  0.00    +0.258 C 
ATOM      3  O   UNL     1       3.120  -1.133   0.102  0.00  0.00    -0.269 OA
ENDROOT
BRANCH   2   4
ATOM      4  C   UNL     1       2.104   0.933   0.428  0.00  0.00    +0.115 A 
ATOM      5  C   UNL     1       0.795   0.580   0.761  0.00  0.00    +0.076 A 
ATOM      6  C   UNL     1      -0.033   1.690   0.923  0.00  0.00    +0.155 A 
ATOM      7  N   UNL     1       0.466   2.895   0.758  0.00  0.00    -0.203 NA
ATOM      8  S   UNL     1       1.988   2.710   0.393  0.00  0.00    +0.019 S 
BRANCH   6   9
ATOM      9  C   UNL     1      -1.454   1.514   1.276  0.00  0.00    +0.262 C 
ATOM     10  O   UNL     1      -1.909   0.397   1.426  0.00  0.00    -0.269 OA
ATOM     11  N   UNL     1      -2.248   2.592   1.431  0.00  0.00    -0.324 N 
ATOM     12  H   UNL     1      -1.885   3.483   1.311  0.00  0.00    +0.145 HD
ATOM     13  H   UNL     1      -3.183   2.476   1.663  0.00  0.00    +0.145 HD
ENDBRANCH   6   9
BRANCH   5  14
ATOM     14  N   UNL     1       0.366  -0.732   0.913  0.00  0.00    -0.355 N 
ATOM     15  H   UNL     1      -0.558  -0.916   1.145  0.00  0.00    +0.142 HD
ATOM     16  H   UNL     1       0.990  -1.464   0.787  0.00  0.00    +0.142 HD
ENDBRANCH   5  14
ENDBRANCH   2   4
BRANCH   1  17
ATOM     17  C   UNL     1       5.628  -0.229  -0.327  0.00  0.00    +0.195 C 
BRANCH  17  18
ATOM     18  C   UNL     1       6.099   0.117  -1.716  0.00  0.00    +0.007 A 
ATOM     19  C   UNL     1       5.859   1.260  -2.378  0.00  0.00    +0.089 A 
ATOM     20  N   UNL     1       6.449   1.216  -3.612  0.00  0.00    -0.360 N 
ATOM     21  H   UNL     1       6.417   1.928  -4.271  0.00  0.00    +0.165 HD
ATOM     22  C   UNL     1       7.090   0.009  -3.782  0.00  0.00    +0.047 A 
ATOM     23  C   UNL     1       6.899  -0.732  -2.602  0.00  0.00    +0.005 A 
ATOM     24  C   UNL     1       7.444  -2.012  -2.487  0.00  0.00    +0.010 A 
ATOM     25  C   UNL     1       8.162  -2.539  -3.523  0.00  0.00    +0.001 A 
ATOM     26  C   UNL     1       8.353  -1.812  -4.690  0.00  0.00    +0.002 A 
ATOM     27  C   UNL     1       7.824  -0.547  -4.824  0.00  0.00    +0.026 A 
ENDBRANCH  17  18
BRANCH  17  29
ATOM     28  N   UNL     1       7.922  -0.642   0.499  0.00  0.00    -0.308 N 
ATOM     29  C   UNL     1       6.747  -0.001   0.655  0.00  0.00    +0.239 C 
ATOM     30  O   UNL     1       6.592   0.761   1.586  0.00  0.00    -0.273 OA
ATOM     31  H   UNL     1       8.047  -1.252  -0.245  0.00  0.00    +0.149 HD
BRANCH  28  32
ATOM     32  C   UNL     1       9.011  -0.420   1.454  0.00  0.00    +0.029 C 
ATOM     33  C   UNL     1       9.396   1.061   1.452  0.00  0.00    +0.031 C 
ATOM     34  C   UNL     1       8.552  -0.826   2.855  0.00  0.00    +0.031 C 
BRANCH  32  36
ATOM     35  C   UNL     1      11.360  -1.030   2.047  0.00  0.00    +0.006 C 
ATOM     36  C   UNL     1      10.223  -1.262   1.050  0.00  0.00    +0.022 C 
ENDBRANCH  32  36
ENDBRANCH  28  32
ENDBRANCH  17  29
ENDBRANCH   1  17
BRANCH   1  37
ATOM     37  C   UNL     1       4.676   2.058   0.220  0.00  0.00    +0.144 C 
BRANCH  37  38
ATOM     38  C   UNL     1       4.814   2.355   1.691  0.00  0.00    -0.030 A 
ATOM     39  C   UNL     1       3.744   2.146   2.541  0.00  0.00    +0.005 A 
ATOM     40  C   UNL     1       3.872   2.413   3.892  0.00  0.00    +0.000 A 
ATOM     41  C   UNL     1       5.066   2.899   4.390  0.00  0.00    +0.000 A 
ATOM     42  C   UNL     1       6.134   3.114   3.539  0.00  0.00    +0.000 A 
ATOM     43  C   UNL     1       6.008   2.841   2.189  0.00  0.00    +0.005 A 
ENDBRANCH  37  38
ENDBRANCH   1  37
TORSDOF 10
