REMARK  Name = ZINC39913795
REMARK  9 active torsions:
REMARK  status: ('A' for Active; 'I' for Inactive)
REMARK    1  A    between atoms: C_1  and  C_2
REMARK    2  A    between atoms: N_16  and  C_31
REMARK    3  A    between atoms: C_17  and  C_19
REMARK    4  A    between atoms: C_22  and  O_27
REMARK    5  A    between atoms: C_23  and  O_25
REMARK    6  A    between atoms: O_25  and  C_26
REMARK    7  A    between atoms: O_27  and  C_28
REMARK    8  A    between atoms: C_28  and  C_29
REMARK    9  A    between atoms: C_31  and  C_32
REMARK                            x       y       z     vdW  Elec       q    Type
REMARK                         _______ _______ _______ _____ _____    ______ ____
ROOT
ATOM      1  C   UNL     1      -0.018   1.503   0.010  0.00  0.00    +0.045 C 
ATOM      2  C   UNL     1       0.002  -0.004   0.002  0.00  0.00    -0.029 A 
ATOM      3  C   UNL     1       0.006  -0.677  -1.199  0.00  0.00    +0.051 A 
ATOM      4  C   UNL     1       0.026  -2.071  -1.222  0.00  0.00    +0.140 A 
ATOM      5  C   UNL     1       0.047  -2.767  -0.001  0.00  0.00    +0.066 A 
ATOM      6  C   UNL     1       0.040  -2.075   1.209  0.00  0.00    +0.035 A 
ATOM      7  C   UNL     1       0.023  -0.696   1.206  0.00  0.00    +0.045 A 
ATOM      8 CL   UNL     1       0.021   0.175   2.707  0.00  0.00    -0.083 Cl
ATOM      9  C   UNL     1       0.085  -4.251  -0.018  0.00  0.00    +0.199 A 
ATOM     10  O   UNL     1      -0.063  -4.933   0.980  0.00  0.00    -0.287 OA
ATOM     11  C   UNL     1       0.317  -4.817  -1.351  0.00  0.00    +0.072 A 
ATOM     12  C   UNL     1       0.278  -4.030  -2.467  0.00  0.00    +0.199 A 
ATOM     13  O   UNL     1       0.021  -2.708  -2.416  0.00  0.00    -0.450 OA
ATOM     14  C   UNL     1       0.555  -4.877  -3.640  0.00  0.00    +0.283 C 
ATOM     15  O   UNL     1       0.599  -4.483  -4.788  0.00  0.00    -0.267 OA
ATOM     16  N   UNL     1       0.754  -6.154  -3.253  0.00  0.00    -0.279 N 
ATOM     17  C   UNL     1       0.617  -6.213  -1.789  0.00  0.00    +0.145 C 
ENDROOT
BRANCH  17  18
ATOM     18  C   UNL     1       1.905  -6.687  -1.165  0.00  0.00    -0.019 A 
ATOM     19  C   UNL     1       3.117  -6.273  -1.685  0.00  0.00    +0.009 A 
ATOM     20  C   UNL     1       4.300  -6.705  -1.117  0.00  0.00    +0.050 A 
ATOM     21  C   UNL     1       4.274  -7.555  -0.023  0.00  0.00    +0.162 A 
ATOM     22  C   UNL     1       3.054  -7.972   0.501  0.00  0.00    +0.162 A 
ATOM     23  C   UNL     1       1.871  -7.531  -0.071  0.00  0.00    +0.055 A 
BRANCH  22  24
ATOM     24  O   UNL     1       3.022  -8.806   1.575  0.00  0.00    -0.491 OA
ATOM     25  C   UNL     1       1.734  -9.192   2.058  0.00  0.00    +0.277 C 
ENDBRANCH  22  24
BRANCH  21  26
ATOM     26  O   UNL     1       5.437  -7.982   0.537  0.00  0.00    -0.484 OA
BRANCH  26  27
ATOM     27  C   UNL     1       6.651  -7.514  -0.053  0.00  0.00    +0.256 C 
BRANCH  27  28
ATOM     28  C   UNL     1       7.827  -8.086   0.695  0.00  0.00    +0.006 C 
ATOM     29  C   UNL     1       8.845  -8.583   0.036  0.00  0.00    +0.007 C 
ENDBRANCH  27  28
ENDBRANCH  26  27
ENDBRANCH  21  26
ENDBRANCH  17  18
BRANCH  16  30
ATOM     30  C   UNL     1       1.053  -7.284  -4.136  0.00  0.00    +0.144 C 
BRANCH  30  31
ATOM     31  C   UNL     1       2.546  -7.413  -4.299  0.00  0.00    -0.030 A 
ATOM     32  C   UNL     1       3.190  -6.737  -5.319  0.00  0.00    +0.008 A 
ATOM     33  C   UNL     1       4.559  -6.855  -5.469  0.00  0.00    +0.038 A 
ATOM     34  C   UNL     1       5.285  -7.649  -4.597  0.00  0.00    +0.123 A 
ATOM     35  C   UNL     1       4.638  -8.325  -3.577  0.00  0.00    +0.038 A 
ATOM     36  C   UNL     1       3.270  -8.202  -3.425  0.00  0.00    +0.008 A 
ATOM     37  F   UNL     1       6.623  -7.765  -4.743  0.00  0.00    -0.205 F 
ENDBRANCH  30  31
ENDBRANCH  16  30
TORSDOF 7
