REMARK  Name = ZINC03242566
REMARK  9 active torsions:
REMARK  status: ('A' for Active; 'I' for Inactive)
REMARK    1  A    between atoms: C_1  and  C_2
REMARK    2  A    between atoms: C_5  and  C_8
REMARK    3  A    between atoms: C_8  and  C_32
REMARK    4  A    between atoms: N_12  and  C_24
REMARK    5  A    between atoms: N_14  and  C_15
REMARK    6  A    between atoms: C_20  and  O_21
REMARK    7  A    between atoms: O_21  and  C_22
REMARK    8  A    between atoms: C_29  and  O_30
REMARK    9  A    between atoms: O_30  and  C_31
REMARK                            x       y       z     vdW  Elec       q    Type
REMARK                         _______ _______ _______ _____ _____    ______ ____
ROOT
ATOM      1  C   UNL     1      -2.022   3.840   7.066  0.00  0.00    +0.210 C 
ATOM      2  N   UNL     1      -3.424   4.165   6.810  0.00  0.00    -0.273 N 
ATOM      3  C   UNL     1      -4.064   3.895   5.676  0.00  0.00    +0.314 C 
ATOM      4  O   UNL     1      -5.209   4.296   5.591  0.00  0.00    -0.252 OA
ATOM      5  N   UNL     1      -3.582   3.237   4.622  0.00  0.00    -0.199 N 
ATOM      6  C   UNL     1      -2.306   2.690   4.631  0.00  0.00    +0.172 C 
ATOM      7  N   UNL     1      -1.642   2.483   3.519  0.00  0.00    -0.222 NA
ATOM      8  S   UNL     1      -1.613   2.291   6.211  0.00  0.00    -0.050 S 
ATOM      9  H   UNL     1      -3.922   4.606   7.516  0.00  0.00    +0.152 HD
ENDROOT
BRANCH   1  14
ATOM     10  C   UNL     1      -1.187   3.198  12.748  0.00  0.00    +0.044 C 
ATOM     11  C   UNL     1      -1.405   3.365  11.266  0.00  0.00    -0.050 A 
ATOM     12  C   UNL     1      -0.603   2.685  10.368  0.00  0.00    +0.004 A 
ATOM     13  C   UNL     1      -0.803   2.839   9.009  0.00  0.00    +0.007 A 
ATOM     14  C   UNL     1      -1.804   3.673   8.547  0.00  0.00    -0.005 A 
ATOM     15  C   UNL     1      -2.602   4.357   9.445  0.00  0.00    +0.007 A 
ATOM     16  C   UNL     1      -2.406   4.199  10.804  0.00  0.00    +0.004 A 
ENDBRANCH   1  14
BRANCH   7  17
ATOM     17  C   UNL     1      -0.416   1.870   3.557  0.00  0.00    +0.108 A 
ATOM     18  C   UNL     1      -0.255   0.667   4.244  0.00  0.00    +0.031 A 
ATOM     19  C   UNL     1       0.983   0.058   4.284  0.00  0.00    +0.002 A 
ATOM     20  C   UNL     1       2.064   0.633   3.639  0.00  0.00    +0.004 A 
ATOM     21  C   UNL     1       1.914   1.823   2.950  0.00  0.00    +0.048 A 
ATOM     22  C   UNL     1       0.679   2.446   2.901  0.00  0.00    +0.145 A 
BRANCH  22  23
ATOM     23  O   UNL     1       0.531   3.616   2.224  0.00  0.00    -0.493 OA
ATOM     24  C   UNL     1       1.694   4.147   1.585  0.00  0.00    +0.277 C 
ENDBRANCH  22  23
ENDBRANCH   7  17
BRANCH   5  25
ATOM     25  C   UNL     1      -4.386   3.091   3.481  0.00  0.00    +0.086 A 
ATOM     26  C   UNL     1      -5.221   1.991   3.355  0.00  0.00    +0.027 A 
ATOM     27  C   UNL     1      -6.016   1.852   2.233  0.00  0.00    +0.002 A 
ATOM     28  C   UNL     1      -5.972   2.802   1.228  0.00  0.00    +0.004 A 
ATOM     29  C   UNL     1      -5.137   3.897   1.344  0.00  0.00    +0.047 A 
ATOM     30  C   UNL     1      -4.341   4.046   2.469  0.00  0.00    +0.142 A 
BRANCH  30  31
ATOM     31  O   UNL     1      -3.519   5.123   2.583  0.00  0.00    -0.493 OA
ATOM     32  C   UNL     1      -3.526   6.063   1.507  0.00  0.00    +0.277 C 
ENDBRANCH  30  31
ENDBRANCH   5  25
BRANCH   1  33
ATOM     33  C   UNL     1      -1.128   4.966   6.541  0.00  0.00    +0.425 C 
ATOM     34  F   UNL     1      -1.336   5.124   5.166  0.00  0.00    -0.167 F 
ATOM     35  F   UNL     1      -1.445   6.159   7.200  0.00  0.00    -0.167 F 
ATOM     36  F   UNL     1       0.213   4.645   6.775  0.00  0.00    -0.167 F 
ENDBRANCH   1  33
TORSDOF 6
