REMARK  Name = ZINC04964919
REMARK  9 active torsions:
REMARK  status: ('A' for Active; 'I' for Inactive)
REMARK    1  A    between atoms: C_1  and  O_2
REMARK    2  A    between atoms: O_2  and  C_3
REMARK    3  A    between atoms: C_8  and  O_9
REMARK    4  A    between atoms: O_9  and  C_10
REMARK    5  A    between atoms: C_18  and  C_19
REMARK    6  A    between atoms: C_18  and  N_58
REMARK    7  A    between atoms: C_19  and  C_21
REMARK    8  A    between atoms: C_19  and  O_30
REMARK    9  A    between atoms: C_25  and  N_27
REMARK                            x       y       z     vdW  Elec       q    Type
REMARK                         _______ _______ _______ _____ _____    ______ ____
ROOT
ATOM      1  C   UNL     1       0.214   5.614  -5.017  0.00  0.00    +0.162 A 
ATOM      2  C   UNL     1       0.663   5.040  -3.842  0.00  0.00    +0.051 A 
ATOM      3  C   UNL     1       0.941   3.681  -3.783  0.00  0.00    -0.057 A 
ATOM      4  C   UNL     1       0.764   2.896  -4.903  0.00  0.00    -0.038 A 
ATOM      5  C   UNL     1       0.317   3.469  -6.085  0.00  0.00    +0.053 A 
ATOM      6  C   UNL     1       0.040   4.823  -6.148  0.00  0.00    +0.162 A 
ATOM      7  C   UNL     1       1.037   1.418  -4.883  0.00  0.00    -0.019 C 
ATOM      8  C   UNL     1       1.820   1.030  -6.156  0.00  0.00    +0.010 C 
ATOM      9  C   UNL     1       1.228  -0.342  -6.562  0.00  0.00    +0.001 C 
ATOM     10  C   UNL     1      -0.278  -0.174  -6.242  0.00  0.00    +0.001 C 
ATOM     11  C   UNL     1      -0.297   0.652  -4.939  0.00  0.00    +0.010 C 
ATOM     12  C   UNL     1       1.820   0.998  -3.655  0.00  0.00    -0.067 C 
ATOM     13  C   UNL     1       1.431   3.109  -2.484  0.00  0.00    -0.042 C 
ATOM     14  N   UNL     1       1.310   1.641  -2.422  0.00  0.00    +0.385 N 
ATOM     15  H   UNL     1       0.316   1.403  -2.319  0.00  0.00    -0.081 HD
ENDROOT
BRANCH   1  17
ATOM     16  C   UNL     1       0.146   7.694  -3.866  0.00  0.00    +0.277 C 
ATOM     17  O   UNL     1      -0.057   6.946  -5.067  0.00  0.00    -0.491 OA
ENDBRANCH   1  17
BRANCH   6  18
ATOM     18  O   UNL     1      -0.399   5.377  -7.310  0.00  0.00    -0.491 OA
ATOM     19  C   UNL     1      -0.553   4.502  -8.429  0.00  0.00    +0.277 C 
ENDBRANCH   6  18
BRANCH  14  20
ATOM     20  C   UNL     1       2.040   1.127  -1.261  0.00  0.00    -0.042 C 
BRANCH  20  21
ATOM     21  C   UNL     1       1.286   1.562  -0.002  0.00  0.00    +0.128 C 
BRANCH  21  22
ATOM     22  C   UNL     1       2.052   1.121   1.219  0.00  0.00    -0.019 A 
ATOM     23  C   UNL     1       1.960  -0.187   1.657  0.00  0.00    +0.006 A 
ATOM     24  C   UNL     1       2.663  -0.592   2.777  0.00  0.00    +0.003 A 
ATOM     25  C   UNL     1       3.457   0.311   3.458  0.00  0.00    +0.033 A 
ATOM     26  C   UNL     1       3.549   1.619   3.020  0.00  0.00    +0.127 A 
ATOM     27  C   UNL     1       2.850   2.022   1.897  0.00  0.00    +0.038 A 
BRANCH  26  28
ATOM     28  N   UNL     1       4.399   2.586   3.750  0.00  0.00    +0.056 N 
ATOM     29  O   UNL     1       5.019   2.229   4.736  0.00  0.00    -0.126 OA
ATOM     30  O   UNL     1       4.480   3.738   3.364  0.00  0.00    -0.126 OA
ENDBRANCH  26  28
ENDBRANCH  21  22
BRANCH  21  31
ATOM     31  O   UNL     1      -0.011   0.963   0.007  0.00  0.00    -0.389 OA
ATOM     32  H   UNL     1       0.002  -0.004   0.002  0.00  0.00    +0.210 HD
ENDBRANCH  21  31
ENDBRANCH  20  21
ENDBRANCH  14  20
TORSDOF 7
