REMARK  Name = ZINC48343185
REMARK  7 active torsions:
REMARK  status: ('A' for Active; 'I' for Inactive)
REMARK    1  A    between atoms: C_1  and  C_2
REMARK    2  A    between atoms: C_3  and  C_12
REMARK    3  A    between atoms: N_15  and  C_18
REMARK    4  A    between atoms: C_18  and  N_19
REMARK    5  A    between atoms: N_22  and  C_31
REMARK    6  A    between atoms: C_23  and  C_25
REMARK    7  A    between atoms: C_31  and  C_32
REMARK                            x       y       z     vdW  Elec       q    Type
REMARK                         _______ _______ _______ _____ _____    ______ ____
ROOT
ATOM      1  C   UNL     1       0.879   2.830  -5.984  0.00  0.00    +0.072 C 
ENDROOT
BRANCH   1   5
ATOM      2  C   UNL     1       1.027  -0.219  -3.011  0.00  0.00    +0.018 C 
ATOM      3  C   UNL     1       2.268   0.639  -3.272  0.00  0.00    -0.010 C 
ATOM      4  C   UNL     1       2.147   1.295  -4.649  0.00  0.00    -0.076 C 
ATOM      5  N   UNL     1       0.949   2.142  -4.688  0.00  0.00    +0.393 N 
ATOM      6  C   UNL     1      -0.251   1.315  -4.510  0.00  0.00    -0.076 C 
ATOM      7  C   UNL     1      -0.222   0.659  -3.127  0.00  0.00    -0.010 C 
ATOM      8  H   UNL     1       0.997   2.826  -3.948  0.00  0.00    -0.079 HD
BRANCH   2  11
ATOM      9  C   UNL     1       1.236  -3.236  -2.313  0.00  0.00    +0.063 C 
ATOM     10  C   UNL     1       1.194  -2.109  -1.314  0.00  0.00    +0.017 A 
ATOM     11  C   UNL     1       1.102  -0.806  -1.625  0.00  0.00    -0.016 A 
ATOM     12  C   UNL     1       1.091  -0.064  -0.362  0.00  0.00    +0.003 A 
ATOM     13  C   UNL     1       1.014   1.291  -0.034  0.00  0.00    +0.010 A 
ATOM     14  C   UNL     1       1.027   1.673   1.278  0.00  0.00    +0.001 A 
ATOM     15  C   UNL     1       1.115   0.724   2.288  0.00  0.00    +0.002 A 
ATOM     16  C   UNL     1       1.191  -0.618   1.986  0.00  0.00    +0.026 A 
ATOM     17  C   UNL     1       1.180  -1.029   0.657  0.00  0.00    +0.047 A 
ATOM     18  N   UNL     1       1.236  -2.261   0.045  0.00  0.00    -0.358 N 
ATOM     19  H   UNL     1       1.298  -3.111   0.509  0.00  0.00    +0.166 HD
ENDBRANCH   2  11
ENDBRANCH   1   5
BRANCH   1  20
ATOM     20  N   UNL     1      -0.249   3.765  -5.980  0.00  0.00    -0.257 N 
ATOM     21  C   UNL     1      -1.431   3.591  -6.606  0.00  0.00    +0.177 A 
ATOM     22  S   UNL     1      -1.886   2.236  -7.549  0.00  0.00    -0.011 S 
ATOM     23  N   UNL     1      -2.191   4.676  -6.354  0.00  0.00    -0.299 N 
ATOM     24  C   UNL     1      -1.463   5.538  -5.556  0.00  0.00    +0.163 A 
ATOM     25  N   UNL     1      -0.299   5.001  -5.321  0.00  0.00    -0.152 NA
BRANCH  24  26
ATOM     26  C   UNL     1      -1.929   6.848  -5.050  0.00  0.00    +0.022 A 
ATOM     27  C   UNL     1      -3.089   7.443  -5.557  0.00  0.00    +0.031 A 
ATOM     28  C   UNL     1      -3.488   8.665  -5.056  0.00  0.00    +0.111 A 
ATOM     29  N   UNL     1      -2.792   9.270  -4.112  0.00  0.00    -0.263 NA
ATOM     30  C   UNL     1      -1.693   8.743  -3.607  0.00  0.00    +0.111 A 
ATOM     31  C   UNL     1      -1.225   7.522  -4.046  0.00  0.00    +0.031 A 
ENDBRANCH  24  26
BRANCH  23  32
ATOM     32  C   UNL     1      -3.553   4.902  -6.841  0.00  0.00    +0.161 C 
BRANCH  32  33
ATOM     33  C   UNL     1      -3.501   5.422  -8.255  0.00  0.00    -0.028 A 
ATOM     34  C   UNL     1      -3.277   6.766  -8.489  0.00  0.00    +0.005 A 
ATOM     35  C   UNL     1      -3.229   7.243  -9.785  0.00  0.00    +0.000 A 
ATOM     36  C   UNL     1      -3.405   6.377 -10.848  0.00  0.00    +0.000 A 
ATOM     37  C   UNL     1      -3.628   5.033 -10.614  0.00  0.00    +0.000 A 
ATOM     38  C   UNL     1      -3.672   4.555  -9.318  0.00  0.00    +0.005 A 
ENDBRANCH  32  33
ENDBRANCH  23  32
ENDBRANCH   1  20
TORSDOF 6
