REMARK  Name = ZINC08896613
REMARK  11 active torsions:
REMARK  status: ('A' for Active; 'I' for Inactive)
REMARK    1  A    between atoms: C_1  and  C_2
REMARK    2  A    between atoms: C_2  and  C_3
REMARK    3  A    between atoms: C_2  and  C_4
REMARK    4  A    between atoms: C_2  and  C_5
REMARK    5  A    between atoms: C_12  and  N_17
REMARK    6  A    between atoms: C_13  and  C_14
REMARK    7  A    between atoms: N_17  and  C_18
REMARK    8  A    between atoms: C_18  and  N_20
REMARK    9  A    between atoms: C_21  and  C_23
REMARK   10  A    between atoms: C_32  and  O_33
REMARK   11  A    between atoms: O_33  and  C_34
REMARK                            x       y       z     vdW  Elec       q    Type
REMARK                         _______ _______ _______ _____ _____    ______ ____
ROOT
ATOM      1  N   UNL     1      -1.438  -0.889   2.497  0.00  0.00    -0.291 N 
ATOM      2  H   UNL     1      -0.615  -0.401   2.655  0.00  0.00    +0.154 HD
ENDROOT
BRANCH   1   9
ATOM      3  C   UNL     1      -3.179  -2.302  -3.489  0.00  0.00    -0.000 C 
ATOM      4  C   UNL     1      -2.513  -0.930  -3.629  0.00  0.00    +0.009 C 
ATOM      5  C   UNL     1      -1.378  -0.796  -2.613  0.00  0.00    +0.037 C 
ATOM      6  C   UNL     1      -1.919  -1.128  -1.228  0.00  0.00    -0.023 A 
ATOM      7  C   UNL     1      -3.069  -1.821  -1.079  0.00  0.00    -0.004 A 
ATOM      8  S   UNL     1      -3.285  -1.968   0.672  0.00  0.00    -0.077 S 
ATOM      9  C   UNL     1      -1.865  -1.129   1.201  0.00  0.00    +0.084 A 
ATOM     10  C   UNL     1      -1.257  -0.754   0.010  0.00  0.00    +0.068 A 
ATOM     11  C   UNL     1      -3.958  -2.340  -2.166  0.00  0.00    +0.046 C 
BRANCH  10  12
ATOM     12  C   UNL     1       0.002  -0.004   0.002  0.00  0.00    +0.244 C 
ATOM     13  O   UNL     1       1.064  -0.598  -0.011  0.00  0.00    -0.270 OA
ATOM     14  N   UNL     1      -0.016   1.344   0.009  0.00  0.00    -0.325 N 
ATOM     15  H   UNL     1       0.817   1.840   0.004  0.00  0.00    +0.145 HD
ATOM     16  H   UNL     1      -0.863   1.817   0.016  0.00  0.00    +0.145 HD
ENDBRANCH  10  12
BRANCH   3  18
ATOM     17  C   UNL     1      -5.204  -1.429  -4.662  0.00  0.00    +0.011 C 
ATOM     18  C   UNL     1      -4.140  -2.528  -4.658  0.00  0.00    -0.035 C 
ATOM     19  C   UNL     1      -3.361  -2.489  -5.974  0.00  0.00    +0.011 C 
ATOM     20  C   UNL     1      -4.816  -3.892  -4.505  0.00  0.00    +0.011 C 
ENDBRANCH   3  18
ENDBRANCH   1   9
BRANCH   1  21
ATOM     21  C   UNL     1      -2.168  -1.334   3.539  0.00  0.00    +0.141 C 
ATOM     22  S   UNL     1      -3.621  -2.196   3.261  0.00  0.00    -0.018 S 
BRANCH  21  23
ATOM     23  N   UNL     1      -1.753  -1.101   4.800  0.00  0.00    -0.263 N 
ATOM     24  C   UNL     1      -2.483  -1.547   5.843  0.00  0.00    +0.253 C 
ATOM     25  O   UNL     1      -3.514  -2.158   5.645  0.00  0.00    -0.270 OA
ATOM     26  H   UNL     1      -0.930  -0.613   4.958  0.00  0.00    +0.157 HD
BRANCH  24  27
ATOM     27  C   UNL     1      -2.029  -1.292   7.223  0.00  0.00    +0.079 A 
ATOM     28  C   UNL     1      -0.852  -0.594   7.443  0.00  0.00    +0.025 A 
ATOM     29  C   UNL     1      -0.426  -0.355   8.757  0.00  0.00    -0.017 A 
ATOM     30  C   UNL     1       0.764   0.350   9.017  0.00  0.00    +0.008 A 
ATOM     31  C   UNL     1       1.151   0.567  10.303  0.00  0.00    +0.001 A 
ATOM     32  C   UNL     1       0.386   0.100  11.371  0.00  0.00    +0.001 A 
ATOM     33  C   UNL     1      -0.771  -0.586  11.159  0.00  0.00    +0.008 A 
ATOM     34  C   UNL     1      -1.205  -0.830   9.844  0.00  0.00    -0.014 A 
ATOM     35  C   UNL     1      -2.394  -1.535   9.594  0.00  0.00    +0.055 A 
ATOM     36  C   UNL     1      -2.799  -1.755   8.311  0.00  0.00    +0.133 A 
BRANCH  36  37
ATOM     37  O   UNL     1      -3.952  -2.432   8.078  0.00  0.00    -0.494 OA
ATOM     38  C   UNL     1      -4.687  -2.875   9.220  0.00  0.00    +0.277 C 
ENDBRANCH  36  37
ENDBRANCH  24  27
ENDBRANCH  21  23
ENDBRANCH   1  21
TORSDOF 7
