REMARK  Name = ZINC39488025
REMARK  7 active torsions:
REMARK  status: ('A' for Active; 'I' for Inactive)
REMARK    1  A    between atoms: C_1  and  C_2
REMARK    2  A    between atoms: C_2  and  C_29
REMARK    3  A    between atoms: N_4  and  C_22
REMARK    4  A    between atoms: N_7  and  C_8
REMARK    5  A    between atoms: C_8  and  C_9
REMARK    6  A    between atoms: C_9  and  C_16
REMARK    7  A    between atoms: C_27  and  O_28
REMARK                            x       y       z     vdW  Elec       q    Type
REMARK                         _______ _______ _______ _____ _____    ______ ____
ROOT
ATOM      1  C   UNL     1      -0.250   1.346  -0.081  0.00  0.00    +0.038 C 
ATOM      2  C   UNL     1      -0.401  -0.106   0.380  0.00  0.00    +0.077 C 
ATOM      3  C   UNL     1      -1.811  -0.347   0.953  0.00  0.00    +0.146 C 
ATOM      4  N   UNL     1      -1.562  -0.735   2.350  0.00  0.00    -0.250 N 
ATOM      5  C   UNL     1      -0.242  -0.730   2.579  0.00  0.00    +0.310 C 
ATOM      6  O   UNL     1       0.245  -1.013   3.656  0.00  0.00    -0.252 OA
ATOM      7  N   UNL     1       0.493  -0.384   1.514  0.00  0.00    -0.274 N 
ENDROOT
BRANCH   4   8
ATOM      8  C   UNL     1      -2.548  -1.059   3.291  0.00  0.00    +0.079 A 
ATOM      9  C   UNL     1      -2.899  -2.384   3.502  0.00  0.00    +0.027 A 
ATOM     10  C   UNL     1      -3.872  -2.701   4.431  0.00  0.00    +0.002 A 
ATOM     11  C   UNL     1      -4.498  -1.700   5.152  0.00  0.00    +0.004 A 
ATOM     12  C   UNL     1      -4.153  -0.377   4.947  0.00  0.00    +0.047 A 
ATOM     13  C   UNL     1      -3.174  -0.051   4.021  0.00  0.00    +0.138 A 
BRANCH  13  14
ATOM     14  O   UNL     1      -2.830   1.249   3.823  0.00  0.00    -0.505 OA
ATOM     15  H   UNL     1      -3.399   1.715   3.195  0.00  0.00    +0.292 HD
ENDBRANCH  13  14
ENDBRANCH   4   8
BRANCH   2  16
ATOM     16  C   UNL     1      -0.121  -1.052  -0.759  0.00  0.00    -0.023 A 
ATOM     17  C   UNL     1       0.891  -1.986  -0.648  0.00  0.00    +0.006 A 
ATOM     18  C   UNL     1       1.148  -2.855  -1.693  0.00  0.00    +0.000 A 
ATOM     19  C   UNL     1       0.392  -2.789  -2.848  0.00  0.00    +0.000 A 
ATOM     20  C   UNL     1      -0.622  -1.855  -2.958  0.00  0.00    +0.000 A 
ATOM     21  C   UNL     1      -0.881  -0.990  -1.912  0.00  0.00    +0.006 A 
ENDBRANCH   2  16
BRANCH   7  22
ATOM     22  C   UNL     1       1.955  -0.296   1.483  0.00  0.00    +0.117 C 
BRANCH  22  23
ATOM     23  C   UNL     1       2.408   0.936   2.268  0.00  0.00    -0.008 C 
ATOM     24  C   UNL     1       3.938   0.988   2.301  0.00  0.00    +0.025 C 
ATOM     25  C   UNL     1       4.470  -0.249   3.028  0.00  0.00    +0.098 C 
ATOM     26  N   UNL     1       3.935  -0.282   4.395  0.00  0.00    -0.242 NA
ATOM     27  C   UNL     1       2.470  -0.380   4.389  0.00  0.00    +0.098 C 
ATOM     28  C   UNL     1       1.878   0.853   3.702  0.00  0.00    +0.025 C 
ATOM     29 BR   UNL     1       4.687  -1.664   5.368  0.00  0.00    +0.013 Br
BRANCH  23  30
ATOM     30  C   UNL     1       1.867   2.199   1.595  0.00  0.00    -0.003 C 
ATOM     31  C   UNL     1       2.550   2.387   0.239  0.00  0.00    +0.004 C 
ATOM     32  C   UNL     1       2.009   3.650  -0.434  0.00  0.00    +0.000 C 
ATOM     33  C   UNL     1       2.294   4.863   0.454  0.00  0.00    +0.000 C 
ATOM     34  C   UNL     1       1.611   4.676   1.810  0.00  0.00    +0.000 C 
ATOM     35  C   UNL     1       2.153   3.413   2.483  0.00  0.00    +0.004 C 
ENDBRANCH  23  30
ENDBRANCH  22  23
ENDBRANCH   7  22
TORSDOF 6
