REMARK  Name = ZINC43737510
REMARK  15 active torsions:
REMARK  status: ('A' for Active; 'I' for Inactive)
REMARK    1  A    between atoms: C_1  and  C_2
REMARK    2  A    between atoms: C_2  and  C_3
REMARK    3  A    between atoms: C_3  and  O_5
REMARK    4  A    between atoms: O_5  and  C_6
REMARK    5  A    between atoms: C_10  and  C_44
REMARK    6  A    between atoms: C_15  and  C_43
REMARK    7  A    between atoms: C_25  and  C_42
REMARK    8  A    between atoms: C_28  and  C_41
REMARK    9  A    between atoms: C_29  and  C_31
REMARK   10  A    between atoms: C_31  and  C_32
REMARK   11  A    between atoms: C_32  and  C_33
REMARK   12  A    between atoms: C_33  and  C_35
REMARK   13  A    between atoms: C_33  and  C_36
REMARK   14  A    between atoms: C_36  and  N_37
REMARK   15  A    between atoms: C_38  and  C_40
REMARK                            x       y       z     vdW  Elec       q    Type
REMARK                         _______ _______ _______ _____ _____    ______ ____
ROOT
ATOM      1  C   UNL     1       0.294  -1.488  -2.092  0.00  0.00    +0.180 C 
ATOM      2  C   UNL     1       1.273  -2.646  -1.931  0.00  0.00    +0.046 C 
ATOM      3  C   UNL     1       0.561  -3.990  -1.767  0.00  0.00    +0.015 C 
ATOM      4  C   UNL     1      -0.334  -4.250  -2.982  0.00  0.00    -0.008 C 
ATOM      5  C   UNL     1      -1.116  -5.556  -2.842  0.00  0.00    +0.003 C 
ATOM      6  C   UNL     1      -0.256  -6.710  -2.354  0.00  0.00    +0.005 C 
ATOM      7  C   UNL     1      -1.007  -8.048  -2.340  0.00  0.00    +0.008 C 
ATOM      8  C   UNL     1      -2.512  -7.834  -2.321  0.00  0.00    -0.019 C 
ATOM      9  C   UNL     1      -2.812  -6.620  -1.406  0.00  0.00    +0.003 C 
ATOM     10  C   UNL     1      -2.288  -5.319  -1.865  0.00  0.00    +0.000 C 
ATOM     11  C   UNL     1      -3.298  -4.458  -2.646  0.00  0.00    +0.031 C 
ATOM     12  C   UNL     1      -2.581  -3.163  -2.945  0.00  0.00    -0.027 C 
ATOM     13  C   UNL     1      -1.295  -3.080  -3.070  0.00  0.00    -0.064 C 
ATOM     14  C   UNL     1      -0.652  -1.718  -3.276  0.00  0.00    +0.075 C 
ATOM     15  C   UNL     1      -4.245  -6.823  -0.912  0.00  0.00    +0.052 C 
ATOM     16  C   UNL     1      -4.164  -8.298  -0.511  0.00  0.00    +0.115 C 
ATOM     17  C   UNL     1      -3.344  -8.887  -1.715  0.00  0.00    +0.068 C 
ATOM     18  C   UNL     1      -3.416 -10.304  -1.447  0.00  0.00    -0.028 C 
ATOM     19  C   UNL     1      -4.614 -10.433  -0.830  0.00  0.00    +0.098 C 
ATOM     20  O   UNL     1      -5.250  -9.204  -0.695  0.00  0.00    -0.490 OA
ATOM     21  C   UNL     1      -2.415 -11.380  -1.770  0.00  0.00    +0.043 C 
ATOM     22  C   UNL     1      -3.507  -8.513   0.854  0.00  0.00    +0.056 C 
ATOM     23  C   UNL     1      -3.054  -7.646  -3.743  0.00  0.00    +0.012 C 
ATOM     24  C   UNL     1       0.506  -4.322  -4.259  0.00  0.00    +0.016 C 
ENDROOT
BRANCH   1  25
ATOM     25  O   UNL     1      -0.473  -1.341  -0.895  0.00  0.00    -0.461 OA
BRANCH  25  26
ATOM     26  C   UNL     1      -0.881  -0.102  -0.581  0.00  0.00    +0.307 C 
ATOM     27  O   UNL     1      -0.597   0.828  -1.299  0.00  0.00    -0.251 OA
BRANCH  26  29
ATOM     28  C   UNL     1      -2.027   1.619   0.789  0.00  0.00    +0.015 C 
ATOM     29  C   UNL     1      -1.694   0.130   0.667  0.00  0.00    +0.117 C 
ENDBRANCH  26  29
ENDBRANCH  25  26
ENDBRANCH   1  25
BRANCH  19  30
ATOM     30  C   UNL     1      -5.188 -11.742  -0.357  0.00  0.00    +0.074 C 
BRANCH  30  31
ATOM     31  C   UNL     1      -4.847 -11.944   1.121  0.00  0.00    +0.012 C 
BRANCH  31  32
ATOM     32  C   UNL     1      -5.431 -13.274   1.601  0.00  0.00    +0.003 C 
ATOM     33  C   UNL     1      -4.745 -14.427   0.866  0.00  0.00    +0.009 C 
BRANCH  32  34
ATOM     34  C   UNL     1      -5.198 -13.418   3.107  0.00  0.00    +0.107 C 
BRANCH  34  35
ATOM     35  N   UNL     1      -5.860 -14.633   3.589  0.00  0.00    -0.315 N 
ATOM     36  C   UNL     1      -5.790 -14.967   4.893  0.00  0.00    +0.210 C 
ATOM     37  O   UNL     1      -5.179 -14.261   5.667  0.00  0.00    -0.276 OA
ATOM     38  C   UNL     1      -6.470 -16.217   5.388  0.00  0.00    +0.109 C 
ATOM     39  H   UNL     1      -6.348 -15.198   2.969  0.00  0.00    +0.149 HD
ENDBRANCH  34  35
ENDBRANCH  32  34
ENDBRANCH  31  32
ENDBRANCH  30  31
ENDBRANCH  19  30
TORSDOF 8
