REMARK  Name = ZINC09059108
REMARK  5 active torsions:
REMARK  status: ('A' for Active; 'I' for Inactive)
REMARK    1  A    between atoms: C_1  and  C_2
REMARK    2  A    between atoms: C_4  and  C_31
REMARK    3  A    between atoms: C_17  and  C_25
REMARK    4  A    between atoms: C_19  and  C_23
REMARK    5  A    between atoms: C_20  and  N_22
REMARK                            x       y       z     vdW  Elec       q    Type
REMARK                         _______ _______ _______ _____ _____    ______ ____
ROOT
ATOM      1  C   UNL     1       1.826  -1.357  -0.015  0.00  0.00    +0.044 C 
ATOM      2  C   UNL     1       2.895  -0.294  -0.023  0.00  0.00    -0.037 A 
ATOM      3  C   UNL     1       4.226  -0.642   0.006  0.00  0.00    +0.027 A 
ATOM      4  C   UNL     1       5.207   0.338  -0.001  0.00  0.00    +0.040 A 
ATOM      5  N   UNL     1       4.875   1.615  -0.037  0.00  0.00    -0.245 NA
ATOM      6  C   UNL     1       3.616   1.994  -0.064  0.00  0.00    +0.111 A 
ATOM      7  C   UNL     1       2.546   1.077  -0.061  0.00  0.00    +0.035 A 
ATOM      8  C   UNL     1       1.197   1.660  -0.096  0.00  0.00    +0.069 A 
ATOM      9  C   UNL     1       1.129   3.042  -0.127  0.00  0.00    +0.081 A 
ATOM     10  S   UNL     1       2.820   3.580  -0.112  0.00  0.00    -0.063 S 
ATOM     11  C   UNL     1      -0.094   3.730  -0.160  0.00  0.00    +0.155 A 
ATOM     12  C   UNL     1      -1.264   2.998  -0.164  0.00  0.00    +0.073 A 
ATOM     13  C   UNL     1      -1.189   1.600  -0.140  0.00  0.00    +0.257 A 
ATOM     14  O   UNL     1      -2.220   0.947  -0.149  0.00  0.00    -0.267 OA
ATOM     15  N   UNL     1      -0.011   0.965  -0.102  0.00  0.00    -0.321 N 
ATOM     16  H   UNL     1      -0.012  -0.135  -0.074  0.00  0.00    +0.169 HD
ATOM     17  C   UNL     1      -2.601   3.685  -0.201  0.00  0.00    +0.103 C 
ATOM     18  C   UNL     1      -2.437   5.118  -0.625  0.00  0.00    +0.098 C 
ATOM     19  C   UNL     1      -1.226   5.724  -0.594  0.00  0.00    +0.199 C 
ATOM     20  O   UNL     1      -0.119   5.080  -0.186  0.00  0.00    -0.440 OA
ATOM     21  C   UNL     1       6.660  -0.058   0.031  0.00  0.00    +0.065 C 
ENDROOT
BRANCH  17  22
ATOM     22  C   UNL     1      -3.220   3.638   1.173  0.00  0.00    -0.034 A 
ATOM     23  C   UNL     1      -2.574   4.228   2.243  0.00  0.00    +0.004 A 
ATOM     24  C   UNL     1      -3.144   4.189   3.501  0.00  0.00    +0.000 A 
ATOM     25  C   UNL     1      -4.356   3.553   3.692  0.00  0.00    +0.000 A 
ATOM     26  C   UNL     1      -5.000   2.958   2.623  0.00  0.00    +0.000 A 
ATOM     27  C   UNL     1      -4.432   3.001   1.363  0.00  0.00    +0.004 A 
ENDBRANCH  17  22
BRANCH  19  28
ATOM     28  N   UNL     1      -1.127   7.034  -0.991  0.00  0.00    -0.328 N 
ATOM     29  H   UNL     1      -0.151   7.542  -0.972  0.00  0.00    +0.145 HD
ATOM     30  H   UNL     1      -2.022   7.576  -1.328  0.00  0.00    +0.145 HD
ENDBRANCH  19  28
BRANCH  18  31
ATOM     31  C   UNL     1      -3.581   5.855  -1.070  0.00  0.00    +0.101 C 
ATOM     32  N   UNL     1      -4.489   6.440  -1.423  0.00  0.00    -0.191 NA
ENDBRANCH  18  31
TORSDOF 3
