REMARK  Name = ZINC13306173
REMARK  7 active torsions:
REMARK  status: ('A' for Active; 'I' for Inactive)
REMARK    1  A    between atoms: C_1  and  C_2
REMARK    2  A    between atoms: C_6  and  C_19
REMARK    3  A    between atoms: C_7  and  O_8
REMARK    4  A    between atoms: O_8  and  S_9
REMARK    5  A    between atoms: S_9  and  C_12
REMARK    6  A    between atoms: N_20  and  N_21
REMARK    7  A    between atoms: C_26  and  C_29
REMARK                            x       y       z     vdW  Elec       q    Type
REMARK                         _______ _______ _______ _____ _____    ______ ____
ROOT
ATOM      1  C   UNL     1       2.370   3.812   0.202  0.00  0.00    +0.047 C 
ATOM      2  C   UNL     1       0.938   3.376   0.377  0.00  0.00    -0.005 A 
ATOM      3  C   UNL     1       0.653   2.072   0.737  0.00  0.00    +0.007 A 
ATOM      4  C   UNL     1      -0.659   1.661   0.901  0.00  0.00    +0.001 A 
ATOM      5  C   UNL     1      -1.696   2.549   0.701  0.00  0.00    +0.013 A 
ATOM      6  C   UNL     1      -1.421   3.871   0.342  0.00  0.00    +0.040 A 
ATOM      7  C   UNL     1      -0.089   4.282   0.177  0.00  0.00    +0.168 A 
ENDROOT
BRANCH   6   8
ATOM      8  C   UNL     1      -2.521   4.825   0.133  0.00  0.00    +0.146 C 
ATOM      9  N   UNL     1      -3.757   4.442   0.299  0.00  0.00    -0.155 NA
BRANCH   9  10
ATOM     10  N   UNL     1      -4.725   5.250   0.026  0.00  0.00    -0.127 NA
ATOM     11  C   UNL     1      -5.972   4.833   0.100  0.00  0.00    +0.183 C 
ATOM     12  N   UNL     1      -7.120   5.515  -0.244  0.00  0.00    -0.263 N 
ATOM     13  C   UNL     1      -8.323   4.981  -0.123  0.00  0.00    +0.232 C 
ATOM     14  O   UNL     1      -9.329   5.586  -0.426  0.00  0.00    -0.274 OA
ATOM     15  C   UNL     1      -8.366   3.563   0.422  0.00  0.00    +0.137 C 
ATOM     16  S   UNL     1      -6.573   3.247   0.661  0.00  0.00    -0.076 S 
ATOM     17  C   UNL     1      -8.962   2.594  -0.602  0.00  0.00    +0.029 C 
ATOM     18  H   UNL     1      -7.041   6.419  -0.588  0.00  0.00    +0.157 HD
ENDBRANCH   9  10
ENDBRANCH   6   8
BRANCH   7  19
ATOM     19  O   UNL     1       0.191   5.564  -0.176  0.00  0.00    -0.341 OA
BRANCH  19  20
ATOM     20  S   UNL     1       0.389   5.764  -1.671  0.00  0.00    +0.151 S 
ATOM     21  O   UNL     1       0.890   7.083  -1.841  0.00  0.00    -0.131 OA
ATOM     22  O   UNL     1       1.083   4.619  -2.146  0.00  0.00    -0.131 OA
BRANCH  20  23
ATOM     23  C   UNL     1      -1.207   5.732  -2.418  0.00  0.00    +0.128 A 
ATOM     24  C   UNL     1      -1.683   4.562  -2.979  0.00  0.00    +0.032 A 
ATOM     25  C   UNL     1      -2.937   4.534  -3.559  0.00  0.00    +0.022 A 
ATOM     26  C   UNL     1      -3.711   5.681  -3.589  0.00  0.00    +0.041 A 
ATOM     27  C   UNL     1      -3.231   6.853  -3.032  0.00  0.00    +0.022 A 
ATOM     28  C   UNL     1      -1.979   6.878  -2.447  0.00  0.00    +0.032 A 
ATOM     29 CL   UNL     1      -5.283   5.649  -4.324  0.00  0.00    -0.084 Cl
ENDBRANCH  20  23
ENDBRANCH  19  20
ENDBRANCH   7  19
TORSDOF 5
