REMARK  Name = ZINC36684895
REMARK  9 active torsions:
REMARK  status: ('A' for Active; 'I' for Inactive)
REMARK    1  A    between atoms: C_1  and  C_2
REMARK    2  A    between atoms: C_5  and  C_35
REMARK    3  A    between atoms: N_8  and  S_10
REMARK    4  A    between atoms: S_10  and  C_13
REMARK    5  A    between atoms: C_17  and  C_19
REMARK    6  A    between atoms: N_21  and  C_22
REMARK    7  A    between atoms: C_22  and  C_23
REMARK    8  A    between atoms: C_23  and  C_25
REMARK    9  A    between atoms: C_23  and  N_30
REMARK                            x       y       z     vdW  Elec       q    Type
REMARK                         _______ _______ _______ _____ _____    ______ ____
ROOT
ATOM      1  C   UNL     1       2.714   2.508   2.002  0.00  0.00    +0.106 A 
ATOM      2  C   UNL     1       3.526   3.182   1.107  0.00  0.00    +0.028 A 
ATOM      3  C   UNL     1       3.272   4.505   0.794  0.00  0.00    +0.003 A 
ATOM      4  C   UNL     1       2.207   5.162   1.375  0.00  0.00    +0.013 A 
ATOM      5  C   UNL     1       1.385   4.489   2.279  0.00  0.00    +0.039 A 
ATOM      6  C   UNL     1       1.643   3.151   2.586  0.00  0.00    +0.041 A 
ENDROOT
BRANCH   5   7
ATOM      7  C   UNL     1       0.242   5.186   2.906  0.00  0.00    +0.244 C 
ATOM      8  O   UNL     1      -0.473   4.597   3.693  0.00  0.00    -0.270 OA
ATOM      9  N   UNL     1      -0.008   6.476   2.605  0.00  0.00    -0.313 N 
ATOM     10  H   UNL     1       0.563   6.947   1.977  0.00  0.00    +0.149 HD
BRANCH   9  11
ATOM     11  C   UNL     1      -1.140   7.168   3.226  0.00  0.00    +0.094 C 
BRANCH  11  12
ATOM     12  C   UNL     1      -1.136   8.637   2.799  0.00  0.00    -0.013 C 
BRANCH  12  13
ATOM     13  N   UNL     1      -2.191   9.360   3.523  0.00  0.00    +0.386 N 
ATOM     14  C   UNL     1      -1.921   9.332   4.984  0.00  0.00    -0.078 C 
ATOM     15  C   UNL     1      -2.728  10.542   5.517  0.00  0.00    -0.020 C 
ATOM     16  C   UNL     1      -2.550  11.595   4.399  0.00  0.00    -0.020 C 
ATOM     17  C   UNL     1      -2.186  10.788   3.140  0.00  0.00    -0.078 C 
ATOM     18  H   UNL     1      -3.091   8.950   3.327  0.00  0.00    -0.081 HD
ENDBRANCH  12  13
BRANCH  12  19
ATOM     19  C   UNL     1      -1.390   8.731   1.317  0.00  0.00    -0.022 A 
ATOM     20  C   UNL     1      -0.502   8.906   0.308  0.00  0.00    +0.009 A 
ATOM     21  C   UNL     1      -0.967   8.962  -0.993  0.00  0.00    +0.008 A 
ATOM     22  C   UNL     1      -2.298   8.839  -1.220  0.00  0.00    +0.045 A 
ATOM     23  S   UNL     1      -2.938   8.631   0.433  0.00  0.00    -0.103 S 
ENDBRANCH  12  19
ENDBRANCH  11  12
ENDBRANCH   9  11
ENDBRANCH   5   7
BRANCH   1  24
ATOM     24  S   UNL     1       3.046   0.822   2.392  0.00  0.00    +0.061 S 
ATOM     25  O   UNL     1       2.464   0.578   3.666  0.00  0.00    -0.153 OA
ATOM     26  O   UNL     1       4.427   0.609   2.132  0.00  0.00    -0.153 OA
BRANCH  24  32
ATOM     27  C   UNL     1      -0.131   1.396   0.342  0.00  0.00    +0.009 C 
ATOM     28  C   UNL     1      -0.064  -0.131   0.423  0.00  0.00    +0.002 C 
ATOM     29  C   UNL     1       0.512  -0.687  -0.881  0.00  0.00    +0.009 C 
ATOM     30  C   UNL     1       1.905  -0.099  -1.117  0.00  0.00    +0.002 C 
ATOM     31  C   UNL     1       2.829  -0.510   0.034  0.00  0.00    +0.112 C 
ATOM     32  N   UNL     1       2.211  -0.106   1.304  0.00  0.00    -0.176 NA
ATOM     33  C   UNL     1       0.837  -0.542   1.592  0.00  0.00    +0.112 C 
ATOM     34  C   UNL     1       2.467  -0.629  -2.437  0.00  0.00    +0.009 C 
ENDBRANCH  24  32
ENDBRANCH   1  24
TORSDOF 7
