REMARK  Name = ZINC39324816
REMARK  11 active torsions:
REMARK  status: ('A' for Active; 'I' for Inactive)
REMARK    1  A    between atoms: C_1  and  C_2
REMARK    2  A    between atoms: C_9  and  C_14
REMARK    3  A    between atoms: C_14  and  N_15
REMARK    4  A    between atoms: N_15  and  C_16
REMARK    5  A    between atoms: N_15  and  S_24
REMARK    6  A    between atoms: C_16  and  C_17
REMARK    7  A    between atoms: C_17  and  C_18
REMARK    8  A    between atoms: S_24  and  C_27
REMARK    9  A    between atoms: C_32  and  C_33
REMARK   10  A    between atoms: C_33  and  O_35
REMARK   11  A    between atoms: O_35  and  C_36
REMARK                            x       y       z     vdW  Elec       q    Type
REMARK                         _______ _______ _______ _____ _____    ______ ____
ROOT
ATOM      1  N   UNL     1       0.317  -6.220   3.057  0.00  0.00    -0.175 NA
ENDROOT
BRANCH   1   2
ATOM      2  S   UNL     1       0.063  -7.525   2.070  0.00  0.00    +0.062 S 
ATOM      3  O   UNL     1       0.712  -7.236   0.840  0.00  0.00    -0.153 OA
ATOM      4  O   UNL     1       0.367  -8.681   2.839  0.00  0.00    -0.153 OA
BRANCH   2   5
ATOM      5  C   UNL     1      -1.664  -7.589   1.725  0.00  0.00    +0.119 A 
ATOM      6  C   UNL     1      -2.130  -7.264   0.468  0.00  0.00    +0.029 A 
ATOM      7  C   UNL     1      -3.486  -7.315   0.195  0.00  0.00    +0.002 A 
ATOM      8  C   UNL     1      -4.383  -7.691   1.180  0.00  0.00    +0.001 A 
ATOM      9  C   UNL     1      -3.930  -8.018   2.441  0.00  0.00    +0.017 A 
ATOM     10  C   UNL     1      -2.562  -7.975   2.721  0.00  0.00    +0.085 A 
BRANCH  10  11
ATOM     11  C   UNL     1      -2.070  -8.330   4.068  0.00  0.00    +0.341 C 
ATOM     12  O   UNL     1      -0.898  -8.173   4.347  0.00  0.00    -0.245 OA
BRANCH  11  13
ATOM     13  O   UNL     1      -2.920  -8.828   4.987  0.00  0.00    -0.464 OA
ATOM     14  C   UNL     1      -2.408  -9.022   6.307  0.00  0.00    +0.280 C 
ENDBRANCH  11  13
ENDBRANCH  10  11
ENDBRANCH   2   5
ENDBRANCH   1   2
BRANCH   1  15
ATOM     15  C   UNL     1       0.087  -4.864   2.552  0.00  0.00    +0.126 C 
BRANCH  15  24
ATOM     16  C   UNL     1       1.986   1.134  -0.828  0.00  0.00    +0.044 C 
ATOM     17  C   UNL     1       2.221  -0.279  -0.359  0.00  0.00    -0.050 A 
ATOM     18  C   UNL     1       3.149  -1.075  -1.030  0.00  0.00    +0.005 A 
ATOM     19  C   UNL     1       3.414  -2.357  -0.665  0.00  0.00    +0.024 A 
ATOM     20  C   UNL     1       2.747  -2.941   0.428  0.00  0.00    +0.040 A 
ATOM     21  N   UNL     1       3.015  -4.199   0.777  0.00  0.00    -0.284 N 
ATOM     22  C   UNL     1       2.425  -4.809   1.791  0.00  0.00    +0.225 C 
ATOM     23  O   UNL     1       2.711  -5.959   2.063  0.00  0.00    -0.275 OA
ATOM     24  C   UNL     1       1.393  -4.069   2.613  0.00  0.00    +0.114 C 
ATOM     25  C   UNL     1       1.085  -2.638   2.220  0.00  0.00    -0.003 C 
ATOM     26  C   UNL     1       1.761  -2.123   1.155  0.00  0.00    -0.007 A 
ATOM     27  C   UNL     1       1.528  -0.748   0.711  0.00  0.00    +0.012 A 
ATOM     28  H   UNL     1       3.674  -4.691   0.262  0.00  0.00    +0.155 HD
ENDBRANCH  15  24
ENDBRANCH   1  15
BRANCH   1  29
ATOM     29  C   UNL     1       0.770  -6.421   4.436  0.00  0.00    +0.114 C 
BRANCH  29  30
ATOM     30  C   UNL     1      -0.352  -6.039   5.403  0.00  0.00    +0.052 C 
BRANCH  30  31
ATOM     31  C   UNL     1       0.130  -6.202   6.821  0.00  0.00    -0.046 A 
ATOM     32  C   UNL     1      -0.030  -7.412   7.471  0.00  0.00    +0.003 A 
ATOM     33  C   UNL     1       0.412  -7.561   8.772  0.00  0.00    +0.000 A 
ATOM     34  C   UNL     1       1.014  -6.501   9.423  0.00  0.00    +0.000 A 
ATOM     35  C   UNL     1       1.175  -5.292   8.774  0.00  0.00    +0.000 A 
ATOM     36  C   UNL     1       0.737  -5.143   7.471  0.00  0.00    +0.003 A 
ENDBRANCH  30  31
ENDBRANCH  29  30
ENDBRANCH   1  29
TORSDOF 9
