REMARK  Name = ZINC39726913
REMARK  7 active torsions:
REMARK  status: ('A' for Active; 'I' for Inactive)
REMARK    1  A    between atoms: C_1  and  C_2
REMARK    2  A    between atoms: N_10  and  N_14
REMARK    3  A    between atoms: C_15  and  C_17
REMARK    4  A    between atoms: C_17  and  S_18
REMARK    5  A    between atoms: S_18  and  C_19
REMARK    6  A    between atoms: C_23  and  C_28
REMARK    7  A    between atoms: N_24  and  C_25
REMARK                            x       y       z     vdW  Elec       q    Type
REMARK                         _______ _______ _______ _____ _____    ______ ____
ROOT
ATOM      1  S   UNL     1       5.205  -7.864  -2.647  0.00  0.00    -0.109 S 
ENDROOT
BRANCH   1   2
ATOM      2  C   UNL     1       5.541  -9.647  -2.672  0.00  0.00    +0.237 C 
ATOM      3  N   UNL     1       4.402 -10.393  -2.113  0.00  0.00    -0.237 N 
ATOM      4  N   UNL     1       4.886 -11.074  -0.989  0.00  0.00    -0.169 NA
ATOM      5  C   UNL     1       6.157 -10.836  -0.802  0.00  0.00    +0.147 C 
ATOM      6  N   UNL     1       6.665  -9.972  -1.780  0.00  0.00    -0.282 N 
ATOM      7  H   UNL     1       3.494 -10.409  -2.455  0.00  0.00    +0.171 HD
BRANCH   5   8
ATOM      8  C   UNL     1       6.917 -11.379   0.245  0.00  0.00    +0.022 C 
ATOM      9  C   UNL     1       6.503 -12.318   1.190  0.00  0.00    +0.006 A 
ATOM     10  C   UNL     1       5.277 -12.988   1.394  0.00  0.00    +0.010 A 
ATOM     11  C   UNL     1       5.155 -13.873   2.417  0.00  0.00    +0.001 A 
ATOM     12  C   UNL     1       6.218 -14.142   3.281  0.00  0.00    +0.002 A 
ATOM     13  C   UNL     1       7.423 -13.536   3.144  0.00  0.00    +0.026 A 
ATOM     14  C   UNL     1       7.626 -12.599   2.098  0.00  0.00    +0.043 A 
ATOM     15  N   UNL     1       8.683 -11.887   1.757  0.00  0.00    -0.380 N 
ATOM     16  C   UNL     1       8.360 -11.072   0.583  0.00  0.00    +0.152 C 
ATOM     17  H   UNL     1       9.541 -11.905   2.210  0.00  0.00    +0.160 HD
ENDBRANCH   5   8
BRANCH   6  18
ATOM     18  C   UNL     1       8.042  -9.485  -1.893  0.00  0.00    +0.078 C 
ATOM     19  C   UNL     1       8.345  -8.473  -2.999  0.00  0.00    +0.024 C 
ATOM     20  C   UNL     1       8.844  -9.914  -3.123  0.00  0.00    +0.024 C 
ENDBRANCH   6  18
ENDBRANCH   1   2
BRANCH   1  21
ATOM     21  C   UNL     1       4.859  -7.507  -0.903  0.00  0.00    +0.169 C 
BRANCH  21  23
ATOM     22  N   UNL     1       4.273  -5.541   0.479  0.00  0.00    -0.223 N 
ATOM     23  C   UNL     1       4.560  -6.039  -0.740  0.00  0.00    +0.240 C 
ATOM     24  O   UNL     1       4.579  -5.306  -1.706  0.00  0.00    -0.273 OA
ATOM     25  H   UNL     1       4.258  -6.127   1.251  0.00  0.00    +0.174 HD
BRANCH  22  35
ATOM     26  C   UNL     1       2.160   2.050   1.394  0.00  0.00    +0.007 C 
ATOM     27  C   UNL     1       1.938   0.540   1.292  0.00  0.00    -0.014 C 
ATOM     28  C   UNL     1       2.417   0.046  -0.074  0.00  0.00    +0.006 C 
ATOM     29  C   UNL     1       2.184  -1.464  -0.179  0.00  0.00    +0.035 C 
ATOM     30  C   UNL     1       2.947  -2.175   0.933  0.00  0.00    +0.114 C 
ATOM     31  C   UNL     1       2.495  -1.677   2.301  0.00  0.00    +0.035 C 
ATOM     32  C   UNL     1       2.726  -0.167   2.397  0.00  0.00    +0.006 C 
ATOM     33  C   UNL     1       2.759  -3.671   0.828  0.00  0.00    +0.263 C 
ATOM     34  O   UNL     1       1.718  -4.288   0.905  0.00  0.00    -0.271 OA
ATOM     35  N   UNL     1       3.995  -4.176   0.630  0.00  0.00    -0.137 N 
ATOM     36  C   UNL     1       4.922  -3.211   0.597  0.00  0.00    +0.326 C 
ATOM     37  O   UNL     1       6.108  -3.419   0.431  0.00  0.00    -0.251 OA
ATOM     38  N   UNL     1       4.393  -1.985   0.768  0.00  0.00    -0.284 N 
ATOM     39  H   UNL     1       4.873  -1.142   0.780  0.00  0.00    +0.151 HD
ENDBRANCH  22  35
ENDBRANCH  21  23
ENDBRANCH   1  21
TORSDOF 6
