REMARK  Name = ZINC39596497
REMARK  10 active torsions:
REMARK  status: ('A' for Active; 'I' for Inactive)
REMARK    1  A    between atoms: C_1  and  C_2
REMARK    2  A    between atoms: C_2  and  O_3
REMARK    3  A    between atoms: O_3  and  C_4
REMARK    4  A    between atoms: C_8  and  C_10
REMARK    5  A    between atoms: C_14  and  C_23
REMARK    6  A    between atoms: N_25  and  C_26
REMARK    7  A    between atoms: C_26  and  C_27
REMARK    8  A    between atoms: C_27  and  C_29
REMARK    9  A    between atoms: C_27  and  O_30
REMARK   10  A    between atoms: O_30  and  C_31
REMARK                            x       y       z     vdW  Elec       q    Type
REMARK                         _______ _______ _______ _____ _____    ______ ____
ROOT
ATOM      1  C   UNL     1       3.663  -3.693   3.755  0.00  0.00    +0.247 C 
ATOM      2  O   UNL     1       4.440  -3.083   4.463  0.00  0.00    -0.270 OA
ATOM      3  N   UNL     1       3.435  -5.003   3.977  0.00  0.00    -0.296 N 
ATOM      4  C   UNL     1       2.633  -5.938   3.154  0.00  0.00    +0.121 C 
ATOM      5  C   UNL     1       3.432  -7.260   3.174  0.00  0.00    +0.100 C 
ATOM      6  C   UNL     1       4.279  -7.187   4.455  0.00  0.00    -0.004 C 
ATOM      7  C   UNL     1       3.935  -5.835   5.098  0.00  0.00    +0.115 C 
ATOM      8  C   UNL     1       3.913  -8.329   5.398  0.00  0.00    -0.010 C 
ATOM      9  C   UNL     1       4.809  -8.269   6.638  0.00  0.00    -0.082 C 
ATOM     10  N   UNL     1       6.216  -8.374   6.234  0.00  0.00    +0.379 N 
ATOM     11  C   UNL     1       6.585  -7.221   5.403  0.00  0.00    -0.082 C 
ATOM     12  C   UNL     1       5.764  -7.238   4.110  0.00  0.00    -0.010 C 
ATOM     13  H   UNL     1       6.800  -8.395   7.056  0.00  0.00    -0.086 HD
ATOM     14  H   UNL     1       6.350  -9.224   5.706  0.00  0.00    -0.086 HD
ENDROOT
BRANCH   1  19
ATOM     15  C   UNL     1       1.145  -2.872   1.087  0.00  0.00    +0.121 A 
ATOM     16  C   UNL     1       1.673  -1.693   0.575  0.00  0.00    +0.046 A 
ATOM     17  C   UNL     1       2.841  -1.169   1.097  0.00  0.00    +0.004 A 
ATOM     18  C   UNL     1       3.491  -1.814   2.129  0.00  0.00    +0.013 A 
ATOM     19  C   UNL     1       2.969  -2.999   2.649  0.00  0.00    +0.040 A 
ATOM     20  C   UNL     1       1.787  -3.524   2.126  0.00  0.00    +0.058 A 
BRANCH  15  21
ATOM     21  O   UNL     1      -0.003  -3.382   0.570  0.00  0.00    -0.492 OA
BRANCH  21  23
ATOM     22  C   UNL     1      -1.884  -3.380  -0.947  0.00  0.00    +0.048 C 
ATOM     23  C   UNL     1      -0.611  -2.658  -0.501  0.00  0.00    +0.225 C 
ENDBRANCH  21  23
ENDBRANCH  15  21
ENDBRANCH   1  19
BRANCH   5  24
ATOM     24  C   UNL     1       4.319  -7.356   1.960  0.00  0.00    +0.218 C 
ATOM     25  O   UNL     1       4.761  -6.348   1.450  0.00  0.00    -0.275 OA
ATOM     26  N   UNL     1       4.622  -8.562   1.440  0.00  0.00    -0.312 N 
ATOM     27  H   UNL     1       4.269  -9.369   1.848  0.00  0.00    +0.149 HD
BRANCH  26  28
ATOM     28  C   UNL     1       5.485  -8.656   0.260  0.00  0.00    +0.148 C 
BRANCH  28  29
ATOM     29  C   UNL     1       5.669 -10.126  -0.122  0.00  0.00    +0.187 C 
ATOM     30  C   UNL     1       6.570 -10.223  -1.355  0.00  0.00    +0.053 C 
BRANCH  29  31
ATOM     31  O   UNL     1       6.272 -10.829   0.966  0.00  0.00    -0.488 OA
BRANCH  31  32
ATOM     32  C   UNL     1       6.043 -12.167   1.040  0.00  0.00    +0.121 A 
ATOM     33  C   UNL     1       6.495 -12.889   2.134  0.00  0.00    +0.048 A 
ATOM     34  C   UNL     1       6.261 -14.249   2.207  0.00  0.00    +0.042 A 
ATOM     35  C   UNL     1       5.575 -14.890   1.189  0.00  0.00    +0.124 A 
ATOM     36  C   UNL     1       5.123 -14.170   0.097  0.00  0.00    +0.042 A 
ATOM     37  C   UNL     1       5.351 -12.809   0.024  0.00  0.00    +0.048 A 
ATOM     38  F   UNL     1       5.347 -16.220   1.262  0.00  0.00    -0.205 F 
ENDBRANCH  31  32
ENDBRANCH  29  31
ENDBRANCH  28  29
ENDBRANCH  26  28
ENDBRANCH   5  24
TORSDOF 8
