REMARK  Name = ZINC38768297
REMARK  10 active torsions:
REMARK  status: ('A' for Active; 'I' for Inactive)
REMARK    1  A    between atoms: C_1  and  C_2
REMARK    2  A    between atoms: C_3  and  O_24
REMARK    3  A    between atoms: C_4  and  C_8
REMARK    4  A    between atoms: C_11  and  O_15
REMARK    5  A    between atoms: C_13  and  O_14
REMARK    6  A    between atoms: O_15  and  C_16
REMARK    7  A    between atoms: C_16  and  C_17
REMARK    8  A    between atoms: O_24  and  C_25
REMARK    9  A    between atoms: C_28  and  O_31
REMARK   10  A    between atoms: O_31  and  C_32
REMARK                            x       y       z     vdW  Elec       q    Type
REMARK                         _______ _______ _______ _____ _____    ______ ____
ROOT
ATOM      1  C   UNL     1      -1.190  -2.836   1.861  0.00  0.00    +0.025 A 
ATOM      2  C   UNL     1      -0.284  -2.774   2.902  0.00  0.00    +0.013 A 
ATOM      3  C   UNL     1      -0.660  -3.163   4.173  0.00  0.00    +0.046 A 
ATOM      4  C   UNL     1      -1.951  -3.618   4.407  0.00  0.00    +0.124 A 
ATOM      5  C   UNL     1      -2.862  -3.682   3.364  0.00  0.00    +0.091 A 
ATOM      6  C   UNL     1      -2.483  -3.285   2.091  0.00  0.00    +0.126 A 
ENDROOT
BRANCH   1  10
ATOM      7  C   UNL     1       0.209   1.108  -0.298  0.00  0.00    +0.071 C 
ATOM      8  C   UNL     1       0.035  -0.358   0.004  0.00  0.00    +0.098 C 
ATOM      9  C   UNL     1      -1.151  -0.961   0.224  0.00  0.00    +0.156 C 
ATOM     10  C   UNL     1      -0.776  -2.411   0.476  0.00  0.00    +0.200 C 
ATOM     11  N   UNL     1       0.691  -2.396   0.347  0.00  0.00    -0.294 N 
ATOM     12  N   UNL     1       1.037  -1.242   0.086  0.00  0.00    -0.179 NA
ATOM     13  H   UNL     1       1.281  -3.160   0.447  0.00  0.00    +0.184 HD
BRANCH   9  14
ATOM     14  O   UNL     1      -2.382  -0.405   0.221  0.00  0.00    -0.456 OA
BRANCH  14  15
ATOM     15  C   UNL     1      -3.256  -0.796  -0.744  0.00  0.00    +0.128 A 
ATOM     16  C   UNL     1      -2.839  -1.653  -1.752  0.00  0.00    +0.050 A 
ATOM     17  C   UNL     1      -3.727  -2.050  -2.733  0.00  0.00    +0.049 A 
ATOM     18  C   UNL     1      -5.037  -1.591  -2.709  0.00  0.00    +0.120 A 
ATOM     19  C   UNL     1      -5.454  -0.735  -1.701  0.00  0.00    +0.049 A 
ATOM     20  C   UNL     1      -4.567  -0.343  -0.717  0.00  0.00    +0.050 A 
BRANCH  18  21
ATOM     21  O   UNL     1      -5.911  -1.982  -3.675  0.00  0.00    -0.495 OA
ATOM     22  C   UNL     1      -7.243  -1.471  -3.588  0.00  0.00    +0.277 C 
ENDBRANCH  18  21
ENDBRANCH  14  15
ENDBRANCH   9  14
ENDBRANCH   1  10
BRANCH   6  23
ATOM     23  O   UNL     1      -3.376  -3.341   1.067  0.00  0.00    -0.506 OA
ATOM     24  H   UNL     1      -3.378  -4.184   0.593  0.00  0.00    +0.292 HD
ENDBRANCH   6  23
BRANCH   4  25
ATOM     25  O   UNL     1      -2.320  -4.001   5.657  0.00  0.00    -0.487 OA
BRANCH  25  26
ATOM     26  C   UNL     1      -1.330  -3.910   6.683  0.00  0.00    +0.264 C 
BRANCH  26  27
ATOM     27  C   UNL     1      -1.917  -4.374   7.991  0.00  0.00    -0.010 A 
ATOM     28  C   UNL     1      -2.543  -3.468   8.828  0.00  0.00    +0.008 A 
ATOM     29  C   UNL     1      -3.082  -3.893  10.027  0.00  0.00    +0.015 A 
ATOM     30  C   UNL     1      -2.996  -5.225  10.391  0.00  0.00    +0.018 A 
ATOM     31  C   UNL     1      -2.369  -6.131   9.554  0.00  0.00    +0.015 A 
ATOM     32  C   UNL     1      -1.835  -5.706   8.352  0.00  0.00    +0.008 A 
ATOM     33 BR   UNL     1      -3.733  -5.807  12.032  0.00  0.00    -0.050 Br
ENDBRANCH  26  27
ENDBRANCH  25  26
ENDBRANCH   4  25
TORSDOF 8
