REMARK  Name = ZINC14549520
REMARK  9 active torsions:
REMARK  status: ('A' for Active; 'I' for Inactive)
REMARK    1  A    between atoms: C_1  and  C_2
REMARK    2  A    between atoms: C_2  and  N_72
REMARK    3  A    between atoms: C_3  and  C_4
REMARK    4  A    between atoms: C_3  and  N_72
REMARK    5  A    between atoms: C_5  and  C_6
REMARK    6  A    between atoms: C_5  and  N_72
REMARK    7  A    between atoms: C_6  and  N_7
REMARK    8  A    between atoms: C_8  and  C_10
REMARK    9  A    between atoms: C_23  and  C_26
REMARK                            x       y       z     vdW  Elec       q    Type
REMARK                         _______ _______ _______ _____ _____    ______ ____
ROOT
ATOM      1  C   UNL     1      -1.560   0.067   2.137  0.00  0.00    +0.037 A 
ATOM      2  C   UNL     1      -1.404   1.456   2.122  0.00  0.00    +0.015 A 
ATOM      3  C   UNL     1      -2.466   2.263   2.457  0.00  0.00    +0.024 A 
ATOM      4  C   UNL     1      -3.687   1.698   2.821  0.00  0.00    +0.031 A 
ATOM      5  C   UNL     1      -3.850   0.321   2.848  0.00  0.00    -0.019 A 
ATOM      6  C   UNL     1      -2.785  -0.492   2.503  0.00  0.00    +0.019 A 
ATOM      7  C   UNL     1      -5.143  -0.342   3.242  0.00  0.00    +0.049 C 
ATOM      8  C   UNL     1      -4.855  -1.221   4.451  0.00  0.00    -0.023 C 
ATOM      9  C   UNL     1      -5.154  -0.588   5.558  0.00  0.00    -0.030 C 
ATOM     10  C   UNL     1      -5.687   0.800   5.249  0.00  0.00    +0.033 C 
ATOM     11  C   UNL     1      -6.174   0.664   3.787  0.00  0.00    +0.029 C 
ATOM     12  C   UNL     1      -6.107   1.997   3.065  0.00  0.00    +0.106 C 
ATOM     13  N   UNL     1      -4.747   2.538   3.158  0.00  0.00    -0.336 N 
ATOM     14  H   UNL     1      -4.589   3.452   3.444  0.00  0.00    +0.147 HD
ENDROOT
BRANCH  12  15
ATOM     15  C   UNL     1      -6.472   1.802   1.616  0.00  0.00    -0.012 A 
ATOM     16  C   UNL     1      -5.647   2.305   0.611  0.00  0.00    -0.012 A 
ATOM     17  C   UNL     1      -4.455   2.993   0.923  0.00  0.00    +0.009 A 
ATOM     18  C   UNL     1      -3.671   3.465  -0.080  0.00  0.00    +0.001 A 
ATOM     19  C   UNL     1      -4.009   3.284  -1.421  0.00  0.00    +0.001 A 
ATOM     20  C   UNL     1      -5.138   2.627  -1.791  0.00  0.00    +0.008 A 
ATOM     21  C   UNL     1      -5.999   2.110  -0.799  0.00  0.00    -0.017 A 
ATOM     22  C   UNL     1      -7.166   1.431  -1.143  0.00  0.00    +0.017 A 
ATOM     23  C   UNL     1      -7.994   0.933  -0.139  0.00  0.00    -0.017 A 
ATOM     24  C   UNL     1      -7.639   1.123   1.272  0.00  0.00    -0.012 A 
ATOM     25  C   UNL     1      -8.499   0.605   2.263  0.00  0.00    +0.009 A 
ATOM     26  C   UNL     1      -9.628  -0.053   1.894  0.00  0.00    +0.001 A 
ATOM     27  C   UNL     1      -9.966  -0.233   0.552  0.00  0.00    +0.001 A 
ATOM     28  C   UNL     1      -9.183   0.240  -0.451  0.00  0.00    +0.008 A 
ENDBRANCH  12  15
BRANCH   1  30
ATOM     29  N   UNL     1       0.751  -0.267   1.412  0.00  0.00    -0.313 N 
ATOM     30  C   UNL     1      -0.430  -0.807   1.772  0.00  0.00    +0.244 C 
ATOM     31  O   UNL     1      -0.565  -2.016   1.790  0.00  0.00    -0.270 OA
ATOM     32  H   UNL     1       0.859   0.697   1.398  0.00  0.00    +0.149 HD
BRANCH  29  33
ATOM     33  C   UNL     1       1.873  -1.135   1.044  0.00  0.00    +0.086 C 
BRANCH  33  34
ATOM     34  C   UNL     1       3.085  -0.275   0.681  0.00  0.00    -0.060 C 
BRANCH  34  35
ATOM     35  N   UNL     1       4.213  -1.164   0.332  0.00  0.00    +0.380 N 
ATOM     36  H   UNL     1       4.342  -1.851   1.085  0.00  0.00    -0.082 HD
BRANCH  35  38
ATOM     37  C   UNL     1       3.741  -0.892  -2.079  0.00  0.00    -0.017 C 
ATOM     38  C   UNL     1       3.920  -1.882  -0.926  0.00  0.00    -0.082 C 
ENDBRANCH  35  38
BRANCH  35  39
ATOM     39  C   UNL     1       5.453  -0.374   0.187  0.00  0.00    -0.082 C 
ATOM     40  C   UNL     1       6.645  -1.332   0.134  0.00  0.00    -0.017 C 
ENDBRANCH  35  39
ENDBRANCH  34  35
ENDBRANCH  33  34
ENDBRANCH  29  33
ENDBRANCH   1  30
TORSDOF 7
