REMARK  Name = ZINC65265838
REMARK  8 active torsions:
REMARK  status: ('A' for Active; 'I' for Inactive)
REMARK    1  A    between atoms: C_1  and  O_2
REMARK    2  A    between atoms: O_2  and  C_3
REMARK    3  A    between atoms: C_3  and  C_4
REMARK    4  A    between atoms: C_4  and  N_5
REMARK    5  A    between atoms: N_19  and  S_21
REMARK    6  A    between atoms: S_21  and  C_24
REMARK    7  A    between atoms: C_28  and  O_30
REMARK    8  A    between atoms: O_30  and  C_31
REMARK                            x       y       z     vdW  Elec       q    Type
REMARK                         _______ _______ _______ _____ _____    ______ ____
ROOT
ATOM      1  N   UNL     1      -0.776  -2.556  -1.119  0.00  0.00    -0.373 N 
ATOM      2  C   UNL     1      -1.044  -3.820  -1.057  0.00  0.00    +0.094 C 
ATOM      3  N   UNL     1      -0.054  -4.762  -0.913  0.00  0.00    -0.303 N 
ATOM      4  C   UNL     1       0.319  -5.154   0.369  0.00  0.00    +0.037 A 
ATOM      5  C   UNL     1       1.663  -5.262   0.698  0.00  0.00    +0.023 A 
ATOM      6  C   UNL     1       2.038  -5.666   1.964  0.00  0.00    +0.002 A 
ATOM      7  C   UNL     1       1.062  -5.962   2.898  0.00  0.00    +0.000 A 
ATOM      8  C   UNL     1      -0.272  -5.849   2.574  0.00  0.00    +0.007 A 
ATOM      9  C   UNL     1      -0.668  -5.436   1.305  0.00  0.00    -0.012 A 
ATOM     10  C   UNL     1      -2.150  -5.310   1.062  0.00  0.00    +0.119 C 
ATOM     11  N   UNL     1      -2.519  -5.571  -0.337  0.00  0.00    -0.299 NA
ATOM     12  C   UNL     1      -2.442  -4.329  -1.132  0.00  0.00    +0.089 C 
ATOM     13  C   UNL     1      -2.883  -4.594  -2.582  0.00  0.00    +0.048 C 
ATOM     14  C   UNL     1      -4.421  -4.466  -2.501  0.00  0.00    +0.112 C 
ATOM     15  N   UNL     1      -4.732  -3.682  -1.296  0.00  0.00    -0.174 NA
ATOM     16  C   UNL     1      -3.467  -3.299  -0.638  0.00  0.00    +0.139 C 
ATOM     17  H   UNL     1      -1.495  -1.912  -1.217  0.00  0.00    +0.161 HD
ATOM     18  H   UNL     1      -1.940  -6.295  -0.735  0.00  0.00    +0.123 HD
ATOM     19  H   UNL     1       0.377  -5.147  -1.692  0.00  0.00    +0.153 HD
ENDROOT
BRANCH  15  20
ATOM     20  S   UNL     1      -6.252  -3.293  -0.764  0.00  0.00    +0.061 S 
ATOM     21  O   UNL     1      -6.116  -2.127   0.037  0.00  0.00    -0.153 OA
ATOM     22  O   UNL     1      -7.104  -3.342  -1.900  0.00  0.00    -0.153 OA
BRANCH  20  23
ATOM     23  C   UNL     1      -6.773  -4.586   0.313  0.00  0.00    +0.109 A 
ATOM     24  C   UNL     1      -7.448  -5.680  -0.197  0.00  0.00    +0.029 A 
ATOM     25  C   UNL     1      -7.859  -6.696   0.646  0.00  0.00    +0.005 A 
ATOM     26  C   UNL     1      -7.596  -6.621   2.000  0.00  0.00    +0.046 A 
ATOM     27  C   UNL     1      -6.919  -5.525   2.514  0.00  0.00    +0.122 A 
ATOM     28  C   UNL     1      -6.503  -4.509   1.665  0.00  0.00    +0.074 A 
BRANCH  27  29
ATOM     29  O   UNL     1      -6.660  -5.448   3.846  0.00  0.00    -0.495 OA
ATOM     30  C   UNL     1      -7.113  -6.533   4.658  0.00  0.00    +0.277 C 
ENDBRANCH  27  29
ENDBRANCH  20  23
ENDBRANCH  15  20
BRANCH   1  31
ATOM     31  C   UNL     1       0.613  -2.097  -1.041  0.00  0.00    +0.141 C 
BRANCH  31  32
ATOM     32  C   UNL     1       0.652  -0.570  -1.138  0.00  0.00    +0.180 C 
BRANCH  32  34
ATOM     33  C   UNL     1      -0.017   1.425   0.010  0.00  0.00    +0.194 C 
ATOM     34  O   UNL     1       0.002  -0.004   0.002  0.00  0.00    -0.381 OA
ENDBRANCH  32  34
ENDBRANCH  31  32
ENDBRANCH   1  31
TORSDOF 6
