REMARK  Name = ZINC18357929
REMARK  11 active torsions:
REMARK  status: ('A' for Active; 'I' for Inactive)
REMARK    1  A    between atoms: C_1  and  O_2
REMARK    2  A    between atoms: O_2  and  C_3
REMARK    3  A    between atoms: C_5  and  C_20
REMARK    4  A    between atoms: C_6  and  N_11
REMARK    5  A    between atoms: C_8  and  O_9
REMARK    6  A    between atoms: O_9  and  C_10
REMARK    7  A    between atoms: C_12  and  C_14
REMARK    8  A    between atoms: C_14  and  C_15
REMARK    9  A    between atoms: C_20  and  O_22
REMARK   10  A    between atoms: O_22  and  C_23
REMARK   11  A    between atoms: C_23  and  C_24
REMARK                            x       y       z     vdW  Elec       q    Type
REMARK                         _______ _______ _______ _____ _____    ______ ____
ROOT
ATOM      1  C   UNL     1       2.337  -6.186  -4.902  0.00  0.00    +0.162 A 
ATOM      2  C   UNL     1       1.786  -5.681  -3.742  0.00  0.00    +0.066 A 
ATOM      3  C   UNL     1       1.469  -6.544  -2.687  0.00  0.00    +0.084 A 
ATOM      4  C   UNL     1       1.704  -7.923  -2.820  0.00  0.00    +0.051 A 
ATOM      5  C   UNL     1       2.252  -8.418  -3.992  0.00  0.00    +0.073 A 
ATOM      6  C   UNL     1       2.568  -7.556  -5.030  0.00  0.00    +0.163 A 
ENDROOT
BRANCH   4   7
ATOM      7  N   UNL     1       1.386  -8.790  -1.775  0.00  0.00    -0.284 N 
ATOM      8  C   UNL     1       2.158  -9.869  -1.537  0.00  0.00    +0.222 C 
ATOM      9  O   UNL     1       3.180 -10.034  -2.167  0.00  0.00    -0.275 OA
ATOM     10  H   UNL     1       0.610  -8.616  -1.220  0.00  0.00    +0.155 HD
BRANCH   8  11
ATOM     11  C   UNL     1       1.750 -10.870  -0.487  0.00  0.00    +0.138 C 
BRANCH  11  12
ATOM     12  C   UNL     1       2.775 -11.972  -0.418  0.00  0.00    -0.001 A 
ATOM     13  C   UNL     1       3.894 -12.051   0.343  0.00  0.00    +0.011 A 
ATOM     14  C   UNL     1       4.695 -13.173   0.242  0.00  0.00    +0.008 A 
ATOM     15  C   UNL     1       4.343 -14.156  -0.621  0.00  0.00    +0.045 A 
ATOM     16  S   UNL     1       2.834 -13.510  -1.323  0.00  0.00    -0.101 S 
ENDBRANCH  11  12
ENDBRANCH   8  11
ENDBRANCH   4   7
BRANCH   1  18
ATOM     17  C   UNL     1       2.387  -3.956  -5.728  0.00  0.00    +0.277 C 
ATOM     18  O   UNL     1       2.650  -5.346  -5.926  0.00  0.00    -0.491 OA
ENDBRANCH   1  18
BRANCH   6  19
ATOM     19  O   UNL     1       3.106  -8.047  -6.176  0.00  0.00    -0.491 OA
ATOM     20  C   UNL     1       3.318  -9.459  -6.242  0.00  0.00    +0.277 C 
ENDBRANCH   6  19
BRANCH   3  21
ATOM     21  C   UNL     1       0.887  -6.011  -1.446  0.00  0.00    +0.341 C 
ATOM     22  O   UNL     1       0.525  -6.770  -0.569  0.00  0.00    -0.245 OA
BRANCH  21  23
ATOM     23  O   UNL     1       0.755  -4.679  -1.282  0.00  0.00    -0.455 OA
BRANCH  23  24
ATOM     24  C   UNL     1       0.172  -4.224  -0.032  0.00  0.00    +0.288 C 
BRANCH  24  25
ATOM     25  C   UNL     1       0.104  -2.718  -0.029  0.00  0.00    +0.086 A 
ATOM     26  C   UNL     1      -1.122  -2.083  -0.011  0.00  0.00    +0.097 A 
ATOM     27  C   UNL     1      -1.159  -0.683  -0.008  0.00  0.00    +0.259 A 
ATOM     28  O   UNL     1      -2.227  -0.091   0.007  0.00  0.00    -0.267 OA
ATOM     29  N   UNL     1       0.005   0.001  -0.022  0.00  0.00    -0.268 N 
ATOM     30  C   UNL     1      -0.015   1.363  -0.019  0.00  0.00    +0.096 A 
ATOM     31  C   UNL     1       1.137   2.071  -0.034  0.00  0.00    +0.018 A 
ATOM     32  C   UNL     1       2.371   1.407  -0.052  0.00  0.00    +0.005 A 
ATOM     33  C   UNL     1       2.402   0.044  -0.054  0.00  0.00    +0.047 A 
ATOM     34  C   UNL     1       1.193  -0.675  -0.039  0.00  0.00    +0.141 A 
ATOM     35  N   UNL     1       1.220  -2.006  -0.042  0.00  0.00    -0.231 NA
ENDBRANCH  24  25
ENDBRANCH  23  24
ENDBRANCH  21  23
ENDBRANCH   3  21
TORSDOF 9
