REMARK  Name = ZINC46841378
REMARK  11 active torsions:
REMARK  status: ('A' for Active; 'I' for Inactive)
REMARK    1  A    between atoms: C_1  and  C_2
REMARK    2  A    between atoms: C_2  and  N_3
REMARK    3  A    between atoms: N_3  and  C_4
REMARK    4  A    between atoms: N_3  and  S_6
REMARK    5  A    between atoms: C_4  and  C_5
REMARK    6  A    between atoms: S_6  and  C_9
REMARK    7  A    between atoms: C_13  and  C_15
REMARK    8  A    between atoms: N_17  and  C_18
REMARK    9  A    between atoms: C_18  and  C_19
REMARK   10  A    between atoms: C_27  and  C_34
REMARK   11  A    between atoms: C_30  and  C_33
REMARK                            x       y       z     vdW  Elec       q    Type
REMARK                         _______ _______ _______ _____ _____    ______ ____
ROOT
ATOM      1  C   UNL     1       1.490   2.332  -6.307  0.00  0.00    +0.246 C 
ATOM      2  O   UNL     1       1.393   3.349  -6.966  0.00  0.00    -0.270 OA
ATOM      3  N   UNL     1       2.535   1.503  -6.498  0.00  0.00    -0.307 N 
ATOM      4  H   UNL     1       2.613   0.692  -5.973  0.00  0.00    +0.149 HD
ENDROOT
BRANCH   1   9
ATOM      5  C   UNL     1      -0.392   0.539  -3.598  0.00  0.00    +0.106 A 
ATOM      6  C   UNL     1      -1.465   1.392  -3.404  0.00  0.00    +0.030 A 
ATOM      7  C   UNL     1      -1.579   2.551  -4.151  0.00  0.00    +0.022 A 
ATOM      8  C   UNL     1      -0.622   2.863  -5.097  0.00  0.00    +0.053 A 
ATOM      9  C   UNL     1       0.462   2.006  -5.297  0.00  0.00    +0.057 A 
ATOM     10  C   UNL     1       0.574   0.841  -4.535  0.00  0.00    +0.043 A 
ATOM     11 CL   UNL     1      -0.767   4.317  -6.035  0.00  0.00    -0.083 Cl
BRANCH   5  12
ATOM     12  S   UNL     1      -0.257  -0.934  -2.641  0.00  0.00    +0.061 S 
ATOM     13  O   UNL     1       0.550  -1.833  -3.389  0.00  0.00    -0.153 OA
ATOM     14  O   UNL     1      -1.573  -1.264  -2.216  0.00  0.00    -0.153 OA
BRANCH  12  15
ATOM     15  N   UNL     1       0.599  -0.554  -1.276  0.00  0.00    -0.177 NA
BRANCH  15  17
ATOM     16  C   UNL     1      -0.123   1.433  -0.046  0.00  0.00    +0.022 C 
ATOM     17  C   UNL     1      -0.103  -0.096  -0.074  0.00  0.00    +0.106 C 
ENDBRANCH  15  17
BRANCH  15  18
ATOM     18  C   UNL     1       2.059  -0.675  -1.269  0.00  0.00    +0.106 C 
ATOM     19  C   UNL     1       2.455  -2.037  -0.697  0.00  0.00    +0.022 C 
ENDBRANCH  15  18
ENDBRANCH  12  15
ENDBRANCH   5  12
ENDBRANCH   1   9
BRANCH   3  20
ATOM     20  C   UNL     1       3.554   1.827  -7.500  0.00  0.00    +0.141 C 
BRANCH  20  21
ATOM     21  C   UNL     1       4.605   0.747  -7.514  0.00  0.00    -0.014 A 
ATOM     22  C   UNL     1       5.717   0.839  -6.688  0.00  0.00    +0.010 A 
ATOM     23  C   UNL     1       6.658  -0.174  -6.732  0.00  0.00    +0.042 A 
ATOM     24  C   UNL     1       6.460  -1.244  -7.599  0.00  0.00    +0.099 A 
ATOM     25  N   UNL     1       5.386  -1.295  -8.372  0.00  0.00    -0.349 N 
ATOM     26  C   UNL     1       4.470  -0.346  -8.346  0.00  0.00    +0.089 A 
ATOM     27  N   UNL     1       7.398  -2.268  -7.654  0.00  0.00    -0.312 N 
ATOM     28  C   UNL     1       8.661  -2.180  -6.904  0.00  0.00    +0.137 C 
ATOM     29  C   UNL     1       9.816  -2.484  -7.865  0.00  0.00    +0.133 C 
ATOM     30  O   UNL     1       9.559  -3.722  -8.532  0.00  0.00    -0.371 OA
ATOM     31  C   UNL     1       8.386  -3.714  -9.349  0.00  0.00    +0.133 C 
ATOM     32  C   UNL     1       7.155  -3.475  -8.459  0.00  0.00    +0.137 C 
ATOM     33  C   UNL     1       8.248  -5.062 -10.059  0.00  0.00    +0.039 C 
ATOM     34  C   UNL     1      11.123  -2.590  -7.076  0.00  0.00    +0.039 C 
ATOM     35  H   UNL     1       5.269  -2.050  -8.969  0.00  0.00    +0.167 HD
ENDBRANCH  20  21
ENDBRANCH   3  20
TORSDOF 7
