REMARK  Name = ZINC35931433
REMARK  15 active torsions:
REMARK  status: ('A' for Active; 'I' for Inactive)
REMARK    1  A    between atoms: C_1  and  C_2
REMARK    2  A    between atoms: C_2  and  C_3
REMARK    3  A    between atoms: C_3  and  C_4
REMARK    4  A    between atoms: C_4  and  C_6
REMARK    5  A    between atoms: C_4  and  O_36
REMARK    6  A    between atoms: C_6  and  N_7
REMARK    7  A    between atoms: N_7  and  C_8
REMARK    8  A    between atoms: N_7  and  C_32
REMARK    9  A    between atoms: C_8  and  C_9
REMARK   10  A    between atoms: N_12  and  C_14
REMARK   11  A    between atoms: N_22  and  C_24
REMARK   12  A    between atoms: C_24  and  C_25
REMARK   13  A    between atoms: C_32  and  C_33
REMARK   14  A    between atoms: C_33  and  C_34
REMARK   15  A    between atoms: C_33  and  C_35
REMARK                            x       y       z     vdW  Elec       q    Type
REMARK                         _______ _______ _______ _____ _____    ______ ____
ROOT
ATOM      1  C   UNL     1       2.529  -6.436   3.299  0.00  0.00    +0.052 A 
ATOM      2  C   UNL     1       1.600  -7.359   3.768  0.00  0.00    +0.009 A 
ATOM      3  C   UNL     1       2.014  -8.598   3.392  0.00  0.00    +0.051 A 
ATOM      4  N   UNL     1       3.161  -8.460   2.708  0.00  0.00    -0.236 N 
ATOM      5  N   UNL     1       3.467  -7.091   2.657  0.00  0.00    -0.173 NA
ATOM      6  C   UNL     1       1.256  -9.859   3.729  0.00  0.00    +0.071 C 
ATOM      7  C   UNL     1       0.253  -9.521   4.841  0.00  0.00    +0.091 C 
ATOM      8  N   UNL     1      -0.502  -8.315   4.476  0.00  0.00    -0.294 NA
ATOM      9  C   UNL     1       0.338  -7.108   4.555  0.00  0.00    +0.123 C 
ENDROOT
BRANCH   4  10
ATOM     10  C   UNL     1       3.916  -9.497   2.142  0.00  0.00    +0.066 A 
ATOM     11  C   UNL     1       3.281 -10.538   1.478  0.00  0.00    +0.028 A 
ATOM     12  C   UNL     1       4.027 -11.558   0.922  0.00  0.00    +0.002 A 
ATOM     13  C   UNL     1       5.406 -11.544   1.026  0.00  0.00    +0.000 A 
ATOM     14  C   UNL     1       6.042 -10.509   1.688  0.00  0.00    +0.002 A 
ATOM     15  C   UNL     1       5.301  -9.483   2.241  0.00  0.00    +0.028 A 
ENDBRANCH   4  10
BRANCH   1  16
ATOM     16  C   UNL     1       2.466  -4.942   3.490  0.00  0.00    -0.020 C 
BRANCH  16  17
ATOM     17  N   UNL     1       1.725  -4.337   2.376  0.00  0.00    +0.385 N 
ATOM     18  H   UNL     1       2.177  -4.570   1.504  0.00  0.00    -0.081 HD
BRANCH  17  19
ATOM     19  C   UNL     1       1.700  -2.877   2.539  0.00  0.00    -0.047 C 
BRANCH  19  20
ATOM     20  C   UNL     1       3.114  -2.320   2.364  0.00  0.00    +0.098 C 
BRANCH  20  21
ATOM     21  O   UNL     1       3.933  -2.746   3.455  0.00  0.00    -0.394 OA
ATOM     22  H   UNL     1       3.617  -2.455   4.321  0.00  0.00    +0.210 HD
ENDBRANCH  20  21
BRANCH  20  23
ATOM     23  C   UNL     1       3.060  -0.791   2.333  0.00  0.00    +0.029 C 
BRANCH  23  25
ATOM     24  C   UNL     1       4.400   1.291   2.003  0.00  0.00    +0.004 C 
ATOM     25  C   UNL     1       4.454  -0.237   2.034  0.00  0.00    -0.001 C 
ENDBRANCH  23  25
ENDBRANCH  20  23
ENDBRANCH  19  20
ENDBRANCH  17  19
BRANCH  17  26
ATOM     26  C   UNL     1       0.349  -4.852   2.366  0.00  0.00    -0.075 C 
BRANCH  26  27
ATOM     27  C   UNL     1      -0.382  -4.332   1.126  0.00  0.00    -0.034 C 
ATOM     28  C   UNL     1       0.282  -4.897  -0.131  0.00  0.00    +0.005 C 
ATOM     29  C   UNL     1      -1.845  -4.776   1.173  0.00  0.00    +0.005 C 
ENDBRANCH  26  27
ENDBRANCH  17  26
ENDBRANCH  16  17
ENDBRANCH   1  16
BRANCH   8  30
ATOM     30  C   UNL     1      -1.704  -8.175   5.309  0.00  0.00    +0.120 C 
BRANCH  30  31
ATOM     31  C   UNL     1      -2.659  -9.301   5.007  0.00  0.00    -0.033 A 
ATOM     32  C   UNL     1      -3.606  -9.155   4.011  0.00  0.00    +0.008 A 
ATOM     33  C   UNL     1      -4.482 -10.187   3.732  0.00  0.00    +0.038 A 
ATOM     34  C   UNL     1      -4.410 -11.368   4.451  0.00  0.00    +0.123 A 
ATOM     35  C   UNL     1      -3.461 -11.513   5.448  0.00  0.00    +0.038 A 
ATOM     36  C   UNL     1      -2.583 -10.482   5.721  0.00  0.00    +0.008 A 
ATOM     37  F   UNL     1      -5.266 -12.377   4.180  0.00  0.00    -0.205 F 
ENDBRANCH  30  31
ENDBRANCH   8  30
TORSDOF 12
