REMARK  Name = ZINC20450647
REMARK  5 active torsions:
REMARK  status: ('A' for Active; 'I' for Inactive)
REMARK    1  A    between atoms: C_3  and  C_6
REMARK    2  A    between atoms: C_7  and  C_8
REMARK    3  A    between atoms: C_8  and  N_9
REMARK    4  A    between atoms: C_12  and  C_15
REMARK    5  A    between atoms: C_24  and  C_27
REMARK                            x       y       z     vdW  Elec       q    Type
REMARK                         _______ _______ _______ _____ _____    ______ ____
ROOT
ATOM      1  C   UNL     1      -3.739  -1.294  -1.276  0.00  0.00    -0.007 C 
ATOM      2  C   UNL     1      -3.598  -0.259  -0.157  0.00  0.00    +0.023 C 
ATOM      3  C   UNL     1      -2.360   0.602  -0.417  0.00  0.00    +0.107 C 
ATOM      4  N   UNL     1      -1.168  -0.255  -0.468  0.00  0.00    -0.315 N 
ATOM      5  C   UNL     1      -1.260  -1.226  -1.566  0.00  0.00    +0.107 C 
ATOM      6  C   UNL     1      -2.465  -2.142  -1.339  0.00  0.00    +0.023 C 
ATOM      7  C   UNL     1      -0.015   0.504  -0.572  0.00  0.00    +0.121 A 
ATOM      8  C   UNL     1       1.223  -0.133  -0.634  0.00  0.00    +0.044 A 
ATOM      9  C   UNL     1       2.361   0.621  -0.737  0.00  0.00    +0.018 A 
ATOM     10  C   UNL     1       2.237   2.018  -0.777  0.00  0.00    +0.055 A 
ATOM     11  C   UNL     1       0.965   2.588  -0.711  0.00  0.00    +0.126 A 
ATOM     12  N   UNL     1      -0.104   1.827  -0.612  0.00  0.00    -0.240 NA
ENDROOT
BRANCH   1  16
ATOM     13  N   UNL     1      -7.292  -2.387  -1.296  0.00  0.00    +0.382 N 
ATOM     14  C   UNL     1      -6.695  -3.267  -2.324  0.00  0.00    -0.078 C 
ATOM     15  C   UNL     1      -5.166  -3.192  -2.151  0.00  0.00    -0.017 C 
ATOM     16  C   UNL     1      -4.940  -2.197  -0.990  0.00  0.00    -0.026 C 
ATOM     17  C   UNL     1      -6.253  -1.373  -0.973  0.00  0.00    -0.075 C 
ATOM     18  H   UNL     1      -7.596  -2.959  -0.407  0.00  0.00    -0.081 HD
BRANCH  13  19
ATOM     19  C   UNL     1      -8.515  -1.747  -1.797  0.00  0.00    -0.051 C 
BRANCH  19  21
ATOM     20  C   UNL     1      -9.254   0.490  -1.095  0.00  0.00    +0.040 C 
ATOM     21  C   UNL     1      -9.035  -0.780  -0.765  0.00  0.00    -0.042 C 
BRANCH  20  24
ATOM     22  C   UNL     1     -10.490   3.269   0.935  0.00  0.00    +0.042 A 
ATOM     23  C   UNL     1     -10.027   2.754  -0.292  0.00  0.00    +0.049 A 
ATOM     24  C   UNL     1      -9.761   1.434  -0.088  0.00  0.00    +0.127 A 
ATOM     25  O   UNL     1     -10.049   1.143   1.196  0.00  0.00    -0.464 OA
ATOM     26  C   UNL     1     -10.484   2.250   1.818  0.00  0.00    +0.195 A 
ENDBRANCH  20  24
ENDBRANCH  19  21
ENDBRANCH  13  19
ENDBRANCH   1  16
BRANCH  10  27
ATOM     27  C   UNL     1       3.435   2.873  -0.887  0.00  0.00    +0.243 C 
ATOM     28  O   UNL     1       4.540   2.367  -0.944  0.00  0.00    -0.270 OA
ATOM     29  N   UNL     1       3.305   4.214  -0.924  0.00  0.00    -0.325 N 
ATOM     30  H   UNL     1       4.199   4.851  -1.006  0.00  0.00    +0.145 HD
ATOM     31  H   UNL     1       2.307   4.671  -0.872  0.00  0.00    +0.145 HD
ENDBRANCH  10  27
TORSDOF 5
