REMARK  Name = ZINC14058897
REMARK  8 active torsions:
REMARK  status: ('A' for Active; 'I' for Inactive)
REMARK    1  A    between atoms: C_1  and  C_2
REMARK    2  A    between atoms: C_2  and  N_3
REMARK    3  A    between atoms: C_7  and  C_27
REMARK    4  A    between atoms: N_12  and  C_13
REMARK    5  A    between atoms: C_13  and  C_15
REMARK    6  A    between atoms: C_15  and  C_16
REMARK    7  A    between atoms: C_16  and  S_17
REMARK    8  A    between atoms: S_17  and  C_20
REMARK                            x       y       z     vdW  Elec       q    Type
REMARK                         _______ _______ _______ _____ _____    ______ ____
ROOT
ATOM      1  C   UNL     1       5.987  -1.862  -3.546  0.00  0.00    +0.240 C 
ATOM      2  O   UNL     1       5.285  -1.398  -4.424  0.00  0.00    -0.274 OA
ENDROOT
BRANCH   1  12
ATOM      3  N   UNL     1       8.527  -3.311  -5.649  0.00  0.00    -0.321 N 
ATOM      4  C   UNL     1       8.715  -3.374  -7.017  0.00  0.00    +0.058 A 
ATOM      5  C   UNL     1       9.764  -3.982  -7.725  0.00  0.00    +0.027 A 
ATOM      6  C   UNL     1       9.799  -3.945  -9.098  0.00  0.00    +0.005 A 
ATOM      7  C   UNL     1       8.806  -3.310  -9.825  0.00  0.00    -0.049 A 
ATOM      8  C   UNL     1       7.760  -2.702  -9.153  0.00  0.00    +0.020 A 
ATOM      9  C   UNL     1       7.724  -2.739  -7.779  0.00  0.00    +0.039 A 
ATOM     10  S   UNL     1       6.606  -2.111  -6.551  0.00  0.00    -0.052 S 
ATOM     11  C   UNL     1       7.438  -2.677  -5.139  0.00  0.00    +0.166 A 
ATOM     12  N   UNL     1       7.096  -2.523  -3.862  0.00  0.00    -0.156 NA
ATOM     13  C   UNL     1       8.863  -3.281 -11.331  0.00  0.00    +0.044 C 
BRANCH   3  15
ATOM     14  C   UNL     1       9.656  -3.071  -3.492  0.00  0.00    +0.027 C 
ATOM     15  C   UNL     1       9.500  -3.933  -4.747  0.00  0.00    +0.121 C 
ENDBRANCH   3  15
ENDBRANCH   1  12
BRANCH   1  16
ATOM     16  C   UNL     1       5.599  -1.688  -2.101  0.00  0.00    +0.121 C 
BRANCH  16  17
ATOM     17  C   UNL     1       4.292  -0.897  -2.015  0.00  0.00    +0.181 C 
BRANCH  17  18
ATOM     18  S   UNL     1       3.825  -0.687  -0.275  0.00  0.00    -0.003 S 
ATOM     19  O   UNL     1       4.752   0.168   0.381  0.00  0.00    -0.169 OA
ATOM     20  O   UNL     1       3.470  -1.941   0.291  0.00  0.00    -0.169 OA
BRANCH  18  21
ATOM     21  C   UNL     1       2.320   0.230  -0.317  0.00  0.00    +0.088 A 
ATOM     22  C   UNL     1       1.109  -0.434  -0.377  0.00  0.00    +0.028 A 
ATOM     23  C   UNL     1      -0.071   0.285  -0.411  0.00  0.00    +0.022 A 
ATOM     24  C   UNL     1      -0.040   1.667  -0.385  0.00  0.00    +0.041 A 
ATOM     25  C   UNL     1       1.172   2.331  -0.324  0.00  0.00    +0.022 A 
ATOM     26  C   UNL     1       2.352   1.611  -0.291  0.00  0.00    +0.028 A 
ATOM     27 CL   UNL     1      -1.522   2.570  -0.435  0.00  0.00    -0.084 Cl
ENDBRANCH  18  21
ENDBRANCH  17  18
ENDBRANCH  16  17
ENDBRANCH   1  16
TORSDOF 6
