REMARK  Name = ZINC60414756
REMARK  6 active torsions:
REMARK  status: ('A' for Active; 'I' for Inactive)
REMARK    1  A    between atoms: C_1  and  C_2
REMARK    2  A    between atoms: N_10  and  C_13
REMARK    3  A    between atoms: C_13  and  C_14
REMARK    4  A    between atoms: N_16  and  N_17
REMARK    5  A    between atoms: N_20  and  C_21
REMARK    6  A    between atoms: C_21  and  C_22
REMARK                            x       y       z     vdW  Elec       q    Type
REMARK                         _______ _______ _______ _____ _____    ______ ____
ROOT
ATOM      1  C   UNL     1      -1.327  -6.063   2.627  0.00  0.00    +0.247 C 
ATOM      2  O   UNL     1      -2.259  -5.389   2.244  0.00  0.00    -0.273 OA
ATOM      3  N   UNL     1      -1.554  -7.220   3.280  0.00  0.00    -0.232 N 
ATOM      4  H   UNL     1      -0.808  -7.759   3.586  0.00  0.00    +0.173 HD
ENDROOT
BRANCH   3   5
ATOM      5  N   UNL     1      -2.869  -7.644   3.516  0.00  0.00    -0.218 N 
ATOM      6  C   UNL     1      -3.096  -8.800   4.169  0.00  0.00    +0.316 C 
ATOM      7  O   UNL     1      -4.237  -9.168   4.375  0.00  0.00    -0.251 OA
ATOM      8  N   UNL     1      -2.060  -9.550   4.595  0.00  0.00    -0.290 N 
ATOM      9  H   UNL     1      -3.615  -7.104   3.210  0.00  0.00    +0.174 HD
ATOM     10  H   UNL     1      -1.150  -9.256   4.431  0.00  0.00    +0.151 HD
BRANCH   8  11
ATOM     11  C   UNL     1      -2.307 -10.807   5.304  0.00  0.00    +0.219 C 
BRANCH  11  12
ATOM     12  C   UNL     1      -0.972 -11.456   5.673  0.00  0.00    +0.405 C 
ATOM     13  F   UNL     1      -0.245 -10.590   6.498  0.00  0.00    -0.169 F 
ATOM     14  F   UNL     1      -1.208 -12.657   6.351  0.00  0.00    -0.169 F 
ATOM     15  F   UNL     1      -0.241 -11.714   4.509  0.00  0.00    -0.169 F 
ENDBRANCH  11  12
ENDBRANCH   8  11
ENDBRANCH   3   5
BRANCH   1  16
ATOM     16  C   UNL     1       0.087  -5.607   2.373  0.00  0.00    +0.214 C 
BRANCH  16  26
ATOM     17  C   UNL     1      -0.018   1.503   0.010  0.00  0.00    +0.044 C 
ATOM     18  C   UNL     1       0.002  -0.004   0.002  0.00  0.00    -0.050 A 
ATOM     19  C   UNL     1       0.006  -0.684  -1.202  0.00  0.00    +0.004 A 
ATOM     20  C   UNL     1       0.024  -2.070  -1.226  0.00  0.00    +0.014 A 
ATOM     21  C   UNL     1       0.039  -2.777  -0.035  0.00  0.00    +0.049 A 
ATOM     22  C   UNL     1       0.036  -2.084   1.192  0.00  0.00    +0.050 A 
ATOM     23  C   UNL     1       0.023  -0.699   1.201  0.00  0.00    +0.017 A 
ATOM     24  C   UNL     1       0.054  -3.123   2.244  0.00  0.00    +0.254 C 
ATOM     25  O   UNL     1       0.057  -2.920   3.441  0.00  0.00    -0.270 OA
ATOM     26  N   UNL     1       0.067  -4.331   1.652  0.00  0.00    -0.225 N 
ATOM     27  C   UNL     1       0.059  -4.214   0.312  0.00  0.00    +0.254 C 
ATOM     28  O   UNL     1       0.067  -5.135  -0.480  0.00  0.00    -0.270 OA
ENDBRANCH  16  26
ENDBRANCH   1  16
TORSDOF 5
