REMARK  Name = ZINC10481297
REMARK  9 active torsions:
REMARK  status: ('A' for Active; 'I' for Inactive)
REMARK    1  A    between atoms: C_1  and  C_2
REMARK    2  A    between atoms: C_7  and  N_8
REMARK    3  A    between atoms: C_9  and  C_11
REMARK    4  A    between atoms: C_11  and  S_12
REMARK    5  A    between atoms: S_12  and  C_13
REMARK    6  A    between atoms: C_16  and  C_21
REMARK    7  A    between atoms: N_17  and  C_18
REMARK    8  A    between atoms: C_18  and  C_19
REMARK    9  A    between atoms: C_25  and  N_27
REMARK                            x       y       z     vdW  Elec       q    Type
REMARK                         _______ _______ _______ _____ _____    ______ ____
ROOT
ATOM      1  C   UNL     1      -0.408   0.047   7.784  0.00  0.00    +0.193 A 
ATOM      2  N   UNL     1      -0.452   1.356   7.894  0.00  0.00    -0.122 NA
ATOM      3  N   UNL     1      -0.553   1.692   9.130  0.00  0.00    -0.128 NA
ATOM      4  C   UNL     1      -0.581   0.618   9.885  0.00  0.00    +0.165 A 
ATOM      5  N   UNL     1      -0.494  -0.468   9.045  0.00  0.00    -0.298 N 
ENDROOT
BRANCH   4   6
ATOM      6  C   UNL     1      -0.690   0.583  11.359  0.00  0.00    +0.021 A 
ATOM      7  C   UNL     1      -0.304  -0.558  12.063  0.00  0.00    +0.012 A 
ATOM      8  C   UNL     1      -0.408  -0.584  13.439  0.00  0.00    +0.003 A 
ATOM      9  C   UNL     1      -0.895   0.518  14.120  0.00  0.00    +0.033 A 
ATOM     10  C   UNL     1      -1.280   1.652  13.427  0.00  0.00    +0.127 A 
ATOM     11  C   UNL     1      -1.174   1.694  12.052  0.00  0.00    +0.044 A 
BRANCH  10  12
ATOM     12  N   UNL     1      -1.800   2.826  14.164  0.00  0.00    +0.056 N 
ATOM     13  O   UNL     1      -1.888   2.793  15.369  0.00  0.00    -0.126 OA
ATOM     14  O   UNL     1      -2.136   3.818  13.560  0.00  0.00    -0.126 OA
ENDBRANCH  10  12
ENDBRANCH   4   6
BRANCH   1  15
ATOM     15  S   UNL     1      -0.273  -0.873   6.286  0.00  0.00    -0.077 S 
BRANCH  15  16
ATOM     16  C   UNL     1      -0.202   0.400   4.995  0.00  0.00    +0.173 C 
BRANCH  16  18
ATOM     17  N   UNL     1      -0.014   0.494   2.531  0.00  0.00    -0.285 N 
ATOM     18  C   UNL     1      -0.083  -0.260   3.646  0.00  0.00    +0.227 C 
ATOM     19  O   UNL     1      -0.050  -1.470   3.563  0.00  0.00    -0.275 OA
ATOM     20  H   UNL     1       0.030   1.460   2.600  0.00  0.00    +0.155 HD
BRANCH  17  27
ATOM     21  C   UNL     1      -1.308   1.831   0.378  0.00  0.00    +0.046 C 
ATOM     22  C   UNL     1      -0.625   0.500   0.194  0.00  0.00    -0.028 A 
ATOM     23  C   UNL     1      -0.610  -0.103  -1.049  0.00  0.00    +0.020 A 
ATOM     24  C   UNL     1       0.017  -1.325  -1.218  0.00  0.00    +0.018 A 
ATOM     25  C   UNL     1       0.630  -1.946  -0.145  0.00  0.00    +0.017 A 
ATOM     26  C   UNL     1       0.618  -1.347   1.100  0.00  0.00    +0.024 A 
ATOM     27  C   UNL     1      -0.005  -0.118   1.272  0.00  0.00    +0.036 A 
ATOM     28 BR   UNL     1       0.035  -2.147  -2.921  0.00  0.00    -0.050 Br
ENDBRANCH  17  27
ENDBRANCH  16  18
ENDBRANCH  15  16
ENDBRANCH   1  15
BRANCH   5  29
ATOM     29  C   UNL     1      -0.492  -1.883   9.426  0.00  0.00    +0.152 C 
BRANCH  29  30
ATOM     30  C   UNL     1       0.930  -2.374   9.526  0.00  0.00    -0.013 C 
ATOM     31  C   UNL     1       1.343  -2.965  10.619  0.00  0.00    +0.005 C 
ENDBRANCH  29  30
ENDBRANCH   5  29
TORSDOF 8
