REMARK  Name = ZINC19518505
REMARK  4 active torsions:
REMARK  status: ('A' for Active; 'I' for Inactive)
REMARK    1  A    between atoms: C_1  and  N_2
REMARK    2  A    between atoms: N_2  and  C_3
REMARK    3  A    between atoms: C_3  and  C_4
REMARK    4  A    between atoms: C_7  and  C_9
REMARK                            x       y       z     vdW  Elec       q    Type
REMARK                         _______ _______ _______ _____ _____    ______ ____
ROOT
ATOM      1  C   UNL     1      -1.388   1.764   0.041  0.00  0.00    +0.047 A 
ATOM      2  C   UNL     1      -1.558   3.148  -0.033  0.00  0.00    +0.083 A 
ATOM      3  C   UNL     1      -2.843   3.672  -0.024  0.00  0.00    +0.252 A 
ATOM      4  N   UNL     1      -3.897   2.878   0.063  0.00  0.00    -0.290 N 
ATOM      5  C   UNL     1      -3.778   1.563   0.140  0.00  0.00    +0.252 A 
ATOM      6  C   UNL     1      -2.528   0.961   0.132  0.00  0.00    +0.083 A 
ATOM      7  O   UNL     1      -4.892   0.794   0.228  0.00  0.00    -0.268 OA
ATOM      8  O   UNL     1      -3.020   5.014  -0.106  0.00  0.00    -0.268 OA
ATOM      9  H   UNL     1      -4.910   3.308   0.073  0.00  0.00    +0.172 HD
ENDROOT
BRANCH   1  12
ATOM     10  C   UNL     1       0.760   3.118  -1.194  0.00  0.00    +0.133 C 
ATOM     11  N   UNL     1       0.997   1.837  -0.522  0.00  0.00    -0.290 N 
ATOM     12  C   UNL     1      -0.034   1.162   0.023  0.00  0.00    +0.247 C 
ATOM     13  O   UNL     1       0.146   0.057   0.496  0.00  0.00    -0.270 OA
BRANCH  11  14
ATOM     14  C   UNL     1       2.354   1.291  -0.444  0.00  0.00    +0.232 C 
BRANCH  14  15
ATOM     15  C   UNL     1       2.616   0.421  -1.647  0.00  0.00    +0.373 C 
ATOM     16  O   UNL     1       1.757   0.273  -2.483  0.00  0.00    -0.245 OA
ATOM     17  O   UNL     1       3.803  -0.188  -1.788  0.00  0.00    -0.245 OA
ENDBRANCH  14  15
ENDBRANCH  11  14
ENDBRANCH   1  12
TORSDOF 3
