REMARK  Name = ZINC01787657
REMARK  5 active torsions:
REMARK  status: ('A' for Active; 'I' for Inactive)
REMARK    1  A    between atoms: C_1  and  O_2
REMARK    2  A    between atoms: O_2  and  C_3
REMARK    3  A    between atoms: C_3  and  C_5
REMARK    4  A    between atoms: C_8  and  C_11
REMARK    5  A    between atoms: C_17  and  C_19
REMARK                            x       y       z     vdW  Elec       q    Type
REMARK                         _______ _______ _______ _____ _____    ______ ____
ROOT
ATOM      1  C   UNL     1       0.827  -6.343  -1.340  0.00  0.00    +0.294 C 
ATOM      2  N   UNL     1       1.937  -6.752  -2.172  0.00  0.00    -0.175 NA
ATOM      3  C   UNL     1       1.855  -6.014  -3.470  0.00  0.00    +0.138 C 
ATOM      4  C   UNL     1       3.159  -6.433  -4.092  0.00  0.00    +0.023 C 
ATOM      5  C   UNL     1       3.955  -6.727  -3.033  0.00  0.00    +0.053 C 
ATOM      6  N   UNL     1       3.228  -6.533  -1.833  0.00  0.00    -0.273 N 
ATOM      7  C   UNL     1       0.599  -6.483  -4.127  0.00  0.00    +0.019 A 
ATOM      8  C   UNL     1       0.478  -6.551  -5.497  0.00  0.00    +0.024 A 
ATOM      9  C   UNL     1      -0.706  -6.979  -6.070  0.00  0.00    +0.019 A 
ATOM     10  C   UNL     1      -1.771  -7.339  -5.263  0.00  0.00    +0.034 A 
ATOM     11  C   UNL     1      -1.653  -7.277  -3.889  0.00  0.00    +0.061 A 
ATOM     12  C   UNL     1      -0.464  -6.853  -3.305  0.00  0.00    +0.142 A 
ATOM     13  O   UNL     1      -0.370  -6.851  -1.957  0.00  0.00    -0.467 OA
ATOM     14 BR   UNL     1      -3.115  -7.771  -2.796  0.00  0.00    -0.046 Br
ATOM     15 BR   UNL     1      -0.870  -7.071  -7.952  0.00  0.00    -0.050 Br
ATOM     16  H   UNL     1       3.578  -6.295  -0.960  0.00  0.00    +0.167 HD
ENDROOT
BRANCH   1  20
ATOM     17  C   UNL     1       0.658  -2.076  -1.122  0.00  0.00    +0.059 A 
ATOM     18  C   UNL     1      -0.495  -2.810  -1.404  0.00  0.00    +0.015 A 
ATOM     19  C   UNL     1      -0.434  -4.186  -1.473  0.00  0.00    +0.009 A 
ATOM     20  C   UNL     1       0.767  -4.840  -1.263  0.00  0.00    +0.009 A 
ATOM     21  C   UNL     1       1.915  -4.119  -0.983  0.00  0.00    +0.009 A 
ATOM     22  C   UNL     1       1.869  -2.742  -0.917  0.00  0.00    +0.015 A 
BRANCH  17  23
ATOM     23  C   UNL     1       0.600  -0.602  -1.046  0.00  0.00    +0.339 C 
ATOM     24  O   UNL     1       1.607   0.034  -0.806  0.00  0.00    -0.245 OA
BRANCH  23  26
ATOM     25  C   UNL     1      -0.552   1.463  -1.156  0.00  0.00    +0.280 C 
ATOM     26  O   UNL     1      -0.569   0.037  -1.244  0.00  0.00    -0.464 OA
ENDBRANCH  23  26
ENDBRANCH  17  23
ENDBRANCH   1  20
BRANCH   5  27
ATOM     27  C   UNL     1       5.356  -7.179  -3.117  0.00  0.00    +0.034 A 
ATOM     28  C   UNL     1       6.222  -7.500  -2.105  0.00  0.00    +0.017 A 
ATOM     29  C   UNL     1       7.499  -7.902  -2.429  0.00  0.00    +0.008 A 
ATOM     30  C   UNL     1       7.860  -7.968  -3.737  0.00  0.00    +0.046 A 
ATOM     31  S   UNL     1       6.363  -7.456  -4.565  0.00  0.00    -0.095 S 
ENDBRANCH   5  27
TORSDOF 4
