REMARK  Name = ZINC39702038
REMARK  7 active torsions:
REMARK  status: ('A' for Active; 'I' for Inactive)
REMARK    1  A    between atoms: C_1  and  C_2
REMARK    2  A    between atoms: C_7  and  C_12
REMARK    3  A    between atoms: C_12  and  C_35
REMARK    4  A    between atoms: C_13  and  C_14
REMARK    5  A    between atoms: C_16  and  N_32
REMARK    6  A    between atoms: C_17  and  N_26
REMARK    7  A    between atoms: C_19  and  N_20
REMARK                            x       y       z     vdW  Elec       q    Type
REMARK                         _______ _______ _______ _____ _____    ______ ____
ROOT
ATOM      1  C   UNL     1       2.454  -6.996   2.872  0.00  0.00    -0.001 A 
ATOM      2  C   UNL     1       3.695  -6.417   2.578  0.00  0.00    +0.044 A 
ATOM      3  C   UNL     1       4.848  -7.097   2.844  0.00  0.00    +0.148 A 
ATOM      4  C   UNL     1       4.802  -8.370   3.410  0.00  0.00    +0.062 A 
ATOM      5  C   UNL     1       3.581  -8.961   3.708  0.00  0.00    +0.049 A 
ATOM      6  C   UNL     1       2.403  -8.280   3.448  0.00  0.00    +0.039 A 
ENDROOT
BRANCH   6   7
ATOM      7  N   UNL     1       1.177  -8.863   3.749  0.00  0.00    -0.329 N 
ATOM      8  C   UNL     1       0.482  -9.698   2.760  0.00  0.00    +0.105 C 
ATOM      9  C   UNL     1       0.158 -11.052   3.399  0.00  0.00    +0.019 C 
ATOM     10  C   UNL     1      -0.627 -10.826   4.693  0.00  0.00    +0.003 C 
ATOM     11  C   UNL     1       0.226 -10.021   5.675  0.00  0.00    +0.019 C 
ATOM     12  C   UNL     1       0.554  -8.660   5.064  0.00  0.00    +0.105 C 
ENDBRANCH   6   7
BRANCH   4  13
ATOM     13  N   UNL     1       5.986  -9.053   3.676  0.00  0.00    -0.328 N 
ATOM     14  C   UNL     1       6.654  -8.913   4.977  0.00  0.00    +0.105 C 
ATOM     15  C   UNL     1       6.882 -10.309   5.566  0.00  0.00    +0.019 C 
ATOM     16  C   UNL     1       7.648 -11.166   4.556  0.00  0.00    +0.003 C 
ATOM     17  C   UNL     1       6.819 -11.312   3.277  0.00  0.00    +0.019 C 
ATOM     18  C   UNL     1       6.587  -9.932   2.664  0.00  0.00    +0.105 C 
ENDBRANCH   4  13
BRANCH   3  19
ATOM     19  N   UNL     1       6.156  -6.478   2.530  0.00  0.00    +0.058 N 
ATOM     20  O   UNL     1       6.200  -5.374   2.039  0.00  0.00    -0.126 OA
ATOM     21  O   UNL     1       7.180  -7.077   2.765  0.00  0.00    -0.126 OA
ENDBRANCH   3  19
BRANCH   1  23
ATOM     22  C   UNL     1       1.182  -4.920   2.696  0.00  0.00    +0.072 C 
ATOM     23  C   UNL     1       1.214  -6.267   2.586  0.00  0.00    +0.028 C 
BRANCH  22  30
ATOM     24  C   UNL     1      -1.200   1.550   3.843  0.00  0.00    +0.044 C 
ATOM     25  C   UNL     1      -0.785   0.297   3.116  0.00  0.00    -0.048 A 
ATOM     26  C   UNL     1      -0.245   0.415   1.823  0.00  0.00    +0.005 A 
ATOM     27  C   UNL     1       0.152  -0.652   1.101  0.00  0.00    +0.027 A 
ATOM     28  C   UNL     1       0.025  -2.001   1.671  0.00  0.00    +0.060 A 
ATOM     29  N   UNL     1       0.318  -3.185   1.216  0.00  0.00    -0.359 N 
ATOM     30  C   UNL     1      -0.042  -4.157   2.256  0.00  0.00    +0.216 C 
ATOM     31  N   UNL     1      -0.584  -3.381   3.379  0.00  0.00    -0.359 N 
ATOM     32  C   UNL     1      -0.546  -2.125   3.040  0.00  0.00    +0.061 A 
ATOM     33  C   UNL     1      -0.940  -0.891   3.733  0.00  0.00    +0.030 A 
ATOM     34  H   UNL     1       0.703  -3.388   0.349  0.00  0.00    +0.162 HD
ATOM     35  H   UNL     1      -0.910  -3.739   4.219  0.00  0.00    +0.162 HD
ENDBRANCH  22  30
BRANCH  22  36
ATOM     36  C   UNL     1       2.309  -4.218   3.231  0.00  0.00    +0.099 C 
ATOM     37  N   UNL     1       3.204  -3.661   3.655  0.00  0.00    -0.191 NA
ENDBRANCH  22  36
ENDBRANCH   1  23
TORSDOF 6
