REMARK  Name = ZINC40923827
REMARK  7 active torsions:
REMARK  status: ('A' for Active; 'I' for Inactive)
REMARK    1  A    between atoms: C_1  and  C_2
REMARK    2  A    between atoms: C_3  and  C_29
REMARK    3  A    between atoms: C_4  and  C_12
REMARK    4  A    between atoms: C_17  and  O_18
REMARK    5  A    between atoms: O_18  and  C_19
REMARK    6  A    between atoms: C_19  and  C_20
REMARK    7  A    between atoms: C_29  and  C_31
REMARK                            x       y       z     vdW  Elec       q    Type
REMARK                         _______ _______ _______ _____ _____    ______ ____
ROOT
ATOM      1  C   UNL     1      -1.724  -2.647   1.360  0.00  0.00    +0.024 A 
ATOM      2  C   UNL     1      -0.986  -2.349   2.489  0.00  0.00    +0.025 A 
ATOM      3  C   UNL     1      -1.414  -2.783   3.731  0.00  0.00    +0.018 A 
ATOM      4  C   UNL     1      -2.582  -3.516   3.845  0.00  0.00    +0.019 A 
ATOM      5  C   UNL     1      -3.323  -3.816   2.719  0.00  0.00    +0.047 A 
ATOM      6  C   UNL     1      -2.898  -3.377   1.473  0.00  0.00    +0.127 A 
ATOM      7 BR   UNL     1      -0.401  -2.375   5.275  0.00  0.00    -0.050 Br
ENDROOT
BRANCH   1  11
ATOM      8  C   UNL     1      -0.018   1.503   0.010  0.00  0.00    +0.061 C 
ATOM      9  C   UNL     1       0.002  -0.004   0.002  0.00  0.00    +0.016 C 
ATOM     10  C   UNL     1      -1.169  -0.671   0.004  0.00  0.00    +0.040 C 
ATOM     11  C   UNL     1      -1.257  -2.174   0.008  0.00  0.00    +0.181 C 
ATOM     12  N   UNL     1       0.057  -2.736  -0.278  0.00  0.00    -0.201 N 
ATOM     13  C   UNL     1       1.205  -2.010  -0.276  0.00  0.00    +0.240 A 
ATOM     14  N   UNL     1       2.179  -2.826  -0.562  0.00  0.00    -0.092 NA
ATOM     15  N   UNL     1       1.724  -4.018  -0.749  0.00  0.00    -0.021 NA
ATOM     16  N   UNL     1       0.439  -4.039  -0.593  0.00  0.00    -0.042 NA
ATOM     17  N   UNL     1       1.210  -0.649  -0.013  0.00  0.00    -0.286 N 
ATOM     18  H   UNL     1       2.038  -0.172   0.157  0.00  0.00    +0.155 HD
BRANCH  10  19
ATOM     19  C   UNL     1      -2.360   0.070   0.003  0.00  0.00    +0.160 C 
ATOM     20  O   UNL     1      -2.321   1.284   0.001  0.00  0.00    -0.293 OA
ATOM     21  C   UNL     1      -3.689  -0.641   0.005  0.00  0.00    +0.091 C 
ENDBRANCH  10  19
ENDBRANCH   1  11
BRANCH   6  22
ATOM     22  O   UNL     1      -3.629  -3.666   0.364  0.00  0.00    -0.487 OA
BRANCH  22  23
ATOM     23  C   UNL     1      -4.827  -4.421   0.555  0.00  0.00    +0.266 C 
BRANCH  23  24
ATOM     24  C   UNL     1      -5.498  -4.644  -0.776  0.00  0.00    +0.008 A 
ATOM     25  C   UNL     1      -4.927  -4.142  -1.930  0.00  0.00    +0.010 A 
ATOM     26  C   UNL     1      -5.542  -4.346  -3.151  0.00  0.00    +0.020 A 
ATOM     27  C   UNL     1      -6.730  -5.053  -3.219  0.00  0.00    +0.042 A 
ATOM     28  C   UNL     1      -7.302  -5.555  -2.064  0.00  0.00    +0.040 A 
ATOM     29  C   UNL     1      -6.683  -5.355  -0.842  0.00  0.00    +0.049 A 
ATOM     30 CL   UNL     1      -7.397  -5.990   0.607  0.00  0.00    -0.083 Cl
ATOM     31 CL   UNL     1      -7.503  -5.308  -4.752  0.00  0.00    -0.083 Cl
ENDBRANCH  23  24
ENDBRANCH  22  23
ENDBRANCH   6  22
TORSDOF 5
