REMARK  Name = ZINC38610892
REMARK  8 active torsions:
REMARK  status: ('A' for Active; 'I' for Inactive)
REMARK    1  A    between atoms: C_1  and  C_2
REMARK    2  A    between atoms: C_4  and  C_16
REMARK    3  A    between atoms: C_6  and  C_14
REMARK    4  A    between atoms: C_7  and  N_13
REMARK    5  A    between atoms: C_18  and  N_32
REMARK    6  A    between atoms: C_21  and  O_22
REMARK    7  A    between atoms: O_22  and  C_23
REMARK    8  A    between atoms: C_23  and  C_24
REMARK                            x       y       z     vdW  Elec       q    Type
REMARK                         _______ _______ _______ _____ _____    ______ ____
ROOT
ATOM      1  C   UNL     1      -2.755   0.867   0.756  0.00  0.00    +0.009 A 
ATOM      2  C   UNL     1      -2.247   1.152   2.009  0.00  0.00    +0.041 A 
ATOM      3  C   UNL     1      -2.448   2.399   2.570  0.00  0.00    +0.127 A 
ATOM      4  C   UNL     1      -3.158   3.364   1.880  0.00  0.00    +0.036 A 
ATOM      5  C   UNL     1      -3.668   3.084   0.627  0.00  0.00    +0.048 A 
ATOM      6  C   UNL     1      -3.463   1.835   0.059  0.00  0.00    +0.125 A 
ENDROOT
BRANCH   1  10
ATOM      7  C   UNL     1      -0.018   1.503   0.010  0.00  0.00    +0.067 C 
ATOM      8  C   UNL     1       0.002  -0.004   0.002  0.00  0.00    +0.066 C 
ATOM      9  C   UNL     1      -1.064  -0.768   0.003  0.00  0.00    +0.030 C 
ATOM     10  C   UNL     1      -2.536  -0.493   0.145  0.00  0.00    +0.101 C 
ATOM     11  C   UNL     1      -3.065  -1.577   1.066  0.00  0.00    +0.098 C 
ATOM     12  C   UNL     1      -2.303  -2.628   1.436  0.00  0.00    +0.195 C 
ATOM     13  O   UNL     1      -1.023  -2.853   1.091  0.00  0.00    -0.448 OA
ATOM     14  C   UNL     1      -0.529  -2.198  -0.081  0.00  0.00    +0.343 C 
ATOM     15  N   UNL     1       0.921  -1.985  -0.028  0.00  0.00    -0.138 NA
ATOM     16  N   UNL     1       1.127  -0.765  -0.013  0.00  0.00    -0.155 NA
BRANCH  12  17
ATOM     17  N   UNL     1      -2.896  -3.562   2.247  0.00  0.00    -0.329 N 
ATOM     18  H   UNL     1      -3.818  -3.448   2.526  0.00  0.00    +0.145 HD
ATOM     19  H   UNL     1      -2.393  -4.337   2.542  0.00  0.00    +0.145 HD
ENDBRANCH  12  17
BRANCH  11  20
ATOM     20  C   UNL     1      -4.407  -1.482   1.556  0.00  0.00    +0.101 C 
ATOM     21  N   UNL     1      -5.472  -1.407   1.944  0.00  0.00    -0.191 NA
ENDBRANCH  11  20
ENDBRANCH   1  10
BRANCH   3  22
ATOM     22  N   UNL     1      -1.903   2.702   3.913  0.00  0.00    +0.056 N 
ATOM     23  O   UNL     1      -1.282   1.859   4.517  0.00  0.00    -0.126 OA
ATOM     24  O   UNL     1      -2.078   3.792   4.404  0.00  0.00    -0.126 OA
ENDBRANCH   3  22
BRANCH   6  25
ATOM     25  O   UNL     1      -3.959   1.559  -1.175  0.00  0.00    -0.487 OA
BRANCH  25  26
ATOM     26  C   UNL     1      -4.678   2.603  -1.834  0.00  0.00    +0.267 C 
BRANCH  26  27
ATOM     27  C   UNL     1      -5.149   2.117  -3.181  0.00  0.00    +0.026 A 
ATOM     28  C   UNL     1      -4.344   2.276  -4.294  0.00  0.00    +0.049 A 
ATOM     29  C   UNL     1      -4.777   1.829  -5.530  0.00  0.00    +0.020 A 
ATOM     30  C   UNL     1      -6.014   1.225  -5.652  0.00  0.00    +0.003 A 
ATOM     31  C   UNL     1      -6.819   1.066  -4.540  0.00  0.00    +0.020 A 
ATOM     32  C   UNL     1      -6.384   1.507  -3.302  0.00  0.00    +0.049 A 
ATOM     33 CL   UNL     1      -7.392   1.300  -1.904  0.00  0.00    -0.083 Cl
ATOM     34 CL   UNL     1      -2.791   3.036  -4.141  0.00  0.00    -0.083 Cl
ENDBRANCH  26  27
ENDBRANCH  25  26
ENDBRANCH   6  25
TORSDOF 7
