REMARK  Name = ZINC37637230
REMARK  9 active torsions:
REMARK  status: ('A' for Active; 'I' for Inactive)
REMARK    1  A    between atoms: C_1  and  N_2
REMARK    2  A    between atoms: N_2  and  C_3
REMARK    3  A    between atoms: N_2  and  C_10
REMARK    4  A    between atoms: C_3  and  C_4
REMARK    5  A    between atoms: C_10  and  C_11
REMARK    6  A    between atoms: C_11  and  C_13
REMARK    7  A    between atoms: C_16  and  O_23
REMARK    8  A    between atoms: O_23  and  C_24
REMARK    9  A    between atoms: C_24  and  C_26
REMARK                            x       y       z     vdW  Elec       q    Type
REMARK                         _______ _______ _______ _____ _____    ______ ____
ROOT
ATOM      1  C   UNL     1      -3.427  -0.525   1.570  0.00  0.00    +0.023 A 
ATOM      2  C   UNL     1      -4.147  -1.237   0.612  0.00  0.00    +0.015 A 
ATOM      3  C   UNL     1      -5.459  -1.608   0.847  0.00  0.00    +0.048 A 
ATOM      4  C   UNL     1      -6.100  -1.291   2.027  0.00  0.00    +0.140 A 
ATOM      5  C   UNL     1      -5.427  -0.571   3.037  0.00  0.00    +0.025 A 
ATOM      6  C   UNL     1      -4.082  -0.180   2.833  0.00  0.00    -0.004 A 
ATOM      7  C   UNL     1      -3.410   0.529   3.834  0.00  0.00    +0.009 A 
ATOM      8  C   UNL     1      -4.055   0.831   4.997  0.00  0.00    +0.001 A 
ATOM      9  C   UNL     1      -5.376   0.442   5.202  0.00  0.00    +0.001 A 
ATOM     10  C   UNL     1      -6.063  -0.239   4.243  0.00  0.00    +0.012 A 
ENDROOT
BRANCH   1  11
ATOM     11  C   UNL     1      -2.040  -0.134   1.320  0.00  0.00    +0.147 C 
ATOM     12  O   UNL     1      -1.456   0.573   2.116  0.00  0.00    -0.294 OA
BRANCH  11  13
ATOM     13  C   UNL     1      -1.336  -0.608   0.075  0.00  0.00    +0.002 C 
BRANCH  13  15
ATOM     14  C   UNL     1      -0.002   1.382  -0.051  0.00  0.00    -0.095 C 
ATOM     15  N   UNL     1       0.036  -0.083   0.058  0.00  0.00    +0.385 N 
ATOM     16  H   UNL     1       0.507  -0.344   0.911  0.00  0.00    -0.081 HD
BRANCH  15  17
ATOM     17  C   UNL     1       0.760  -0.641  -1.092  0.00  0.00    -0.043 C 
BRANCH  17  18
ATOM     18  C   UNL     1       2.200  -0.200  -1.041  0.00  0.00    -0.064 A 
ATOM     19  C   UNL     1       2.585   0.976  -1.657  0.00  0.00    +0.002 A 
ATOM     20  C   UNL     1       3.906   1.380  -1.611  0.00  0.00    +0.000 A 
ATOM     21  C   UNL     1       4.842   0.609  -0.948  0.00  0.00    +0.000 A 
ATOM     22  C   UNL     1       4.457  -0.567  -0.331  0.00  0.00    +0.000 A 
ATOM     23  C   UNL     1       3.135  -0.969  -0.374  0.00  0.00    +0.002 A 
ENDBRANCH  17  18
ENDBRANCH  15  17
ENDBRANCH  13  15
ENDBRANCH  11  13
ENDBRANCH   1  11
BRANCH   4  24
ATOM     24  O   UNL     1      -7.387  -1.673   2.217  0.00  0.00    -0.422 OA
BRANCH  24  25
ATOM     25  C   UNL     1      -8.361  -0.796   1.902  0.00  0.00    +0.344 C 
ATOM     26  O   UNL     1      -8.078   0.262   1.377  0.00  0.00    -0.245 OA
BRANCH  25  27
ATOM     27  C   UNL     1      -9.771  -1.121   2.196  0.00  0.00    +0.059 A 
ATOM     28  C   UNL     1     -10.098  -2.335   2.806  0.00  0.00    +0.015 A 
ATOM     29  C   UNL     1     -11.418  -2.632   3.078  0.00  0.00    +0.001 A 
ATOM     30  C   UNL     1     -12.415  -1.731   2.749  0.00  0.00    +0.000 A 
ATOM     31  C   UNL     1     -12.098  -0.527   2.145  0.00  0.00    +0.001 A 
ATOM     32  C   UNL     1     -10.782  -0.215   1.872  0.00  0.00    +0.015 A 
ENDBRANCH  25  27
ENDBRANCH  24  25
ENDBRANCH   4  24
TORSDOF 8
