REMARK  Name = ZINC15677092
REMARK  11 active torsions:
REMARK  status: ('A' for Active; 'I' for Inactive)
REMARK    1  A    between atoms: C_1  and  C_2
REMARK    2  A    between atoms: C_2  and  C_3
REMARK    3  A    between atoms: C_3  and  C_4
REMARK    4  A    between atoms: C_4  and  N_5
REMARK    5  A    between atoms: C_11  and  O_33
REMARK    6  A    between atoms: C_14  and  O_31
REMARK    7  A    between atoms: C_18  and  C_19
REMARK    8  A    between atoms: C_18  and  C_20
REMARK    9  A    between atoms: N_22  and  C_23
REMARK   10  A    between atoms: O_31  and  C_32
REMARK   11  A    between atoms: O_33  and  C_34
REMARK                            x       y       z     vdW  Elec       q    Type
REMARK                         _______ _______ _______ _____ _____    ______ ____
ROOT
ATOM      1  N   UNL     1      -1.413  -1.998   0.005  0.00  0.00    -0.281 N 
ATOM      2  C   UNL     1      -1.421  -2.649  -1.182  0.00  0.00    +0.264 C 
ATOM      3  O   UNL     1      -1.243  -2.065  -2.234  0.00  0.00    -0.268 OA
ATOM      4  C   UNL     1      -1.653  -4.103  -1.134  0.00  0.00    +0.106 A 
ATOM      5  C   UNL     1      -1.526  -5.032  -2.106  0.00  0.00    +0.044 A 
ATOM      6  C   UNL     1      -1.843  -6.278  -1.539  0.00  0.00    +0.046 A 
ATOM      7  C   UNL     1      -1.871  -7.574  -2.089  0.00  0.00    +0.129 A 
ATOM      8  C   UNL     1      -2.227  -8.608  -1.237  0.00  0.00    +0.050 A 
ATOM      9  C   UNL     1      -2.541  -8.386   0.094  0.00  0.00    +0.051 A 
ATOM     10  C   UNL     1      -2.524  -7.119   0.658  0.00  0.00    +0.144 A 
ATOM     11  C   UNL     1      -2.170  -6.052  -0.175  0.00  0.00    +0.095 A 
ATOM     12  N   UNL     1      -2.058  -4.720   0.052  0.00  0.00    -0.331 N 
ATOM     13  C   UNL     1      -2.299  -3.942   1.273  0.00  0.00    +0.157 C 
ATOM     14  C   UNL     1      -1.392  -2.713   1.276  0.00  0.00    +0.128 C 
ATOM     15  C   UNL     1      -1.848  -1.764   2.385  0.00  0.00    +0.043 C 
ENDROOT
BRANCH  14  16
ATOM     16  C   UNL     1       0.021  -3.152   1.564  0.00  0.00    +0.238 C 
ATOM     17  O   UNL     1       0.429  -3.170   2.706  0.00  0.00    -0.273 OA
ATOM     18  N   UNL     1       0.831  -3.523   0.552  0.00  0.00    -0.311 N 
ATOM     19  H   UNL     1       0.505  -3.508  -0.361  0.00  0.00    +0.149 HD
BRANCH  18  20
ATOM     20  C   UNL     1       2.204  -3.949   0.833  0.00  0.00    +0.073 C 
ATOM     21  C   UNL     1       3.113  -2.720   0.914  0.00  0.00    +0.022 C 
ATOM     22  C   UNL     1       4.432  -3.106   1.586  0.00  0.00    +0.002 C 
ATOM     23  C   UNL     1       4.147  -3.982   2.807  0.00  0.00    +0.000 C 
ATOM     24  C   UNL     1       4.675  -5.396   2.555  0.00  0.00    +0.000 C 
ATOM     25  C   UNL     1       3.726  -6.131   1.605  0.00  0.00    +0.000 C 
ATOM     26  C   UNL     1       3.939  -5.623   0.177  0.00  0.00    +0.002 C 
ATOM     27  C   UNL     1       2.692  -4.870  -0.288  0.00  0.00    +0.022 C 
ENDBRANCH  18  20
ENDBRANCH  14  16
BRANCH  10  28
ATOM     28  O   UNL     1      -2.837  -6.922   1.968  0.00  0.00    -0.493 OA
ATOM     29  C   UNL     1      -3.185  -8.078   2.732  0.00  0.00    +0.277 C 
ENDBRANCH  10  28
BRANCH   7  30
ATOM     30  O   UNL     1      -1.565  -7.800  -3.393  0.00  0.00    -0.494 OA
ATOM     31  C   UNL     1      -1.625  -9.153  -3.848  0.00  0.00    +0.277 C 
ENDBRANCH   7  30
BRANCH   1  32
ATOM     32  C   UNL     1      -1.433  -0.534   0.013  0.00  0.00    +0.109 C 
BRANCH  32  33
ATOM     33  C   UNL     1       0.002  -0.004   0.002  0.00  0.00    +0.019 C 
BRANCH  33  35
ATOM     34  C   UNL     1       1.417   2.055  -0.000  0.00  0.00    +0.004 C 
ATOM     35  C   UNL     1      -0.019   1.526   0.010  0.00  0.00    -0.002 C 
ENDBRANCH  33  35
ENDBRANCH  32  33
ENDBRANCH   1  32
TORSDOF 7
