REMARK  Name = ZINC65272098
REMARK  8 active torsions:
REMARK  status: ('A' for Active; 'I' for Inactive)
REMARK    1  A    between atoms: C_1  and  N_2
REMARK    2  A    between atoms: N_2  and  C_3
REMARK    3  A    between atoms: N_2  and  C_4
REMARK    4  A    between atoms: C_4  and  C_5
REMARK    5  A    between atoms: C_5  and  C_6
REMARK    6  A    between atoms: C_6  and  N_7
REMARK    7  A    between atoms: C_8  and  C_10
REMARK    8  A    between atoms: C_21  and  C_25
REMARK                            x       y       z     vdW  Elec       q    Type
REMARK                         _______ _______ _______ _____ _____    ______ ____
ROOT
ATOM      1  C   UNL     1      -3.918  -6.215  -0.385  0.00  0.00    +0.078 C 
ATOM      2  C   UNL     1      -3.239  -6.604  -1.701  0.00  0.00    +0.032 C 
ATOM      3  C   UNL     1      -3.192  -8.130  -1.815  0.00  0.00    +0.108 C 
ATOM      4  N   UNL     1      -4.555  -8.658  -1.661  0.00  0.00    -0.310 N 
ATOM      5  C   UNL     1      -5.331  -8.273  -0.474  0.00  0.00    +0.108 C 
ATOM      6  C   UNL     1      -5.354  -6.745  -0.374  0.00  0.00    +0.032 C 
ATOM      7  C   UNL     1      -5.095  -9.499  -2.611  0.00  0.00    +0.163 A 
ATOM      8  N   UNL     1      -6.285 -10.055  -2.639  0.00  0.00    -0.223 NA
ATOM      9  C   UNL     1      -6.683 -10.864  -3.643  0.00  0.00    +0.099 A 
ATOM     10  C   UNL     1      -7.927 -11.524  -3.797  0.00  0.00    +0.032 A 
ATOM     11  C   UNL     1      -8.136 -12.306  -4.894  0.00  0.00    +0.030 A 
ATOM     12  C   UNL     1      -7.138 -12.459  -5.859  0.00  0.00    +0.072 A 
ATOM     13  N   UNL     1      -5.971 -11.838  -5.712  0.00  0.00    -0.238 NA
ATOM     14  C   UNL     1      -5.736 -11.081  -4.673  0.00  0.00    +0.130 A 
ATOM     15  S   UNL     1      -4.357 -10.102  -4.123  0.00  0.00    -0.033 S 
ENDROOT
BRANCH  12  16
ATOM     16  C   UNL     1      -7.379 -13.313  -7.046  0.00  0.00    +0.001 A 
ATOM     17  C   UNL     1      -8.604 -13.961  -7.205  0.00  0.00    +0.013 A 
ATOM     18  C   UNL     1      -8.823 -14.755  -8.311  0.00  0.00    +0.039 A 
ATOM     19  C   UNL     1      -7.829 -14.909  -9.264  0.00  0.00    +0.123 A 
ATOM     20  C   UNL     1      -6.611 -14.268  -9.111  0.00  0.00    +0.039 A 
ATOM     21  C   UNL     1      -6.384 -13.467  -8.010  0.00  0.00    +0.013 A 
ATOM     22  F   UNL     1      -8.049 -15.688 -10.346  0.00  0.00    -0.205 F 
ENDBRANCH  12  16
BRANCH   1  24
ATOM     23  N   UNL     1      -2.777  -4.025  -0.239  0.00  0.00    -0.315 N 
ATOM     24  C   UNL     1      -3.935  -4.714  -0.253  0.00  0.00    +0.216 C 
ATOM     25  O   UNL     1      -4.992  -4.126  -0.160  0.00  0.00    -0.276 OA
ATOM     26  H   UNL     1      -1.932  -4.496  -0.314  0.00  0.00    +0.149 HD
BRANCH  23  27
ATOM     27  C   UNL     1      -2.794  -2.566  -0.111  0.00  0.00    +0.102 C 
BRANCH  27  28
ATOM     28  C   UNL     1      -1.358  -2.037  -0.122  0.00  0.00    +0.000 C 
BRANCH  28  29
ATOM     29  C   UNL     1      -1.376  -0.512   0.012  0.00  0.00    -0.078 C 
BRANCH  29  31
ATOM     30  C   UNL     1      -0.018   1.465   0.010  0.00  0.00    -0.097 C 
ATOM     31  N   UNL     1       0.002  -0.004   0.002  0.00  0.00    +0.376 N 
ATOM     32  C   UNL     1       0.713  -0.491   1.192  0.00  0.00    -0.097 C 
ATOM     33  H   UNL     1       0.474  -0.330  -0.828  0.00  0.00    -0.083 HD
ENDBRANCH  29  31
ENDBRANCH  28  29
ENDBRANCH  27  28
ENDBRANCH  23  27
ENDBRANCH   1  24
TORSDOF 6
