REMARK  Name = ZINC35966544
REMARK  14 active torsions:
REMARK  status: ('A' for Active; 'I' for Inactive)
REMARK    1  A    between atoms: C_1  and  C_2
REMARK    2  A    between atoms: C_2  and  N_3
REMARK    3  A    between atoms: C_6  and  C_11
REMARK    4  A    between atoms: C_16  and  C_17
REMARK    5  A    between atoms: N_23  and  C_25
REMARK    6  A    between atoms: C_25  and  C_27
REMARK    7  A    between atoms: C_25  and  C_30
REMARK    8  A    between atoms: C_27  and  C_28
REMARK    9  A    between atoms: C_27  and  C_29
REMARK   10  A    between atoms: N_32  and  C_33
REMARK   11  A    between atoms: C_33  and  C_34
REMARK   12  A    between atoms: C_34  and  N_35
REMARK   13  A    between atoms: N_35  and  C_36
REMARK   14  A    between atoms: N_35  and  C_37
REMARK                            x       y       z     vdW  Elec       q    Type
REMARK                         _______ _______ _______ _____ _____    ______ ____
ROOT
ATOM      1  N   UNL     1      -0.318  -0.721  -0.880  0.00  0.00    -0.257 N 
ATOM      2  C   UNL     1      -0.766  -0.852  -2.164  0.00  0.00    +0.042 C 
ATOM      3  C   UNL     1      -0.011  -1.444  -3.111  0.00  0.00    +0.058 C 
ATOM      4  C   UNL     1       1.354  -1.960  -2.703  0.00  0.00    +0.142 C 
ATOM      5  N   UNL     1       1.745  -1.770  -1.296  0.00  0.00    -0.288 N 
ATOM      6  C   UNL     1       0.881  -1.153  -0.467  0.00  0.00    +0.307 C 
ATOM      7  O   UNL     1       1.196  -0.989   0.696  0.00  0.00    -0.252 OA
ATOM      8  C   UNL     1      -0.693  -1.456  -4.345  0.00  0.00    +0.247 C 
ATOM      9  O   UNL     1      -0.245  -1.929  -5.374  0.00  0.00    -0.270 OA
ATOM     10  N   UNL     1      -1.902  -0.876  -4.238  0.00  0.00    -0.280 N 
ATOM     11  C   UNL     1      -2.054  -0.441  -2.841  0.00  0.00    +0.160 C 
ATOM     12  H   UNL     1       2.607  -2.079  -0.975  0.00  0.00    +0.151 HD
ENDROOT
BRANCH   4  13
ATOM     13  C   UNL     1       1.402  -3.436  -3.003  0.00  0.00    -0.011 A 
ATOM     14  C   UNL     1       0.661  -4.320  -2.242  0.00  0.00    +0.006 A 
ATOM     15  C   UNL     1       0.704  -5.674  -2.517  0.00  0.00    +0.000 A 
ATOM     16  C   UNL     1       1.488  -6.144  -3.554  0.00  0.00    +0.001 A 
ATOM     17  C   UNL     1       2.228  -5.259  -4.316  0.00  0.00    +0.013 A 
ATOM     18  C   UNL     1       2.182  -3.905  -4.044  0.00  0.00    +0.060 A 
BRANCH  18  19
ATOM     19  C   UNL     1       2.984  -2.940  -4.878  0.00  0.00    +0.418 C 
ATOM     20  F   UNL     1       3.614  -3.634  -5.917  0.00  0.00    -0.166 F 
ATOM     21  F   UNL     1       2.133  -1.968  -5.415  0.00  0.00    -0.166 F 
ATOM     22  F   UNL     1       3.950  -2.322  -4.076  0.00  0.00    -0.166 F 
ENDBRANCH  18  19
ENDBRANCH   4  13
BRANCH   1  24
ATOM     23  C   UNL     1      -0.919   1.439   0.097  0.00  0.00    +0.025 C 
ATOM     24  C   UNL     1      -1.192  -0.066   0.096  0.00  0.00    +0.111 C 
ENDBRANCH   1  24
BRANCH  10  25
ATOM     25  C   UNL     1      -2.884  -0.709  -5.312  0.00  0.00    +0.165 C 
BRANCH  25  26
ATOM     26  C   UNL     1      -3.276  -2.061  -5.850  0.00  0.00    +0.234 C 
ATOM     27  O   UNL     1      -2.583  -3.030  -5.617  0.00  0.00    -0.274 OA
ATOM     28  N   UNL     1      -4.395  -2.195  -6.589  0.00  0.00    -0.316 N 
ATOM     29  H   UNL     1      -4.907  -1.410  -6.839  0.00  0.00    +0.149 HD
BRANCH  28  30
ATOM     30  C   UNL     1      -4.838  -3.525  -7.014  0.00  0.00    +0.085 C 
BRANCH  30  31
ATOM     31  C   UNL     1      -6.123  -3.396  -7.834  0.00  0.00    -0.061 C 
BRANCH  31  32
ATOM     32  N   UNL     1      -6.567  -4.730  -8.261  0.00  0.00    +0.377 N 
ATOM     33  C   UNL     1      -7.862  -4.619  -8.944  0.00  0.00    -0.097 C 
ATOM     34  C   UNL     1      -5.576  -5.305  -9.180  0.00  0.00    -0.097 C 
ATOM     35  H   UNL     1      -6.663  -5.327  -7.453  0.00  0.00    -0.083 HD
ENDBRANCH  31  32
ENDBRANCH  30  31
ENDBRANCH  28  30
ENDBRANCH  25  26
BRANCH  25  36
ATOM     36  C   UNL     1      -2.273   0.129  -6.436  0.00  0.00    +0.012 C 
ATOM     37  C   UNL     1      -3.330   0.390  -7.511  0.00  0.00    +0.009 C 
ATOM     38  C   UNL     1      -1.782   1.463  -5.869  0.00  0.00    +0.009 C 
ENDBRANCH  25  36
ENDBRANCH  10  25
TORSDOF 9
