REMARK  Name = ZINC35705293
REMARK  17 active torsions:
REMARK  status: ('A' for Active; 'I' for Inactive)
REMARK    1  A    between atoms: C_1  and  C_2
REMARK    2  A    between atoms: C_5  and  C_35
REMARK    3  A    between atoms: C_6  and  C_8
REMARK    4  A    between atoms: C_10  and  C_28
REMARK    5  A    between atoms: C_11  and  C_27
REMARK    6  A    between atoms: C_15  and  C_18
REMARK    7  A    between atoms: C_19  and  N_21
REMARK    8  A    between atoms: N_21  and  C_22
REMARK    9  A    between atoms: C_22  and  C_23
REMARK   10  A    between atoms: C_23  and  N_24
REMARK   11  A    between atoms: N_24  and  C_25
REMARK   12  A    between atoms: N_24  and  C_26
REMARK   13  A    between atoms: C_28  and  O_30
REMARK   14  A    between atoms: O_30  and  C_31
REMARK   15  A    between atoms: C_31  and  C_32
REMARK   16  A    between atoms: C_31  and  C_33
REMARK   17  A    between atoms: C_31  and  C_34
REMARK                            x       y       z     vdW  Elec       q    Type
REMARK                         _______ _______ _______ _____ _____    ______ ____
ROOT
ATOM      1  C   UNL     1      -0.495  -2.689   2.723  0.00  0.00    +0.150 C 
ATOM      2  C   UNL     1       0.468  -3.484   3.576  0.00  0.00    +0.083 C 
ATOM      3  C   UNL     1       0.516  -3.202   4.927  0.00  0.00    +0.053 C 
ATOM      4  N   UNL     1      -0.262  -2.265   5.444  0.00  0.00    -0.230 NA
ATOM      5  C   UNL     1      -1.120  -1.538   4.759  0.00  0.00    +0.166 C 
ATOM      6  N   UNL     1      -1.318  -1.661   3.413  0.00  0.00    -0.267 N 
ATOM      7  C   UNL     1      -2.255  -0.824   2.839  0.00  0.00    +0.048 C 
ATOM      8  C   UNL     1      -2.899   0.045   3.649  0.00  0.00    +0.072 C 
ATOM      9  S   UNL     1      -2.175  -0.322   5.233  0.00  0.00    -0.060 S 
ATOM     10  C   UNL     1       1.460  -3.967   5.819  0.00  0.00    +0.066 C 
ENDROOT
BRANCH   1  16
ATOM     11  C   UNL     1       1.070  -2.449  -2.025  0.00  0.00    +0.044 C 
ATOM     12  C   UNL     1       1.050  -1.885  -0.627  0.00  0.00    -0.050 A 
ATOM     13  C   UNL     1       1.761  -0.737  -0.334  0.00  0.00    +0.003 A 
ATOM     14  C   UNL     1       1.742  -0.220   0.948  0.00  0.00    +0.004 A 
ATOM     15  C   UNL     1       1.012  -0.852   1.937  0.00  0.00    -0.045 A 
ATOM     16  C   UNL     1       0.300  -2.000   1.644  0.00  0.00    -0.019 A 
ATOM     17  C   UNL     1       0.315  -2.514   0.361  0.00  0.00    +0.009 A 
ATOM     18  C   UNL     1       0.992  -0.289   3.335  0.00  0.00    +0.044 C 
ENDBRANCH   1  16
BRANCH   7  19
ATOM     19  C   UNL     1      -2.543  -0.878   1.399  0.00  0.00    +0.091 C 
ATOM     20  C   UNL     1      -3.371   0.027   0.843  0.00  0.00    +0.239 C 
ATOM     21  O   UNL     1      -3.852   1.052   1.588  0.00  0.00    -0.271 OA
BRANCH  20  22
ATOM     22  N   UNL     1      -3.732  -0.090  -0.489  0.00  0.00    -0.314 N 
ATOM     23  H   UNL     1      -3.388  -0.824  -1.022  0.00  0.00    +0.149 HD
BRANCH  22  24
ATOM     24  C   UNL     1      -4.633   0.895  -1.093  0.00  0.00    +0.086 C 
BRANCH  24  25
ATOM     25  C   UNL     1      -4.868   0.537  -2.562  0.00  0.00    -0.061 C 
BRANCH  25  26
ATOM     26  N   UNL     1      -5.772   1.524  -3.167  0.00  0.00    +0.377 N 
ATOM     27  C   UNL     1      -5.903   1.250  -4.605  0.00  0.00    -0.097 C 
ATOM     28  C   UNL     1      -7.092   1.435  -2.530  0.00  0.00    -0.097 C 
ATOM     29  H   UNL     1      -5.396   2.451  -3.034  0.00  0.00    -0.083 HD
ENDBRANCH  25  26
ENDBRANCH  24  25
ENDBRANCH  22  24
ENDBRANCH  20  22
ENDBRANCH   7  19
BRANCH   2  30
ATOM     30  C   UNL     1       1.284  -4.474   3.014  0.00  0.00    +0.340 C 
ATOM     31  O   UNL     1       2.125  -5.031   3.698  0.00  0.00    -0.245 OA
BRANCH  30  32
ATOM     32  O   UNL     1       1.139  -4.812   1.714  0.00  0.00    -0.456 OA
BRANCH  32  33
ATOM     33  C   UNL     1       1.966  -5.868   1.221  0.00  0.00    +0.106 C 
ATOM     34  C   UNL     1       1.769  -7.115   2.085  0.00  0.00    +0.055 C 
ATOM     35  C   UNL     1       1.583  -6.184  -0.226  0.00  0.00    +0.055 C 
ATOM     36  C   UNL     1       3.433  -5.435   1.278  0.00  0.00    +0.055 C 
ENDBRANCH  32  33
ENDBRANCH  30  32
ENDBRANCH   2  30
TORSDOF 9
