REMARK  Name = ZINC39481510
REMARK  14 active torsions:
REMARK  status: ('A' for Active; 'I' for Inactive)
REMARK    1  A    between atoms: C_1  and  C_2
REMARK    2  A    between atoms: C_2  and  C_3
REMARK    3  A    between atoms: C_3  and  C_4
REMARK    4  A    between atoms: C_7  and  N_23
REMARK    5  A    between atoms: C_8  and  N_10
REMARK    6  A    between atoms: C_14  and  S_17
REMARK    7  A    between atoms: S_17  and  C_20
REMARK    8  A    between atoms: C_20  and  C_21
REMARK    9  A    between atoms: C_20  and  C_22
REMARK   10  A    between atoms: N_23  and  S_24
REMARK   11  A    between atoms: S_24  and  S_27
REMARK   12  A    between atoms: S_27  and  C_30
REMARK   13  A    between atoms: C_30  and  C_31
REMARK   14  A    between atoms: C_30  and  C_32
REMARK                            x       y       z     vdW  Elec       q    Type
REMARK                         _______ _______ _______ _____ _____    ______ ____
ROOT
ATOM      1  C   UNL     1      -1.413  -2.041   0.005  0.00  0.00    -0.046 A 
ATOM      2  C   UNL     1      -1.409  -2.723  -1.198  0.00  0.00    +0.005 A 
ATOM      3  C   UNL     1      -1.391  -4.106  -1.212  0.00  0.00    +0.029 A 
ATOM      4  C   UNL     1      -1.375  -4.811  -0.019  0.00  0.00    +0.097 A 
ATOM      5  C   UNL     1      -1.378  -4.123   1.194  0.00  0.00    +0.055 A 
ATOM      6  C   UNL     1      -1.392  -2.736   1.199  0.00  0.00    +0.028 A 
ENDROOT
BRANCH   5   7
ATOM      7  N   UNL     1      -1.363  -4.829   2.403  0.00  0.00    -0.324 N 
ATOM      8  C   UNL     1      -0.093  -5.188   3.051  0.00  0.00    +0.120 C 
ATOM      9  C   UNL     1      -0.115  -6.687   3.370  0.00  0.00    +0.101 C 
ATOM     10  N   UNL     1      -1.321  -7.000   4.149  0.00  0.00    -0.293 NA
ATOM     11  C   UNL     1      -2.540  -6.729   3.376  0.00  0.00    +0.215 C 
ATOM     12  C   UNL     1      -2.617  -5.227   3.061  0.00  0.00    +0.147 C 
ATOM     13  H   UNL     1      -1.303  -7.955   4.474  0.00  0.00    +0.124 HD
BRANCH  11  14
ATOM     14  S   UNL     1      -3.993  -7.217   4.346  0.00  0.00    -0.012 S 
ATOM     15  O   UNL     1      -3.938  -6.555   5.603  0.00  0.00    -0.173 OA
ATOM     16  O   UNL     1      -5.149  -7.063   3.534  0.00  0.00    -0.173 OA
BRANCH  14  17
ATOM     17  C   UNL     1      -3.716  -8.989   4.619  0.00  0.00    +0.126 C 
ATOM     18  C   UNL     1      -4.930  -9.592   5.329  0.00  0.00    +0.031 C 
ATOM     19  C   UNL     1      -3.514  -9.687   3.272  0.00  0.00    +0.031 C 
ENDBRANCH  14  17
ENDBRANCH  11  14
ENDBRANCH   5   7
BRANCH   1  20
ATOM     20  C   UNL     1      -1.433  -0.534   0.013  0.00  0.00    +0.035 C 
BRANCH  20  22
ATOM     21  C   UNL     1      -0.019   1.526   0.010  0.00  0.00    +0.004 C 
ATOM     22  C   UNL     1       0.002  -0.004   0.002  0.00  0.00    +0.001 C 
ENDBRANCH  20  22
ENDBRANCH   1  20
BRANCH   4  23
ATOM     23  N   UNL     1      -1.356  -6.211  -0.031  0.00  0.00    -0.080 NA
BRANCH  23  24
ATOM     24  S   UNL     1      -1.353  -7.027  -1.473  0.00  0.00    +0.187 S 
ATOM     25  O   UNL     1      -2.605  -6.764  -2.091  0.00  0.00    -0.130 OA
ATOM     26  O   UNL     1      -0.115  -6.731  -2.104  0.00  0.00    -0.130 OA
BRANCH  24  27
ATOM     27  S   UNL     1      -1.324  -9.030  -1.036  0.00  0.00    +0.106 S 
ATOM     28  O   UNL     1      -0.083  -9.239  -0.376  0.00  0.00    -0.151 OA
ATOM     29  O   UNL     1      -2.552  -9.272  -0.363  0.00  0.00    -0.151 OA
BRANCH  27  30
ATOM     30  C   UNL     1      -1.322  -9.858  -2.650  0.00  0.00    +0.150 C 
ATOM     31  C   UNL     1      -0.082  -9.433  -3.439  0.00  0.00    +0.033 C 
ATOM     32  C   UNL     1      -1.300 -11.374  -2.444  0.00  0.00    +0.033 C 
ENDBRANCH  27  30
ENDBRANCH  24  27
ENDBRANCH  23  24
ENDBRANCH   4  23
TORSDOF 9
