REMARK  Name = ZINC65427251
REMARK  2 active torsions:
REMARK  status: ('A' for Active; 'I' for Inactive)
REMARK    1  A    between atoms: C_7  and  C_11
REMARK    2  A    between atoms: N_19  and  C_20
REMARK                            x       y       z     vdW  Elec       q    Type
REMARK                         _______ _______ _______ _____ _____    ______ ____
ROOT
ATOM      1  C   UNL     1       0.516  -2.948   0.168  0.00  0.00    -0.039 C 
ATOM      2  C   UNL     1       0.010  -3.491   1.250  0.00  0.00    -0.004 C 
ATOM      3  C   UNL     1      -0.863  -4.715   1.232  0.00  0.00    +0.137 C 
ATOM      4  N   UNL     1      -1.250  -5.010  -0.155  0.00  0.00    -0.281 N 
ATOM      5  C   UNL     1      -0.203  -4.908  -1.186  0.00  0.00    +0.114 C 
ATOM      6  C   UNL     1       0.278  -3.454  -1.224  0.00  0.00    +0.054 C 
ATOM      7  C   UNL     1      -2.513  -5.361  -0.470  0.00  0.00    +0.307 C 
ATOM      8  O   UNL     1      -2.829  -5.509  -1.635  0.00  0.00    -0.252 OA
ATOM      9  N   UNL     1      -3.424  -5.547   0.505  0.00  0.00    -0.267 N 
ATOM     10  H   UNL     1      -3.190  -5.365   1.429  0.00  0.00    +0.156 HD
ENDROOT
BRANCH   1  17
ATOM     11  C   UNL     1      -0.406   1.532   1.143  0.00  0.00    +0.001 A 
ATOM     12  C   UNL     1       0.741   2.313   1.199  0.00  0.00    +0.002 A 
ATOM     13  C   UNL     1       1.981   1.756   0.980  0.00  0.00    +0.026 A 
ATOM     14  C   UNL     1       2.089   0.397   0.699  0.00  0.00    +0.047 A 
ATOM     15  C   UNL     1       0.925  -0.388   0.644  0.00  0.00    +0.007 A 
ATOM     16  C   UNL     1      -0.321   0.195   0.869  0.00  0.00    +0.010 A 
ATOM     17  C   UNL     1       1.372  -1.756   0.331  0.00  0.00    +0.003 A 
ATOM     18  C   UNL     1       2.725  -1.708   0.222  0.00  0.00    +0.091 A 
ATOM     19  N   UNL     1       3.159  -0.432   0.439  0.00  0.00    -0.360 N 
ATOM     20  H   UNL     1       4.086  -0.150   0.415  0.00  0.00    +0.165 HD
ENDBRANCH   1  17
BRANCH   9  21
ATOM     21  C   UNL     1      -4.710  -6.002   0.185  0.00  0.00    +0.073 A 
ATOM     22  C   UNL     1      -4.947  -6.609  -1.041  0.00  0.00    +0.026 A 
ATOM     23  C   UNL     1      -6.215  -7.058  -1.355  0.00  0.00    +0.005 A 
ATOM     24  C   UNL     1      -7.250  -6.903  -0.452  0.00  0.00    +0.041 A 
ATOM     25  C   UNL     1      -7.019  -6.298   0.772  0.00  0.00    +0.160 A 
ATOM     26  C   UNL     1      -5.748  -5.852   1.096  0.00  0.00    +0.179 A 
ATOM     27  F   UNL     1      -5.520  -5.266   2.292  0.00  0.00    -0.201 F 
ATOM     28  F   UNL     1      -8.032  -6.147   1.653  0.00  0.00    -0.202 F 
ENDBRANCH   9  21
TORSDOF 2
