REMARK  Name = ZINC39897885
REMARK  8 active torsions:
REMARK  status: ('A' for Active; 'I' for Inactive)
REMARK    1  A    between atoms: C_1  and  C_2
REMARK    2  A    between atoms: C_5  and  O_41
REMARK    3  A    between atoms: C_17  and  C_40
REMARK    4  A    between atoms: C_21  and  C_25
REMARK    5  A    between atoms: C_30  and  O_38
REMARK    6  A    between atoms: C_31  and  O_36
REMARK    7  A    between atoms: O_36  and  C_37
REMARK    8  A    between atoms: O_38  and  C_39
REMARK                            x       y       z     vdW  Elec       q    Type
REMARK                         _______ _______ _______ _____ _____    ______ ____
ROOT
ATOM      1  C   UNL     1       0.089   1.502   0.202  0.00  0.00    +0.016 C 
ATOM      2  C   UNL     1       0.112  -0.030   0.225  0.00  0.00    -0.008 C 
ATOM      3  C   UNL     1       0.918  -0.535  -0.963  0.00  0.00    +0.014 C 
ATOM      4  C   UNL     1       2.336  -0.908  -0.539  0.00  0.00    +0.032 C 
ATOM      5  C   UNL     1       2.930   0.097   0.441  0.00  0.00    +0.119 C 
ATOM      6  C   UNL     1       2.171   0.060   1.772  0.00  0.00    +0.062 C 
ATOM      7  C   UNL     1       0.779  -0.483   1.500  0.00  0.00    -0.065 C 
ATOM      8  C   UNL     1       0.251  -1.306   2.353  0.00  0.00    -0.027 C 
ATOM      9  C   UNL     1      -1.102  -1.942   2.160  0.00  0.00    +0.031 C 
ATOM     10  C   UNL     1      -1.377  -1.966   0.652  0.00  0.00    +0.001 C 
ATOM     11  C   UNL     1      -1.339  -0.514   0.166  0.00  0.00    +0.003 C 
ATOM     12  C   UNL     1      -1.920  -0.362  -1.227  0.00  0.00    +0.005 C 
ATOM     13  C   UNL     1      -3.342  -0.913  -1.363  0.00  0.00    +0.015 C 
ATOM     14  C   UNL     1      -3.766  -1.666  -0.130  0.00  0.00    +0.030 C 
ATOM     15  C   UNL     1      -2.655  -2.649   0.293  0.00  0.00    +0.007 C 
ATOM     16  C   UNL     1      -3.363  -3.463   1.386  0.00  0.00    +0.020 C 
ATOM     17  C   UNL     1      -4.799  -3.624   0.811  0.00  0.00    +0.101 C 
ATOM     18  C   UNL     1      -4.919  -2.635  -0.344  0.00  0.00    +0.146 C 
ATOM     19  O   UNL     1      -5.728  -2.613  -1.228  0.00  0.00    -0.296 OA
ATOM     20  C   UNL     1      -4.191  -0.722   0.991  0.00  0.00    +0.019 C 
ENDROOT
BRANCH  17  21
ATOM     21  C   UNL     1      -5.003  -5.053   0.305  0.00  0.00    +0.218 C 
ATOM     22  C   UNL     1      -4.882  -6.028   1.449  0.00  0.00    +0.011 A 
ATOM     23  C   UNL     1      -5.575  -6.200   2.622  0.00  0.00    +0.012 A 
ATOM     24  C   UNL     1      -5.219  -7.214   3.498  0.00  0.00    +0.050 A 
ATOM     25  C   UNL     1      -4.164  -8.058   3.199  0.00  0.00    +0.162 A 
ATOM     26  C   UNL     1      -3.452  -7.895   2.014  0.00  0.00    +0.176 A 
ATOM     27  C   UNL     1      -3.812  -6.872   1.128  0.00  0.00    +0.111 A 
ATOM     28  C   UNL     1      -3.278  -6.442  -0.173  0.00  0.00    +0.344 C 
ATOM     29  O   UNL     1      -2.342  -6.961  -0.748  0.00  0.00    -0.245 OA
ATOM     30  O   UNL     1      -3.978  -5.390  -0.634  0.00  0.00    -0.452 OA
BRANCH  26  31
ATOM     31  O   UNL     1      -2.417  -8.721   1.718  0.00  0.00    -0.491 OA
ATOM     32  C   UNL     1      -2.724  -9.910   0.986  0.00  0.00    +0.277 C 
ENDBRANCH  26  31
BRANCH  25  33
ATOM     33  O   UNL     1      -3.821  -9.050   4.064  0.00  0.00    -0.491 OA
ATOM     34  C   UNL     1      -4.593  -9.161   5.262  0.00  0.00    +0.277 C 
ENDBRANCH  25  33
ENDBRANCH  17  21
BRANCH   5  35
ATOM     35  O   UNL     1       4.306  -0.227   0.673  0.00  0.00    -0.391 OA
ATOM     36  H   UNL     1       4.751   0.371   1.289  0.00  0.00    +0.210 HD
ENDBRANCH   5  35
TORSDOF 4
