REMARK  Name = ZINC01900372
REMARK  10 active torsions:
REMARK  status: ('A' for Active; 'I' for Inactive)
REMARK    1  A    between atoms: C_1  and  O_2
REMARK    2  A    between atoms: O_2  and  C_3
REMARK    3  A    between atoms: C_6  and  C_9
REMARK    4  A    between atoms: N_10  and  N_11
REMARK    5  A    between atoms: C_13  and  C_27
REMARK    6  A    between atoms: C_15  and  N_16
REMARK    7  A    between atoms: C_17  and  C_18
REMARK    8  A    between atoms: C_23  and  O_24
REMARK    9  A    between atoms: C_30  and  O_33
REMARK   10  A    between atoms: O_33  and  C_34
REMARK                            x       y       z     vdW  Elec       q    Type
REMARK                         _______ _______ _______ _____ _____    ______ ____
ROOT
ATOM      1  N   UNL     1      -6.245  -4.566   0.041  0.00  0.00    -0.205 N 
ATOM      2  C   UNL     1      -7.479  -3.970   0.045  0.00  0.00    +0.142 A 
ATOM      3  C   UNL     1      -8.403  -4.970   0.053  0.00  0.00    +0.068 A 
ATOM      4  N   UNL     1      -7.750  -6.146   0.053  0.00  0.00    -0.322 N 
ATOM      5  C   UNL     1      -6.451  -5.921   0.041  0.00  0.00    +0.230 A 
ATOM      6  H   UNL     1      -8.168  -7.021   0.058  0.00  0.00    +0.169 HD
ENDROOT
BRANCH   3   7
ATOM      7  C   UNL     1      -9.876  -4.793   0.060  0.00  0.00    +0.000 A 
ATOM      8  C   UNL     1     -10.713  -5.907   0.073  0.00  0.00    +0.013 A 
ATOM      9  C   UNL     1     -12.082  -5.739   0.080  0.00  0.00    +0.046 A 
ATOM     10  C   UNL     1     -12.626  -4.462   0.073  0.00  0.00    +0.120 A 
ATOM     11  C   UNL     1     -11.795  -3.350   0.060  0.00  0.00    +0.046 A 
ATOM     12  C   UNL     1     -10.425  -3.511   0.059  0.00  0.00    +0.013 A 
BRANCH  10  13
ATOM     13  O   UNL     1     -13.975  -4.300   0.080  0.00  0.00    -0.495 OA
ATOM     14  C   UNL     1     -14.467  -2.958   0.072  0.00  0.00    +0.277 C 
ENDBRANCH  10  13
ENDBRANCH   3   7
BRANCH   1  16
ATOM     15  C   UNL     1      -4.955  -2.615   0.034  0.00  0.00    +0.141 C 
ATOM     16  N   UNL     1      -5.005  -3.913   0.033  0.00  0.00    -0.172 NA
BRANCH  15  20
ATOM     17  C   UNL     1      -1.200  -0.637   0.010  0.00  0.00    +0.120 A 
ATOM     18  C   UNL     1      -2.373   0.106   0.019  0.00  0.00    +0.046 A 
ATOM     19  C   UNL     1      -3.595  -0.532   0.027  0.00  0.00    +0.013 A 
ATOM     20  C   UNL     1      -3.651  -1.929   0.026  0.00  0.00    -0.005 A 
ATOM     21  C   UNL     1      -2.468  -2.672   0.016  0.00  0.00    +0.013 A 
ATOM     22  C   UNL     1      -1.251  -2.025   0.003  0.00  0.00    +0.046 A 
BRANCH  17  24
ATOM     23  C   UNL     1      -0.017   1.425   0.010  0.00  0.00    +0.277 C 
ATOM     24  O   UNL     1       0.002  -0.004   0.002  0.00  0.00    -0.495 OA
ENDBRANCH  17  24
ENDBRANCH  15  20
ENDBRANCH   1  16
BRANCH   5  25
ATOM     25  N   UNL     1      -5.481  -6.871   0.032  0.00  0.00    -0.220 NA
ATOM     26  C   UNL     1      -5.806  -8.137   0.033  0.00  0.00    +0.126 C 
BRANCH  26  27
ATOM     27  C   UNL     1      -4.757  -9.165   0.023  0.00  0.00    +0.037 A 
ATOM     28  C   UNL     1      -5.101 -10.522   0.018  0.00  0.00    +0.028 A 
ATOM     29  C   UNL     1      -4.111 -11.481   0.008  0.00  0.00    +0.020 A 
ATOM     30  C   UNL     1      -2.775 -11.108   0.004  0.00  0.00    +0.034 A 
ATOM     31  C   UNL     1      -2.422  -9.772   0.009  0.00  0.00    +0.061 A 
ATOM     32  C   UNL     1      -3.404  -8.793   0.013  0.00  0.00    +0.139 A 
ATOM     33 BR   UNL     1      -0.596  -9.278   0.004  0.00  0.00    -0.046 Br
ATOM     34 BR   UNL     1      -4.576 -13.314   0.001  0.00  0.00    -0.050 Br
BRANCH  32  35
ATOM     35  O   UNL     1      -3.058  -7.480   0.012  0.00  0.00    -0.505 OA
ATOM     36  H   UNL     1      -2.950  -7.101   0.895  0.00  0.00    +0.292 HD
ENDBRANCH  32  35
ENDBRANCH  26  27
ENDBRANCH   5  25
TORSDOF 8
