REMARK  Name = ZINC00978112
REMARK  5 active torsions:
REMARK  status: ('A' for Active; 'I' for Inactive)
REMARK    1  A    between atoms: C_4  and  C_7
REMARK    2  A    between atoms: C_7  and  C_8
REMARK    3  A    between atoms: C_7  and  N_70
REMARK    4  A    between atoms: C_19  and  C_21
REMARK    5  A    between atoms: C_27  and  C_30
REMARK                            x       y       z     vdW  Elec       q    Type
REMARK                         _______ _______ _______ _____ _____    ______ ____
ROOT
ATOM      1  C   UNL     1       2.434  -3.982   4.633  0.00  0.00    -0.058 C 
ATOM      2  C   UNL     1       0.977  -3.510   4.688  0.00  0.00    +0.089 C 
ATOM      3  N   UNL     1       0.911  -2.137   4.163  0.00  0.00    -0.300 N 
ATOM      4  C   UNL     1       1.524  -1.861   2.855  0.00  0.00    +0.089 C 
ATOM      5  C   UNL     1       2.964  -2.397   2.876  0.00  0.00    -0.058 C 
ATOM      6  C   UNL     1       0.299  -1.159   4.861  0.00  0.00    +0.267 C 
ATOM      7  O   UNL     1      -0.106  -1.377   5.986  0.00  0.00    -0.268 OA
ATOM      8  N   UNL     1       2.931  -3.828   3.249  0.00  0.00    +0.389 N 
ATOM      9  H   UNL     1       2.298  -4.324   2.611  0.00  0.00    -0.080 HD
ENDROOT
BRANCH   6  10
ATOM     10  C   UNL     1       0.123   0.179   4.258  0.00  0.00    +0.150 A 
ATOM     11  C   UNL     1      -0.374   1.311   4.914  0.00  0.00    +0.083 A 
ATOM     12  C   UNL     1      -0.382   2.355   4.000  0.00  0.00    +0.157 A 
ATOM     13  N   UNL     1      -0.766   3.635   4.100  0.00  0.00    -0.227 NA
ATOM     14  C   UNL     1      -0.680   4.443   3.064  0.00  0.00    +0.079 A 
ATOM     15  C   UNL     1      -0.145   3.976   1.839  0.00  0.00    +0.009 A 
ATOM     16  C   UNL     1       0.226   2.683   1.728  0.00  0.00    +0.153 A 
ATOM     17  N   UNL     1       0.108   1.861   2.817  0.00  0.00    -0.209 N 
ATOM     18  N   UNL     1       0.408   0.506   3.007  0.00  0.00    -0.160 NA
ATOM     19  C   UNL     1       0.023   4.925   0.684  0.00  0.00    +0.044 C 
ATOM     20  C   UNL     1      -1.124   5.930   0.644  0.00  0.00    +0.040 C 
ATOM     21  C   UNL     1      -1.309   6.586   1.986  0.00  0.00    -0.038 A 
ATOM     22  C   UNL     1      -1.114   5.856   3.155  0.00  0.00    +0.004 A 
ATOM     23  C   UNL     1      -1.299   6.462   4.397  0.00  0.00    +0.010 A 
ATOM     24  C   UNL     1      -1.682   7.787   4.461  0.00  0.00    +0.001 A 
ATOM     25  C   UNL     1      -1.872   8.510   3.297  0.00  0.00    +0.000 A 
ATOM     26  C   UNL     1      -1.687   7.912   2.063  0.00  0.00    +0.004 A 
BRANCH  16  27
ATOM     27  C   UNL     1       0.767   2.153   0.426  0.00  0.00    +0.435 C 
ATOM     28  F   UNL     1       1.187   0.830   0.599  0.00  0.00    -0.164 F 
ATOM     29  F   UNL     1       1.853   2.937   0.019  0.00  0.00    -0.164 F 
ATOM     30  F   UNL     1      -0.234   2.201  -0.550  0.00  0.00    -0.164 F 
ENDBRANCH  16  27
ENDBRANCH   6  10
BRANCH   8  31
ATOM     31  C   UNL     1       4.284  -4.411   3.131  0.00  0.00    -0.007 C 
BRANCH  31  35
ATOM     32  C   UNL     1       4.043  -8.612   3.865  0.00  0.00    +0.000 A 
ATOM     33  C   UNL     1       5.047  -7.865   4.451  0.00  0.00    +0.000 A 
ATOM     34  C   UNL     1       5.125  -6.505   4.214  0.00  0.00    +0.002 A 
ATOM     35  C   UNL     1       4.199  -5.893   3.390  0.00  0.00    -0.057 A 
ATOM     36  C   UNL     1       3.191  -6.640   2.808  0.00  0.00    +0.002 A 
ATOM     37  C   UNL     1       3.116  -8.000   3.042  0.00  0.00    +0.000 A 
ENDBRANCH  31  35
BRANCH  31  38
ATOM     38  C   UNL     1       4.800  -4.174   1.736  0.00  0.00    -0.057 A 
ATOM     39  C   UNL     1       3.967  -4.361   0.649  0.00  0.00    +0.002 A 
ATOM     40  C   UNL     1       4.439  -4.139  -0.631  0.00  0.00    +0.000 A 
ATOM     41  C   UNL     1       5.748  -3.738  -0.825  0.00  0.00    +0.000 A 
ATOM     42  C   UNL     1       6.583  -3.556   0.261  0.00  0.00    +0.000 A 
ATOM     43  C   UNL     1       6.109  -3.774   1.542  0.00  0.00    +0.002 A 
ENDBRANCH  31  38
ENDBRANCH   8  31
TORSDOF 5
