REMARK  Name = ZINC01351695
REMARK  10 active torsions:
REMARK  status: ('A' for Active; 'I' for Inactive)
REMARK    1  A    between atoms: C_1  and  O_2
REMARK    2  A    between atoms: O_2  and  C_3
REMARK    3  A    between atoms: C_6  and  C_11
REMARK    4  A    between atoms: C_8  and  O_9
REMARK    5  A    between atoms: O_9  and  C_10
REMARK    6  A    between atoms: C_11  and  C_13
REMARK    7  A    between atoms: C_11  and  N_62
REMARK    8  A    between atoms: N_17  and  C_18
REMARK    9  A    between atoms: C_18  and  C_19
REMARK   10  A    between atoms: N_26  and  C_29
REMARK                            x       y       z     vdW  Elec       q    Type
REMARK                         _______ _______ _______ _____ _____    ______ ____
ROOT
ATOM      1  C   UNL     1      -2.298  -0.406   1.513  0.00  0.00    +0.034 C 
ENDROOT
BRANCH   1   7
ATOM      2  C   UNL     1      -4.388  -1.618   1.355  0.00  0.00    -0.058 C 
ATOM      3  C   UNL     1      -5.902  -1.498   1.544  0.00  0.00    +0.086 C 
ATOM      4  N   UNL     1      -6.428  -0.475   0.630  0.00  0.00    -0.331 N 
ATOM      5  C   UNL     1      -5.801   0.829   0.887  0.00  0.00    +0.086 C 
ATOM      6  C   UNL     1      -4.287   0.709   0.697  0.00  0.00    -0.058 C 
ATOM      7  N   UNL     1      -3.768  -0.307   1.637  0.00  0.00    +0.391 N 
ATOM      8  H   UNL     1      -4.003  -0.025   2.596  0.00  0.00    -0.080 HD
BRANCH   4   9
ATOM      9  C   UNL     1      -7.821  -0.388   0.724  0.00  0.00    +0.065 A 
ATOM     10  C   UNL     1      -8.522   0.470  -0.112  0.00  0.00    +0.026 A 
ATOM     11  C   UNL     1      -9.898   0.551  -0.020  0.00  0.00    +0.002 A 
ATOM     12  C   UNL     1     -10.578  -0.214   0.910  0.00  0.00    +0.003 A 
ATOM     13  C   UNL     1      -9.883  -1.067   1.748  0.00  0.00    +0.040 A 
ATOM     14  C   UNL     1      -8.506  -1.157   1.659  0.00  0.00    +0.144 A 
ATOM     15  F   UNL     1      -7.828  -1.989   2.478  0.00  0.00    -0.204 F 
ENDBRANCH   4   9
ENDBRANCH   1   7
BRANCH   1  19
ATOM     16  C   UNL     1      -0.877  -3.404   4.211  0.00  0.00    +0.161 A 
ATOM     17  C   UNL     1      -1.899  -2.551   4.594  0.00  0.00    +0.049 A 
ATOM     18  C   UNL     1      -2.353  -1.580   3.722  0.00  0.00    +0.006 A 
ATOM     19  C   UNL     1      -1.796  -1.463   2.462  0.00  0.00    -0.050 A 
ATOM     20  C   UNL     1      -0.775  -2.311   2.073  0.00  0.00    +0.051 A 
ATOM     21  C   UNL     1      -0.312  -3.283   2.945  0.00  0.00    +0.162 A 
BRANCH  16  23
ATOM     22  C   UNL     1      -1.052  -4.423   6.353  0.00  0.00    +0.277 C 
ATOM     23  O   UNL     1      -0.426  -4.357   5.070  0.00  0.00    -0.491 OA
ENDBRANCH  16  23
BRANCH  21  24
ATOM     24  O   UNL     1       0.692  -4.118   2.564  0.00  0.00    -0.491 OA
ATOM     25  C   UNL     1       1.223  -3.936   1.250  0.00  0.00    +0.277 C 
ENDBRANCH  21  24
ENDBRANCH   1  19
BRANCH   1  26
ATOM     26  C   UNL     1      -1.686   0.923   1.872  0.00  0.00    +0.143 A 
ATOM     27  N   UNL     1      -2.012   1.687   2.887  0.00  0.00    -0.115 NA
ATOM     28  N   UNL     1      -1.264   2.735   2.853  0.00  0.00    -0.023 NA
ATOM     29  N   UNL     1      -0.466   2.658   1.846  0.00  0.00    -0.044 NA
ATOM     30  N   UNL     1      -0.698   1.558   1.213  0.00  0.00    -0.226 N 
BRANCH  30  31
ATOM     31  C   UNL     1      -0.013   1.086   0.008  0.00  0.00    +0.189 C 
BRANCH  31  32
ATOM     32  C   UNL     1      -0.742   1.585  -1.213  0.00  0.00    +0.011 A 
ATOM     33  C   UNL     1      -0.558   2.736  -1.905  0.00  0.00    +0.013 A 
ATOM     34  C   UNL     1      -1.352   2.988  -3.008  0.00  0.00    +0.008 A 
ATOM     35  C   UNL     1      -2.291   2.077  -3.365  0.00  0.00    +0.045 A 
ATOM     36  S   UNL     1      -2.065   0.811  -2.127  0.00  0.00    -0.100 S 
ENDBRANCH  31  32
ENDBRANCH  30  31
ENDBRANCH   1  26
TORSDOF 8
