REMARK  Name = ZINC43669672
REMARK  5 active torsions:
REMARK  status: ('A' for Active; 'I' for Inactive)
REMARK    1  A    between atoms: C_1  and  C_2
REMARK    2  A    between atoms: C_2  and  C_4
REMARK    3  A    between atoms: C_2  and  N_12
REMARK    4  A    between atoms: C_13  and  N_20
REMARK    5  A    between atoms: C_14  and  N_17
REMARK                            x       y       z     vdW  Elec       q    Type
REMARK                         _______ _______ _______ _____ _____    ______ ____
ROOT
ATOM      1  N   UNL     1      -1.372  -0.511   0.012  0.00  0.00    -0.242 N 
ATOM      2  C   UNL     1      -1.922  -1.300   0.963  0.00  0.00    +0.146 A 
ATOM      3  C   UNL     1      -3.212  -1.544   0.599  0.00  0.00    +0.185 A 
ATOM      4  C   UNL     1      -3.447  -0.882  -0.609  0.00  0.00    +0.169 A 
ATOM      5  N   UNL     1      -2.351  -0.260  -0.958  0.00  0.00    -0.175 NA
ENDROOT
BRANCH   3   6
ATOM      6  N   UNL     1      -4.189  -2.365   1.349  0.00  0.00    +0.061 N 
ATOM      7  O   UNL     1      -5.311  -2.510   0.922  0.00  0.00    -0.126 OA
ATOM      8  O   UNL     1      -3.865  -2.892   2.389  0.00  0.00    -0.126 OA
ENDBRANCH   3   6
BRANCH   2   9
ATOM      9  N   UNL     1      -1.286  -1.777   2.106  0.00  0.00    -0.342 N 
ATOM     10  H   UNL     1      -0.359  -1.546   2.277  0.00  0.00    +0.144 HD
ATOM     11  H   UNL     1      -1.769  -2.340   2.731  0.00  0.00    +0.144 HD
ENDBRANCH   2   9
BRANCH   1  13
ATOM     12  C   UNL     1      -0.019   1.526   0.010  0.00  0.00    +0.038 C 
ATOM     13  C   UNL     1       0.002  -0.004   0.002  0.00  0.00    +0.137 C 
BRANCH  13  14
ATOM     14  C   UNL     1       0.707  -0.490  -1.238  0.00  0.00    -0.005 A 
ATOM     15  C   UNL     1       0.222  -0.151  -2.487  0.00  0.00    +0.008 A 
ATOM     16  C   UNL     1       0.868  -0.596  -3.624  0.00  0.00    +0.020 A 
ATOM     17  C   UNL     1       2.002  -1.382  -3.514  0.00  0.00    +0.042 A 
ATOM     18  C   UNL     1       2.489  -1.721  -2.264  0.00  0.00    +0.040 A 
ATOM     19  C   UNL     1       1.844  -1.271  -1.126  0.00  0.00    +0.048 A 
ATOM     20 CL   UNL     1       2.458  -1.691   0.443  0.00  0.00    -0.083 Cl
ATOM     21 CL   UNL     1       2.814  -1.941  -4.943  0.00  0.00    -0.083 Cl
ENDBRANCH  13  14
ENDBRANCH   1  13
TORSDOF 4
