REMARK  Name = ZINC38597783
REMARK  10 active torsions:
REMARK  status: ('A' for Active; 'I' for Inactive)
REMARK    1  A    between atoms: C_1  and  C_2
REMARK    2  A    between atoms: C_2  and  C_3
REMARK    3  A    between atoms: C_3  and  C_4
REMARK    4  A    between atoms: C_7  and  S_10
REMARK    5  A    between atoms: S_10  and  N_13
REMARK    6  A    between atoms: N_13  and  C_14
REMARK    7  A    between atoms: C_14  and  C_15
REMARK    8  A    between atoms: C_15  and  C_17
REMARK    9  A    between atoms: C_15  and  N_22
REMARK   10  A    between atoms: N_25  and  C_28
REMARK                            x       y       z     vdW  Elec       q    Type
REMARK                         _______ _______ _______ _____ _____    ______ ____
ROOT
ATOM      1  C   UNL     1       2.323  -7.662   1.091  0.00  0.00    +0.015 C 
ENDROOT
BRANCH   1   2
ATOM      2  N   UNL     1       2.155  -9.090   0.791  0.00  0.00    +0.389 N 
ATOM      3  C   UNL     1       1.514  -9.756   1.932  0.00  0.00    -0.059 C 
ATOM      4  C   UNL     1       1.234 -11.220   1.576  0.00  0.00    +0.086 C 
ATOM      5  N   UNL     1       2.493 -11.842   1.138  0.00  0.00    -0.333 N 
ATOM      6  C   UNL     1       3.286 -11.153   0.108  0.00  0.00    +0.086 C 
ATOM      7  C   UNL     1       3.469  -9.692   0.533  0.00  0.00    -0.059 C 
ATOM      8  H   UNL     1       1.573  -9.194  -0.027  0.00  0.00    -0.081 HD
BRANCH   5   9
ATOM      9  C   UNL     1       2.924 -13.055   1.684  0.00  0.00    +0.030 A 
ATOM     10  C   UNL     1       2.106 -13.750   2.566  0.00  0.00    +0.026 A 
ATOM     11  C   UNL     1       2.533 -14.948   3.104  0.00  0.00    +0.040 A 
ATOM     12  C   UNL     1       3.776 -15.456   2.765  0.00  0.00    +0.124 A 
ATOM     13  C   UNL     1       4.593 -14.765   1.887  0.00  0.00    +0.040 A 
ATOM     14  C   UNL     1       4.167 -13.569   1.342  0.00  0.00    +0.026 A 
ATOM     15  F   UNL     1       4.192 -16.628   3.294  0.00  0.00    -0.205 F 
ENDBRANCH   5   9
ENDBRANCH   1   2
BRANCH   1  16
ATOM     16  C   UNL     1       3.267  -7.501   2.255  0.00  0.00    +0.093 A 
ATOM     17  C   UNL     1       4.316  -6.660   2.307  0.00  0.00    +0.043 A 
ATOM     18  C   UNL     1       4.920  -6.836   3.573  0.00  0.00    +0.041 A 
ATOM     19  C   UNL     1       4.204  -7.774   4.219  0.00  0.00    +0.195 A 
ATOM     20  O   UNL     1       3.201  -8.169   3.418  0.00  0.00    -0.469 OA
ENDBRANCH   1  16
BRANCH   1  21
ATOM     21  C   UNL     1       0.966  -7.052   1.447  0.00  0.00    +0.098 C 
BRANCH  21  22
ATOM     22  N   UNL     1       0.027  -7.274   0.345  0.00  0.00    -0.191 NA
ATOM     23  H   UNL     1       0.354  -7.564  -0.520  0.00  0.00    +0.148 HD
BRANCH  22  24
ATOM     24  S   UNL     1      -1.595  -7.029   0.577  0.00  0.00    +0.058 S 
ATOM     25  O   UNL     1      -1.942  -7.714   1.772  0.00  0.00    -0.153 OA
ATOM     26  O   UNL     1      -2.228  -7.297  -0.666  0.00  0.00    -0.153 OA
BRANCH  24  30
ATOM     27  C   UNL     1      -2.179  -2.616   1.401  0.00  0.00    -0.047 A 
ATOM     28  C   UNL     1      -2.227  -3.089   0.103  0.00  0.00    +0.005 A 
ATOM     29  C   UNL     1      -2.048  -4.437  -0.149  0.00  0.00    +0.029 A 
ATOM     30  C   UNL     1      -1.821  -5.311   0.898  0.00  0.00    +0.105 A 
ATOM     31  C   UNL     1      -1.773  -4.838   2.196  0.00  0.00    +0.029 A 
ATOM     32  C   UNL     1      -1.948  -3.490   2.447  0.00  0.00    +0.005 A 
BRANCH  27  33
ATOM     33  C   UNL     1      -2.374  -1.147   1.675  0.00  0.00    +0.035 C 
BRANCH  33  35
ATOM     34  C   UNL     1      -1.218   1.055   1.911  0.00  0.00    +0.004 C 
ATOM     35  C   UNL     1      -1.020  -0.436   1.632  0.00  0.00    +0.001 C 
ENDBRANCH  33  35
ENDBRANCH  27  33
ENDBRANCH  24  30
ENDBRANCH  22  24
ENDBRANCH  21  22
ENDBRANCH   1  21
TORSDOF 9
