REMARK  Name = ZINC07002880
REMARK  7 active torsions:
REMARK  status: ('A' for Active; 'I' for Inactive)
REMARK    1  A    between atoms: C_1  and  C_2
REMARK    2  A    between atoms: C_5  and  C_8
REMARK    3  A    between atoms: C_9  and  C_29
REMARK    4  A    between atoms: C_17  and  C_19
REMARK    5  A    between atoms: C_19  and  N_54
REMARK    6  A    between atoms: C_21  and  C_28
REMARK    7  A    between atoms: C_24  and  C_27
REMARK                            x       y       z     vdW  Elec       q    Type
REMARK                         _______ _______ _______ _____ _____    ______ ____
ROOT
ATOM      1  C   UNL     1       0.999  -2.079   1.077  0.00  0.00    +0.007 A 
ATOM      2  C   UNL     1      -0.251  -2.562   1.278  0.00  0.00    -0.003 A 
ATOM      3  S   UNL     1      -1.284  -1.121   1.094  0.00  0.00    -0.073 S 
ATOM      4  C   UNL     1      -0.026   0.084   0.756  0.00  0.00    +0.116 A 
ATOM      5  C   UNL     1       1.165  -0.659   0.793  0.00  0.00    +0.080 A 
ATOM      6  C   UNL     1       2.366   0.082   0.547  0.00  0.00    +0.260 A 
ATOM      7  O   UNL     1       3.450  -0.476   0.558  0.00  0.00    -0.267 OA
ATOM      8  N   UNL     1       2.279   1.402   0.304  0.00  0.00    -0.312 N 
ATOM      9  H   UNL     1       3.114   1.925   0.131  0.00  0.00    +0.170 HD
ATOM     10  C   UNL     1       1.080   2.040   0.288  0.00  0.00    +0.094 A 
ATOM     11  N   UNL     1      -0.032   1.391   0.508  0.00  0.00    -0.229 NA
ATOM     12  C   UNL     1      -0.668  -3.977   1.583  0.00  0.00    +0.052 C 
ENDROOT
BRANCH   1  17
ATOM     13  C   UNL     1       5.569  -5.572   1.344  0.00  0.00    +0.044 C 
ATOM     14  C   UNL     1       4.373  -4.658   1.274  0.00  0.00    -0.050 A 
ATOM     15  C   UNL     1       3.614  -4.430   2.407  0.00  0.00    +0.004 A 
ATOM     16  C   UNL     1       2.517  -3.593   2.349  0.00  0.00    +0.009 A 
ATOM     17  C   UNL     1       2.176  -2.978   1.146  0.00  0.00    -0.016 A 
ATOM     18  C   UNL     1       2.942  -3.216   0.006  0.00  0.00    +0.009 A 
ATOM     19  C   UNL     1       4.039  -4.051   0.077  0.00  0.00    +0.004 A 
ENDBRANCH   1  17
BRANCH  10  20
ATOM     20  C   UNL     1       1.032   3.520   0.011  0.00  0.00    -0.003 C 
BRANCH  20  28
ATOM     21  C   UNL     1      -0.465   5.418  -0.109  0.00  0.00    -0.075 C 
ATOM     22  C   UNL     1      -1.938   5.833  -0.072  0.00  0.00    -0.031 C 
ATOM     23  C   UNL     1      -2.659   5.243  -1.287  0.00  0.00    +0.003 C 
ATOM     24  C   UNL     1      -2.501   3.720  -1.275  0.00  0.00    -0.031 C 
ATOM     25  C   UNL     1      -1.012   3.367  -1.277  0.00  0.00    -0.075 C 
ATOM     26  C   UNL     1      -3.168   3.127  -2.518  0.00  0.00    +0.005 C 
ATOM     27  C   UNL     1      -2.041   7.359  -0.109  0.00  0.00    +0.005 C 
ATOM     28  N   UNL     1      -0.381   3.943  -0.070  0.00  0.00    +0.385 N 
ATOM     29  H   UNL     1      -0.879   3.602   0.761  0.00  0.00    -0.081 HD
ENDBRANCH  20  28
ENDBRANCH  10  20
TORSDOF 3
