REMARK  Name = ZINC34731401
REMARK  11 active torsions:
REMARK  status: ('A' for Active; 'I' for Inactive)
REMARK    1  A    between atoms: C_1  and  C_2
REMARK    2  A    between atoms: C_2  and  C_3
REMARK    3  A    between atoms: C_4  and  C_37
REMARK    4  A    between atoms: N_11  and  C_26
REMARK    5  A    between atoms: N_14  and  C_17
REMARK    6  A    between atoms: C_17  and  C_18
REMARK    7  A    between atoms: C_20  and  C_25
REMARK    8  A    between atoms: C_23  and  C_24
REMARK    9  A    between atoms: C_26  and  C_27
REMARK   10  A    between atoms: N_29  and  C_30
REMARK   11  A    between atoms: C_33  and  C_36
REMARK                            x       y       z     vdW  Elec       q    Type
REMARK                         _______ _______ _______ _____ _____    ______ ____
ROOT
ATOM      1  C   UNL     1       0.671  -0.612   1.257  0.00  0.00    -0.040 C 
ATOM      2  C   UNL     1       0.111  -0.916   2.413  0.00  0.00    -0.064 C 
ATOM      3  C   UNL     1       1.224  -1.260   3.377  0.00  0.00    +0.073 C 
ATOM      4  C   UNL     1       2.484  -1.102   2.582  0.00  0.00    +0.004 A 
ATOM      5  C   UNL     1       2.155  -0.722   1.319  0.00  0.00    +0.003 A 
ATOM      6  C   UNL     1       3.284  -0.523   0.384  0.00  0.00    +0.078 A 
ATOM      7  C   UNL     1       3.231  -0.111  -1.034  0.00  0.00    +0.266 A 
ATOM      8  O   UNL     1       2.162   0.111  -1.573  0.00  0.00    -0.267 OA
ATOM      9  N   UNL     1       4.380   0.016  -1.722  0.00  0.00    -0.251 N 
ATOM     10  C   UNL     1       5.575  -0.221  -1.157  0.00  0.00    +0.334 A 
ATOM     11  O   UNL     1       6.585  -0.092  -1.822  0.00  0.00    -0.246 OA
ATOM     12  N   UNL     1       5.677  -0.599   0.133  0.00  0.00    -0.283 N 
ATOM     13  C   UNL     1       4.556  -0.751   0.900  0.00  0.00    +0.098 A 
ATOM     14  S   UNL     1       4.253  -1.205   2.587  0.00  0.00    -0.074 S 
ATOM     15  C   UNL     1      -1.365  -0.918   2.717  0.00  0.00    +0.039 C 
ENDROOT
BRANCH   1  17
ATOM     16  C   UNL     1      -0.164   1.317  -0.059  0.00  0.00    +0.009 C 
ATOM     17  C   UNL     1      -0.098  -0.209   0.024  0.00  0.00    +0.032 C 
ENDBRANCH   1  17
BRANCH  12  18
ATOM     18  C   UNL     1       6.998  -0.849   0.716  0.00  0.00    +0.162 C 
BRANCH  18  19
ATOM     19  C   UNL     1       7.588   0.450   1.201  0.00  0.00    -0.024 A 
ATOM     20  C   UNL     1       6.838   1.611   1.150  0.00  0.00    +0.009 A 
ATOM     21  C   UNL     1       7.380   2.803   1.594  0.00  0.00    -0.050 A 
ATOM     22  C   UNL     1       8.670   2.834   2.090  0.00  0.00    +0.003 A 
ATOM     23  C   UNL     1       9.418   1.673   2.141  0.00  0.00    +0.004 A 
ATOM     24  C   UNL     1       8.876   0.480   1.701  0.00  0.00    -0.046 A 
ATOM     25  C   UNL     1       9.690  -0.786   1.762  0.00  0.00    +0.044 C 
ATOM     26  C   UNL     1       6.563   4.068   1.538  0.00  0.00    +0.044 C 
ENDBRANCH  18  19
ENDBRANCH  12  18
BRANCH   9  27
ATOM     27  C   UNL     1       4.327   0.425  -3.128  0.00  0.00    +0.226 C 
BRANCH  27  28
ATOM     28  C   UNL     1       4.392   1.928  -3.217  0.00  0.00    +0.237 C 
ATOM     29  O   UNL     1       4.476   2.592  -2.205  0.00  0.00    -0.274 OA
ATOM     30  N   UNL     1       4.358   2.534  -4.420  0.00  0.00    -0.284 N 
ATOM     31  H   UNL     1       4.359   2.002  -5.231  0.00  0.00    +0.155 HD
BRANCH  30  32
ATOM     32  C   UNL     1       4.322   3.930  -4.500  0.00  0.00    +0.033 A 
ATOM     33  C   UNL     1       5.013   4.698  -3.571  0.00  0.00    +0.023 A 
ATOM     34  C   UNL     1       4.976   6.076  -3.652  0.00  0.00    +0.005 A 
ATOM     35  C   UNL     1       4.251   6.692  -4.656  0.00  0.00    -0.050 A 
ATOM     36  C   UNL     1       3.561   5.930  -5.582  0.00  0.00    +0.005 A 
ATOM     37  C   UNL     1       3.600   4.551  -5.510  0.00  0.00    +0.023 A 
ATOM     38  C   UNL     1       4.212   8.196  -4.742  0.00  0.00    +0.044 C 
ENDBRANCH  30  32
ENDBRANCH  27  28
ENDBRANCH   9  27
TORSDOF 6
