REMARK  Name = ZINC38546634
REMARK  6 active torsions:
REMARK  status: ('A' for Active; 'I' for Inactive)
REMARK    1  A    between atoms: C_4  and  N_7
REMARK    2  A    between atoms: N_10  and  C_13
REMARK    3  A    between atoms: C_13  and  C_15
REMARK    4  A    between atoms: C_13  and  C_21
REMARK    5  A    between atoms: C_25  and  N_26
REMARK    6  A    between atoms: C_27  and  C_29
REMARK                            x       y       z     vdW  Elec       q    Type
REMARK                         _______ _______ _______ _____ _____    ______ ____
ROOT
ATOM      1  C   UNL     1       6.722  -2.549  -2.043  0.00  0.00    -0.003 C 
ENDROOT
BRANCH   1   2
ATOM      2  C   UNL     1       8.129  -2.020  -2.160  0.00  0.00    -0.025 A 
ATOM      3  C   UNL     1       8.651  -1.694  -3.412  0.00  0.00    -0.033 A 
ATOM      4  C   UNL     1       9.927  -1.224  -3.436  0.00  0.00    -0.005 A 
ATOM      5  S   UNL     1      10.414  -1.227  -1.731  0.00  0.00    -0.078 S 
ATOM      6  C   UNL     1       8.889  -1.855  -1.045  0.00  0.00    +0.074 A 
ATOM      7  C   UNL     1      10.722  -0.807  -4.630  0.00  0.00    +0.043 C 
ATOM      8  C   UNL     1      10.013  -1.330  -5.889  0.00  0.00    +0.005 C 
ATOM      9  C   UNL     1       8.523  -0.989  -5.790  0.00  0.00    +0.005 C 
ATOM     10  C   UNL     1       7.862  -1.844  -4.709  0.00  0.00    +0.036 C 
BRANCH   6  11
ATOM     11  N   UNL     1       8.564  -2.111   0.289  0.00  0.00    -0.273 N 
ATOM     12  C   UNL     1       9.422  -1.768   1.270  0.00  0.00    +0.284 C 
ATOM     13  O   UNL     1      10.481  -1.235   0.993  0.00  0.00    -0.266 OA
ATOM     14  H   UNL     1       7.720  -2.536   0.509  0.00  0.00    +0.156 HD
BRANCH  12  15
ATOM     15  C   UNL     1       9.080  -2.037   2.670  0.00  0.00    +0.189 A 
ATOM     16  C   UNL     1       9.852  -1.738   3.756  0.00  0.00    +0.054 A 
ATOM     17  C   UNL     1       9.140  -2.167   4.887  0.00  0.00    +0.042 A 
ATOM     18  C   UNL     1       7.980  -2.703   4.448  0.00  0.00    +0.196 A 
ATOM     19  O   UNL     1       7.945  -2.618   3.111  0.00  0.00    -0.458 OA
ENDBRANCH  12  15
ENDBRANCH   6  11
ENDBRANCH   1   2
BRANCH   1  23
ATOM     20  N   UNL     1       4.105  -0.147   0.170  0.00  0.00    -0.333 N 
ATOM     21  C   UNL     1       5.475   0.356  -0.021  0.00  0.00    +0.086 C 
ATOM     22  C   UNL     1       6.107  -0.390  -1.200  0.00  0.00    -0.058 C 
ATOM     23  N   UNL     1       6.020  -1.837  -0.966  0.00  0.00    +0.389 N 
ATOM     24  C   UNL     1       4.612  -2.256  -0.942  0.00  0.00    -0.058 C 
ATOM     25  C   UNL     1       3.907  -1.602   0.256  0.00  0.00    +0.086 C 
ATOM     26  H   UNL     1       6.451  -2.060  -0.082  0.00  0.00    -0.080 HD
BRANCH  20  30
ATOM     27  C   UNL     1       0.885   2.474   0.473  0.00  0.00    +0.000 A 
ATOM     28  C   UNL     1       0.665   1.109   0.467  0.00  0.00    +0.002 A 
ATOM     29  C   UNL     1       1.731   0.237   0.366  0.00  0.00    +0.023 A 
ATOM     30  C   UNL     1       3.025   0.732   0.271  0.00  0.00    +0.030 A 
ATOM     31  C   UNL     1       3.242   2.104   0.278  0.00  0.00    +0.023 A 
ATOM     32  C   UNL     1       2.172   2.971   0.379  0.00  0.00    +0.002 A 
ENDBRANCH  20  30
ENDBRANCH   1  23
BRANCH   1  33
ATOM     33  C   UNL     1       6.763  -4.022  -1.728  0.00  0.00    -0.038 A 
ATOM     34  C   UNL     1       6.908  -4.954  -2.744  0.00  0.00    +0.005 A 
ATOM     35  C   UNL     1       6.941  -6.298  -2.408  0.00  0.00    +0.020 A 
ATOM     36  C   UNL     1       6.829  -6.662  -1.079  0.00  0.00    +0.111 A 
ATOM     37  N   UNL     1       6.692  -5.749  -0.138  0.00  0.00    -0.263 NA
ATOM     38  C   UNL     1       6.663  -4.461  -0.421  0.00  0.00    +0.113 A 
ENDBRANCH   1  33
TORSDOF 6
