REMARK  Name = ZINC40733717
REMARK  9 active torsions:
REMARK  status: ('A' for Active; 'I' for Inactive)
REMARK    1  A    between atoms: C_1  and  O_2
REMARK    2  A    between atoms: O_2  and  C_3
REMARK    3  A    between atoms: C_5  and  C_20
REMARK    4  A    between atoms: C_8  and  O_9
REMARK    5  A    between atoms: O_9  and  C_10
REMARK    6  A    between atoms: C_10  and  C_11
REMARK    7  A    between atoms: C_20  and  N_21
REMARK    8  A    between atoms: N_21  and  C_22
REMARK    9  A    between atoms: C_22  and  C_23
REMARK                            x       y       z     vdW  Elec       q    Type
REMARK                         _______ _______ _______ _____ _____    ______ ____
ROOT
ATOM      1  C   UNL     1      -1.201  -0.638   0.010  0.00  0.00    +0.163 A 
ATOM      2  C   UNL     1      -2.374   0.100   0.019  0.00  0.00    +0.051 A 
ATOM      3  C   UNL     1      -3.597  -0.546   0.028  0.00  0.00    -0.060 A 
ATOM      4  C   UNL     1      -3.653  -1.927   0.028  0.00  0.00    +0.021 A 
ATOM      5  C   UNL     1      -2.486  -2.669   0.018  0.00  0.00    +0.063 A 
ATOM      6  C   UNL     1      -1.257  -2.028   0.003  0.00  0.00    +0.176 A 
ATOM      7 BR   UNL     1      -2.567  -4.559   0.019  0.00  0.00    -0.046 Br
ENDROOT
BRANCH   1   9
ATOM      8  C   UNL     1      -0.017   1.425   0.010  0.00  0.00    +0.277 C 
ATOM      9  O   UNL     1       0.002  -0.004   0.002  0.00  0.00    -0.491 OA
ENDBRANCH   1   9
BRANCH   6  10
ATOM     10  O   UNL     1      -0.108  -2.756  -0.012  0.00  0.00    -0.483 OA
BRANCH  10  11
ATOM     11  C   UNL     1       0.452  -3.110   1.254  0.00  0.00    +0.267 C 
BRANCH  11  12
ATOM     12  C   UNL     1       1.712  -3.909   1.040  0.00  0.00    +0.026 A 
ATOM     13  C   UNL     1       1.649  -5.287   0.937  0.00  0.00    +0.049 A 
ATOM     14  C   UNL     1       2.806  -6.019   0.741  0.00  0.00    +0.020 A 
ATOM     15  C   UNL     1       4.025  -5.375   0.649  0.00  0.00    +0.003 A 
ATOM     16  C   UNL     1       4.089  -3.998   0.752  0.00  0.00    +0.020 A 
ATOM     17  C   UNL     1       2.932  -3.264   0.942  0.00  0.00    +0.049 A 
ATOM     18 CL   UNL     1       3.011  -1.534   1.063  0.00  0.00    -0.083 Cl
ATOM     19 CL   UNL     1       0.118  -6.097   1.055  0.00  0.00    -0.083 Cl
ENDBRANCH  11  12
ENDBRANCH  10  11
ENDBRANCH   6  10
BRANCH   3  20
ATOM     20  C   UNL     1      -4.871   0.258   0.039  0.00  0.00    -0.046 C 
BRANCH  20  21
ATOM     21  N   UNL     1      -5.296   0.521  -1.342  0.00  0.00    +0.386 N 
ATOM     22  H   UNL     1      -4.576   1.039  -1.823  0.00  0.00    -0.085 HD
ATOM     23  H   UNL     1      -5.455  -0.355  -1.818  0.00  0.00    -0.085 HD
BRANCH  21  24
ATOM     24  C   UNL     1      -6.539   1.305  -1.332  0.00  0.00    -0.006 C 
BRANCH  24  25
ATOM     25  C   UNL     1      -6.974   1.575  -2.749  0.00  0.00    +0.088 A 
ATOM     26  C   UNL     1      -7.788   0.795  -3.484  0.00  0.00    +0.042 A 
ATOM     27  C   UNL     1      -7.928   1.421  -4.743  0.00  0.00    +0.041 A 
ATOM     28  C   UNL     1      -7.192   2.546  -4.703  0.00  0.00    +0.195 A 
ATOM     29  O   UNL     1      -6.621   2.637  -3.491  0.00  0.00    -0.470 OA
ENDBRANCH  24  25
ENDBRANCH  21  24
ENDBRANCH  20  21
ENDBRANCH   3  20
TORSDOF 8
