REMARK  Name = ZINC35664271
REMARK  6 active torsions:
REMARK  status: ('A' for Active; 'I' for Inactive)
REMARK    1  A    between atoms: C_4  and  C_7
REMARK    2  A    between atoms: C_7  and  C_8
REMARK    3  A    between atoms: N_12  and  C_29
REMARK    4  A    between atoms: N_17  and  S_20
REMARK    5  A    between atoms: S_20  and  C_23
REMARK    6  A    between atoms: C_29  and  C_30
REMARK                            x       y       z     vdW  Elec       q    Type
REMARK                         _______ _______ _______ _____ _____    ______ ____
ROOT
ATOM      1  C   UNL     1       4.724  -3.966   2.249  0.00  0.00    +0.023 C 
ATOM      2  C   UNL     1       6.173  -3.664   2.561  0.00  0.00    +0.201 C 
ATOM      3  O   UNL     1       7.010  -4.476   2.894  0.00  0.00    -0.277 OA
ATOM      4  N   UNL     1       6.378  -2.340   2.405  0.00  0.00    -0.309 N 
ATOM      5  C   UNL     1       5.126  -1.695   2.002  0.00  0.00    +0.006 C 
ATOM      6  N   UNL     1       4.236  -2.773   1.514  0.00  0.00    +0.401 N 
ATOM      7  C   UNL     1       5.385  -0.692   0.879  0.00  0.00    +0.023 C 
ATOM      8  C   UNL     1       6.336   0.400   1.383  0.00  0.00    +0.109 C 
ATOM      9  N   UNL     1       5.776   0.984   2.609  0.00  0.00    -0.177 NA
ATOM     10  C   UNL     1       5.423   0.090   3.721  0.00  0.00    +0.109 C 
ATOM     11  C   UNL     1       4.480  -0.998   3.198  0.00  0.00    +0.023 C 
ATOM     12  H   UNL     1       4.343  -2.900   0.519  0.00  0.00    -0.082 HD
ATOM     13  H   UNL     1       3.275  -2.578   1.750  0.00  0.00    -0.082 HD
ENDROOT
BRANCH   9  14
ATOM     14  S   UNL     1       5.549   2.619   2.736  0.00  0.00    +0.061 S 
ATOM     15  O   UNL     1       5.551   2.923   4.125  0.00  0.00    -0.153 OA
ATOM     16  O   UNL     1       6.450   3.227   1.822  0.00  0.00    -0.153 OA
BRANCH  14  17
ATOM     17  C   UNL     1       3.924   2.966   2.148  0.00  0.00    +0.105 A 
ATOM     18  C   UNL     1       3.719   3.243   0.810  0.00  0.00    +0.028 A 
ATOM     19  C   UNL     1       2.444   3.515   0.348  0.00  0.00    +0.002 A 
ATOM     20  C   UNL     1       1.376   3.510   1.225  0.00  0.00    +0.000 A 
ATOM     21  C   UNL     1       1.581   3.233   2.564  0.00  0.00    +0.002 A 
ATOM     22  C   UNL     1       2.855   2.956   3.024  0.00  0.00    +0.028 A 
ENDBRANCH  14  17
ENDBRANCH   9  14
BRANCH   1  23
ATOM     23  C   UNL     1       4.616  -5.213   1.370  0.00  0.00    +0.028 C 
BRANCH  23  27
ATOM     24  C   UNL     1       0.500  -6.094   0.641  0.00  0.00    +0.000 A 
ATOM     25  C   UNL     1       1.192  -5.263  -0.220  0.00  0.00    +0.000 A 
ATOM     26  C   UNL     1       2.524  -4.978   0.016  0.00  0.00    +0.003 A 
ATOM     27  C   UNL     1       3.164  -5.523   1.113  0.00  0.00    -0.048 A 
ATOM     28  C   UNL     1       2.472  -6.354   1.975  0.00  0.00    +0.003 A 
ATOM     29  C   UNL     1       1.140  -6.640   1.738  0.00  0.00    +0.000 A 
ENDBRANCH  23  27
ENDBRANCH   1  23
BRANCH   4  30
ATOM     30  C   UNL     1       7.656  -1.652   2.609  0.00  0.00    +0.141 C 
BRANCH  30  31
ATOM     31  C   UNL     1       8.462  -1.703   1.337  0.00  0.00    -0.030 A 
ATOM     32  C   UNL     1       8.397  -2.818   0.522  0.00  0.00    +0.008 A 
ATOM     33  C   UNL     1       9.135  -2.866  -0.645  0.00  0.00    +0.038 A 
ATOM     34  C   UNL     1       9.941  -1.796  -0.998  0.00  0.00    +0.123 A 
ATOM     35  C   UNL     1      10.005  -0.680  -0.181  0.00  0.00    +0.038 A 
ATOM     36  C   UNL     1       9.262  -0.633   0.983  0.00  0.00    +0.008 A 
ATOM     37  F   UNL     1      10.664  -1.842  -2.139  0.00  0.00    -0.205 F 
ENDBRANCH  30  31
ENDBRANCH   4  30
TORSDOF 6
