REMARK  Name = ZINC39035085
REMARK  7 active torsions:
REMARK  status: ('A' for Active; 'I' for Inactive)
REMARK    1  A    between atoms: C_1  and  C_2
REMARK    2  A    between atoms: C_7  and  C_9
REMARK    3  A    between atoms: C_7  and  C_10
REMARK    4  A    between atoms: N_11  and  C_13
REMARK    5  A    between atoms: C_13  and  N_14
REMARK    6  A    between atoms: N_22  and  N_23
REMARK    7  A    between atoms: C_24  and  C_26
REMARK                            x       y       z     vdW  Elec       q    Type
REMARK                         _______ _______ _______ _____ _____    ______ ____
ROOT
ATOM      1  N   UNL     1      -3.509  -2.720  -0.666  0.00  0.00    -0.282 N 
ATOM      2  C   UNL     1      -4.219  -2.077   0.342  0.00  0.00    +0.044 A 
ATOM      3  C   UNL     1      -3.817  -1.557   1.567  0.00  0.00    +0.024 A 
ATOM      4  C   UNL     1      -4.739  -0.957   2.401  0.00  0.00    +0.002 A 
ATOM      5  C   UNL     1      -6.070  -0.864   2.030  0.00  0.00    +0.001 A 
ATOM      6  C   UNL     1      -6.487  -1.375   0.818  0.00  0.00    +0.012 A 
ATOM      7  C   UNL     1      -5.566  -1.982  -0.029  0.00  0.00    +0.028 A 
ATOM      8  C   UNL     1      -5.679  -2.616  -1.363  0.00  0.00    +0.153 C 
ATOM      9  N   UNL     1      -6.760  -2.753  -2.093  0.00  0.00    -0.174 NA
ATOM     10  C   UNL     1      -4.309  -3.055  -1.694  0.00  0.00    +0.270 C 
ATOM     11  O   UNL     1      -3.965  -3.622  -2.714  0.00  0.00    -0.268 OA
ENDROOT
BRANCH   9  12
ATOM     12  N   UNL     1      -6.686  -3.383  -3.342  0.00  0.00    -0.202 N 
ATOM     13  C   UNL     1      -7.796  -3.524  -4.093  0.00  0.00    +0.265 C 
ATOM     14  O   UNL     1      -8.862  -3.104  -3.686  0.00  0.00    -0.268 OA
ATOM     15  H   UNL     1      -5.835  -3.719  -3.667  0.00  0.00    +0.178 HD
BRANCH  13  16
ATOM     16  C   UNL     1      -7.718  -4.189  -5.409  0.00  0.00    +0.057 A 
ATOM     17  C   UNL     1      -6.496  -4.678  -5.876  0.00  0.00    +0.016 A 
ATOM     18  C   UNL     1      -6.430  -5.298  -7.105  0.00  0.00    +0.021 A 
ATOM     19  C   UNL     1      -7.572  -5.436  -7.878  0.00  0.00    +0.042 A 
ATOM     20  C   UNL     1      -8.787  -4.954  -7.422  0.00  0.00    +0.040 A 
ATOM     21  C   UNL     1      -8.868  -4.336  -6.190  0.00  0.00    +0.054 A 
ATOM     22 CL   UNL     1     -10.393  -3.738  -5.615  0.00  0.00    -0.083 Cl
ATOM     23 CL   UNL     1      -7.479  -6.218  -9.425  0.00  0.00    -0.083 Cl
ENDBRANCH  13  16
ENDBRANCH   9  12
BRANCH   1  24
ATOM     24  C   UNL     1      -2.071  -2.993  -0.618  0.00  0.00    +0.039 C 
BRANCH  24  34
ATOM     25  C   UNL     1      -0.142   1.523  -0.839  0.00  0.00    +0.009 C 
ATOM     26  C   UNL     1      -0.069   0.015  -0.559  0.00  0.00    -0.048 C 
ATOM     27  C   UNL     1       0.677  -0.759  -1.681  0.00  0.00    -0.011 C 
ATOM     28  C   UNL     1       0.094  -2.180  -1.438  0.00  0.00    -0.065 C 
ATOM     29  C   UNL     1       0.729  -2.731  -0.176  0.00  0.00    -0.009 C 
ATOM     30  C   UNL     1       0.851  -1.790   1.002  0.00  0.00    -0.036 C 
ATOM     31  C   UNL     1       0.657  -0.309   0.747  0.00  0.00    +0.011 C 
ATOM     32  C   UNL     1      -0.109  -2.240   2.119  0.00  0.00    +0.011 C 
ATOM     33  C   UNL     1       2.282  -1.966   1.577  0.00  0.00    +0.011 C 
ATOM     34  N   UNL     1      -1.348  -1.910  -1.272  0.00  0.00    +0.393 N 
ATOM     35  C   UNL     1      -1.466  -0.645  -0.522  0.00  0.00    -0.070 C 
ATOM     36  H   UNL     1      -1.754  -1.763  -2.200  0.00  0.00    -0.079 HD
ENDBRANCH  24  34
ENDBRANCH   1  24
TORSDOF 4
