REMARK  Name = ZINC00985840
REMARK  11 active torsions:
REMARK  status: ('A' for Active; 'I' for Inactive)
REMARK    1  A    between atoms: C_1  and  C_2
REMARK    2  A    between atoms: C_2  and  C_3
REMARK    3  A    between atoms: C_2  and  C_4
REMARK    4  A    between atoms: C_4  and  C_5
REMARK    5  A    between atoms: C_8  and  C_11
REMARK    6  A    between atoms: C_18  and  N_39
REMARK    7  A    between atoms: C_19  and  C_37
REMARK    8  A    between atoms: C_20  and  C_22
REMARK    9  A    between atoms: C_25  and  O_28
REMARK   10  A    between atoms: O_28  and  C_29
REMARK   11  A    between atoms: C_29  and  C_31
REMARK                            x       y       z     vdW  Elec       q    Type
REMARK                         _______ _______ _______ _____ _____    ______ ____
ROOT
ATOM      1  C   UNL     1      -1.399  -6.339  -0.486  0.00  0.00    +0.100 A 
ATOM      2  C   UNL     1      -0.613  -7.198   0.288  0.00  0.00    +0.054 A 
ATOM      3  C   UNL     1      -0.858  -8.477  -0.120  0.00  0.00    +0.223 A 
ATOM      4  N   UNL     1      -1.766  -8.424  -1.116  0.00  0.00    -0.246 N 
ATOM      5  H   UNL     1      -2.130  -9.184  -1.597  0.00  0.00    +0.192 HD
ATOM      6  N   UNL     1      -2.097  -7.077  -1.329  0.00  0.00    -0.171 NA
ATOM      7  O   UNL     1      -0.246  -9.553   0.436  0.00  0.00    -0.423 OA
ATOM      8  C   UNL     1       0.824  -9.324   1.225  0.00  0.00    +0.200 C 
ATOM      9  C   UNL     1       1.160  -8.105   1.701  0.00  0.00    +0.098 C 
ATOM     10  C   UNL     1       0.355  -6.867   1.395  0.00  0.00    +0.102 C 
ENDROOT
BRANCH   1  14
ATOM     11  C   UNL     1      -1.527  -2.100  -0.173  0.00  0.00    -0.047 A 
ATOM     12  C   UNL     1      -0.314  -2.760  -0.100  0.00  0.00    +0.004 A 
ATOM     13  C   UNL     1      -0.266  -4.136  -0.201  0.00  0.00    +0.010 A 
ATOM     14  C   UNL     1      -1.443  -4.860  -0.377  0.00  0.00    +0.003 A 
ATOM     15  C   UNL     1      -2.663  -4.190  -0.450  0.00  0.00    +0.010 A 
ATOM     16  C   UNL     1      -2.699  -2.814  -0.342  0.00  0.00    +0.004 A 
BRANCH  11  17
ATOM     17  C   UNL     1      -1.572  -0.598  -0.061  0.00  0.00    +0.038 C 
BRANCH  17  19
ATOM     18  C   UNL     1      -1.649   1.323   1.535  0.00  0.00    +0.007 C 
ATOM     19  C   UNL     1      -1.727  -0.200   1.408  0.00  0.00    -0.013 C 
ATOM     20  C   UNL     1      -3.082  -0.686   1.928  0.00  0.00    +0.007 C 
ENDBRANCH  17  19
ENDBRANCH  11  17
ENDBRANCH   1  14
BRANCH  10  21
ATOM     21  C   UNL     1      -0.405  -6.437   2.623  0.00  0.00    -0.034 A 
ATOM     22  C   UNL     1      -1.294  -7.309   3.225  0.00  0.00    +0.008 A 
ATOM     23  C   UNL     1      -1.992  -6.917   4.351  0.00  0.00    +0.046 A 
ATOM     24  C   UNL     1      -1.800  -5.648   4.878  0.00  0.00    +0.132 A 
ATOM     25  C   UNL     1      -0.907  -4.776   4.273  0.00  0.00    +0.046 A 
ATOM     26  C   UNL     1      -0.207  -5.174   3.150  0.00  0.00    +0.008 A 
BRANCH  24  27
ATOM     27  O   UNL     1      -2.485  -5.260   5.986  0.00  0.00    -0.422 OA
BRANCH  27  28
ATOM     28  C   UNL     1      -2.058  -5.707   7.183  0.00  0.00    +0.344 C 
ATOM     29  O   UNL     1      -1.143  -6.503   7.243  0.00  0.00    -0.245 OA
BRANCH  28  30
ATOM     30  C   UNL     1      -2.703  -5.228   8.423  0.00  0.00    +0.059 A 
ATOM     31  C   UNL     1      -3.759  -4.317   8.357  0.00  0.00    +0.015 A 
ATOM     32  C   UNL     1      -4.356  -3.874   9.519  0.00  0.00    +0.001 A 
ATOM     33  C   UNL     1      -3.911  -4.330  10.747  0.00  0.00    +0.000 A 
ATOM     34  C   UNL     1      -2.865  -5.233  10.819  0.00  0.00    +0.001 A 
ATOM     35  C   UNL     1      -2.262  -5.689   9.665  0.00  0.00    +0.015 A 
ENDBRANCH  28  30
ENDBRANCH  27  28
ENDBRANCH  24  27
ENDBRANCH  10  21
BRANCH   8  36
ATOM     36  N   UNL     1       1.618 -10.392   1.563  0.00  0.00    -0.328 N 
ATOM     37  H   UNL     1       1.402 -11.280   1.236  0.00  0.00    +0.145 HD
ATOM     38  H   UNL     1       2.394 -10.259   2.129  0.00  0.00    +0.145 HD
ENDBRANCH   8  36
BRANCH   9  39
ATOM     39  C   UNL     1       2.323  -7.984   2.528  0.00  0.00    +0.101 C 
ATOM     40  N   UNL     1       3.246  -7.888   3.183  0.00  0.00    -0.191 NA
ENDBRANCH   9  39
TORSDOF 9
