REMARK  Name = ZINC36390073
REMARK  8 active torsions:
REMARK  status: ('A' for Active; 'I' for Inactive)
REMARK    1  A    between atoms: C_1  and  C_2
REMARK    2  A    between atoms: C_2  and  C_3
REMARK    3  A    between atoms: C_2  and  N_13
REMARK    4  A    between atoms: C_6  and  S_9
REMARK    5  A    between atoms: S_9  and  N_12
REMARK    6  A    between atoms: C_14  and  C_16
REMARK    7  A    between atoms: C_16  and  N_17
REMARK    8  A    between atoms: C_21  and  C_22
REMARK                            x       y       z     vdW  Elec       q    Type
REMARK                         _______ _______ _______ _____ _____    ______ ____
ROOT
ATOM      1  N   UNL     1      -1.372  -0.511   0.012  0.00  0.00    -0.310 N 
ATOM      2  C   UNL     1      -2.029  -0.655   1.181  0.00  0.00    +0.197 C 
ATOM      3  O   UNL     1      -1.481  -0.365   2.224  0.00  0.00    -0.278 OA
ATOM      4  H   UNL     1      -1.810  -0.743  -0.822  0.00  0.00    +0.149 HD
ENDROOT
BRANCH   1   6
ATOM      5  C   UNL     1      -0.019   1.526   0.010  0.00  0.00    +0.033 C 
ATOM      6  C   UNL     1       0.002  -0.004   0.002  0.00  0.00    +0.100 C 
BRANCH   6   7
ATOM      7  C   UNL     1       0.707  -0.490  -1.238  0.00  0.00    -0.027 A 
ATOM      8  C   UNL     1       0.038  -0.522  -2.447  0.00  0.00    +0.007 A 
ATOM      9  C   UNL     1       0.685  -0.967  -3.584  0.00  0.00    +0.029 A 
ATOM     10  C   UNL     1       2.002  -1.381  -3.513  0.00  0.00    +0.105 A 
ATOM     11  C   UNL     1       2.672  -1.349  -2.304  0.00  0.00    +0.029 A 
ATOM     12  C   UNL     1       2.026  -0.899  -1.167  0.00  0.00    +0.007 A 
BRANCH  10  13
ATOM     13  S   UNL     1       2.826  -1.951  -4.962  0.00  0.00    +0.056 S 
ATOM     14  O   UNL     1       3.882  -2.794  -4.524  0.00  0.00    -0.153 OA
ATOM     15  O   UNL     1       1.815  -2.397  -5.855  0.00  0.00    -0.153 OA
BRANCH  13  16
ATOM     16  N   UNL     1       3.535  -0.633  -5.671  0.00  0.00    -0.204 NA
ATOM     17  H   UNL     1       3.443   0.244  -5.267  0.00  0.00    +0.144 HD
ATOM     18  H   UNL     1       4.043  -0.738  -6.491  0.00  0.00    +0.144 HD
ENDBRANCH  13  16
ENDBRANCH  10  13
ENDBRANCH   6   7
ENDBRANCH   1   6
BRANCH   2  19
ATOM     19  C   UNL     1      -3.442  -1.177   1.191  0.00  0.00    +0.019 C 
BRANCH  19  20
ATOM     20  N   UNL     1      -3.930  -1.240   2.575  0.00  0.00    +0.390 N 
ATOM     21  C   UNL     1      -3.159  -2.247   3.328  0.00  0.00    -0.077 C 
ATOM     22  C   UNL     1      -4.162  -3.300   3.843  0.00  0.00    -0.020 C 
ATOM     23  C   UNL     1      -5.510  -2.531   3.838  0.00  0.00    -0.013 C 
ATOM     24  C   UNL     1      -5.355  -1.637   2.583  0.00  0.00    -0.037 C 
ATOM     25  H   UNL     1      -3.826  -0.338   3.015  0.00  0.00    -0.080 HD
BRANCH  24  26
ATOM     26  C   UNL     1      -6.237  -0.420   2.694  0.00  0.00    -0.057 A 
ATOM     27  C   UNL     1      -5.874   0.621   3.529  0.00  0.00    +0.006 A 
ATOM     28  C   UNL     1      -6.678   1.741   3.636  0.00  0.00    +0.049 A 
ATOM     29  C   UNL     1      -7.850   1.817   2.902  0.00  0.00    +0.162 A 
ATOM     30  C   UNL     1      -8.215   0.772   2.064  0.00  0.00    +0.162 A 
ATOM     31  C   UNL     1      -7.405  -0.345   1.956  0.00  0.00    +0.051 A 
ATOM     32  O   UNL     1      -9.371   0.857   1.345  0.00  0.00    -0.488 OA
ATOM     33  C   UNL     1     -10.583   0.812   2.102  0.00  0.00    +0.232 C 
ATOM     34  C   UNL     1     -10.941   2.193   2.629  0.00  0.00    +0.082 C 
ATOM     35  C   UNL     1      -9.919   2.714   3.627  0.00  0.00    +0.232 C 
ATOM     36  O   UNL     1      -8.653   2.917   2.997  0.00  0.00    -0.488 OA
ENDBRANCH  24  26
ENDBRANCH  19  20
ENDBRANCH   2  19
TORSDOF 7
