REMARK  Name = ZINC02520386
REMARK  9 active torsions:
REMARK  status: ('A' for Active; 'I' for Inactive)
REMARK    1  A    between atoms: C_1  and  C_2
REMARK    2  A    between atoms: C_2  and  O_3
REMARK    3  A    between atoms: O_3  and  C_4
REMARK    4  A    between atoms: C_4  and  C_6
REMARK    5  A    between atoms: C_10  and  N_11
REMARK    6  A    between atoms: C_12  and  C_14
REMARK    7  A    between atoms: N_16  and  N_17
REMARK    8  A    between atoms: C_18  and  C_19
REMARK    9  A    between atoms: C_34  and  C_38
REMARK                            x       y       z     vdW  Elec       q    Type
REMARK                         _______ _______ _______ _____ _____    ______ ____
ROOT
ATOM      1  C   UNL     1       1.176   4.151  -4.907  0.00  0.00    +0.318 C 
ATOM      2  O   UNL     1       1.114   2.956  -5.117  0.00  0.00    -0.263 OA
ATOM      3  N   UNL     1       1.214   5.015  -5.940  0.00  0.00    -0.199 N 
ATOM      4  H   UNL     1       1.264   5.969  -5.772  0.00  0.00    +0.178 HD
ENDROOT
BRANCH   1   6
ATOM      5  N   UNL     1       1.172   3.796  -2.474  0.00  0.00    -0.271 N 
ATOM      6  C   UNL     1       1.210   4.660  -3.507  0.00  0.00    +0.305 C 
ATOM      7  O   UNL     1       1.272   5.854  -3.297  0.00  0.00    -0.265 OA
ATOM      8  H   UNL     1       1.122   2.841  -2.642  0.00  0.00    +0.156 HD
BRANCH   5  13
ATOM      9  C   UNL     1       1.173   3.543   0.010  0.00  0.00    +0.091 A 
ATOM     10  C   UNL     1       1.212   4.289   1.255  0.00  0.00    -0.021 A 
ATOM     11  C   UNL     1       1.286   5.631   1.120  0.00  0.00    -0.004 A 
ATOM     12  S   UNL     1       1.290   5.911  -0.628  0.00  0.00    -0.077 S 
ATOM     13  C   UNL     1       1.203   4.269  -1.175  0.00  0.00    +0.087 A 
ATOM     14  C   UNL     1       1.346   6.648   2.218  0.00  0.00    +0.046 C 
ATOM     15  C   UNL     1       1.678   5.927   3.529  0.00  0.00    -0.009 C 
ATOM     16  C   UNL     1       0.777   4.696   3.665  0.00  0.00    +0.008 C 
ATOM     17  C   UNL     1       1.179   3.640   2.634  0.00  0.00    +0.037 C 
ATOM     18  C   UNL     1       1.441   6.869   4.711  0.00  0.00    +0.008 C 
BRANCH   9  19
ATOM     19  C   UNL     1       1.098   2.080   0.003  0.00  0.00    +0.342 C 
ATOM     20  O   UNL     1       2.119   1.419  -0.006  0.00  0.00    -0.245 OA
BRANCH  19  21
ATOM     21  O   UNL     1      -0.103   1.466   0.005  0.00  0.00    -0.461 OA
BRANCH  21  23
ATOM     22  C   UNL     1      -1.543  -0.498   0.003  0.00  0.00    +0.048 C 
ATOM     23  C   UNL     1      -0.101   0.014  -0.002  0.00  0.00    +0.229 C 
ENDBRANCH  21  23
ENDBRANCH  19  21
ENDBRANCH   9  19
ENDBRANCH   5  13
ENDBRANCH   1   6
BRANCH   3  24
ATOM     24  N   UNL     1       1.182   4.536  -7.256  0.00  0.00    -0.187 NA
ATOM     25  C   UNL     1       1.219   5.372  -8.255  0.00  0.00    +0.139 C 
BRANCH  25  26
ATOM     26  C   UNL     1       1.186   4.871  -9.631  0.00  0.00    +0.010 A 
ATOM     27  C   UNL     1       1.097   5.769 -10.715  0.00  0.00    -0.009 A 
ATOM     28  C   UNL     1       1.051   7.158 -10.505  0.00  0.00    +0.009 A 
ATOM     29  C   UNL     1       0.972   7.997 -11.573  0.00  0.00    +0.001 A 
ATOM     30  C   UNL     1       0.940   7.515 -12.881  0.00  0.00    +0.001 A 
ATOM     31  C   UNL     1       0.987   6.185 -13.152  0.00  0.00    +0.008 A 
ATOM     32  C   UNL     1       1.069   5.261 -12.088  0.00  0.00    -0.017 A 
ATOM     33  C   UNL     1       1.119   3.888 -12.332  0.00  0.00    +0.017 A 
ATOM     34  C   UNL     1       1.201   2.992 -11.265  0.00  0.00    -0.017 A 
ATOM     35  C   UNL     1       1.236   3.485  -9.887  0.00  0.00    -0.009 A 
ATOM     36  C   UNL     1       1.319   2.555  -8.836  0.00  0.00    +0.009 A 
ATOM     37  C   UNL     1       1.366   1.225  -9.117  0.00  0.00    +0.001 A 
ATOM     38  C   UNL     1       1.333   0.753 -10.428  0.00  0.00    +0.001 A 
ATOM     39  C   UNL     1       1.253   1.599 -11.488  0.00  0.00    +0.008 A 
ENDBRANCH  25  26
ENDBRANCH   3  24
TORSDOF 7
