REMARK  Name = ZINC64796099
REMARK  10 active torsions:
REMARK  status: ('A' for Active; 'I' for Inactive)
REMARK    1  A    between atoms: C_1  and  C_2
REMARK    2  A    between atoms: C_2  and  O_3
REMARK    3  A    between atoms: O_3  and  C_4
REMARK    4  A    between atoms: C_6  and  C_15
REMARK    5  A    between atoms: C_9  and  O_10
REMARK    6  A    between atoms: O_10  and  C_11
REMARK    7  A    between atoms: C_11  and  C_12
REMARK    8  A    between atoms: C_24  and  C_33
REMARK    9  A    between atoms: C_25  and  C_26
REMARK   10  A    between atoms: C_29  and  C_32
REMARK                            x       y       z     vdW  Elec       q    Type
REMARK                         _______ _______ _______ _____ _____    ______ ____
ROOT
ATOM      1  C   UNL     1      -0.217  -4.963  -0.535  0.00  0.00    +0.066 C 
ATOM      2  C   UNL     1       0.888  -5.841  -1.135  0.00  0.00    +0.109 C 
ATOM      3  C   UNL     1       0.296  -7.024  -1.846  0.00  0.00    +0.218 C 
ATOM      4  O   UNL     1       0.811  -7.398  -2.879  0.00  0.00    -0.275 OA
ATOM      5  N   UNL     1      -0.780  -7.687  -1.389  0.00  0.00    -0.284 N 
ATOM      6  C   UNL     1      -1.510  -7.141  -0.295  0.00  0.00    +0.053 A 
ATOM      7  C   UNL     1      -1.235  -5.859   0.104  0.00  0.00    +0.020 A 
ATOM      8  S   UNL     1      -2.243  -5.550   1.393  0.00  0.00    -0.084 S 
ATOM      9  C   UNL     1      -3.118  -7.103   1.447  0.00  0.00    +0.110 A 
ATOM     10  C   UNL     1      -2.516  -7.812   0.398  0.00  0.00    +0.025 A 
ATOM     11  H   UNL     1      -1.054  -8.524  -1.796  0.00  0.00    +0.155 HD
ENDROOT
BRANCH  10  12
ATOM     12  C   UNL     1      -2.926  -9.191   0.045  0.00  0.00    -0.015 A 
ATOM     13  C   UNL     1      -3.514  -9.451  -1.193  0.00  0.00    +0.009 A 
ATOM     14  C   UNL     1      -3.893 -10.738  -1.516  0.00  0.00    +0.004 A 
ATOM     15  C   UNL     1      -3.692 -11.768  -0.615  0.00  0.00    -0.050 A 
ATOM     16  C   UNL     1      -3.109 -11.516   0.614  0.00  0.00    +0.004 A 
ATOM     17  C   UNL     1      -2.720 -10.235   0.947  0.00  0.00    +0.009 A 
ATOM     18  C   UNL     1      -4.109 -13.171  -0.974  0.00  0.00    +0.044 C 
ENDBRANCH  10  12
BRANCH   1  21
ATOM     19  C   UNL     1       0.802  -1.825   1.306  0.00  0.00    +0.162 A 
ATOM     20  C   UNL     1       0.261  -2.673   0.353  0.00  0.00    +0.053 A 
ATOM     21  C   UNL     1       0.372  -4.043   0.502  0.00  0.00    -0.035 A 
ATOM     22  C   UNL     1       1.024  -4.570   1.602  0.00  0.00    +0.008 A 
ATOM     23  C   UNL     1       1.566  -3.730   2.557  0.00  0.00    +0.050 A 
ATOM     24  C   UNL     1       1.462  -2.356   2.410  0.00  0.00    +0.163 A 
BRANCH  19  25
ATOM     25  O   UNL     1       0.693  -0.477   1.160  0.00  0.00    -0.489 OA
BRANCH  25  27
ATOM     26  C   UNL     1      -0.019   1.526   0.010  0.00  0.00    +0.048 C 
ATOM     27  C   UNL     1       0.002  -0.004   0.002  0.00  0.00    +0.226 C 
ENDBRANCH  25  27
ENDBRANCH  19  25
BRANCH  24  28
ATOM     28  O   UNL     1       2.000  -1.528   3.345  0.00  0.00    -0.479 OA
BRANCH  28  29
ATOM     29  C   UNL     1       2.664  -2.143   4.451  0.00  0.00    +0.324 C 
BRANCH  29  30
ATOM     30  C   UNL     1       3.191  -1.077   5.376  0.00  0.00    +0.248 C 
ATOM     31  O   UNL     1       3.017   0.094   5.114  0.00  0.00    -0.272 OA
ATOM     32  N   UNL     1       3.857  -1.425   6.495  0.00  0.00    -0.327 N 
ATOM     33  H   UNL     1       3.997  -2.361   6.705  0.00  0.00    +0.145 HD
ATOM     34  H   UNL     1       4.197  -0.739   7.090  0.00  0.00    +0.145 HD
ENDBRANCH  29  30
ENDBRANCH  28  29
ENDBRANCH  24  28
ENDBRANCH   1  21
BRANCH   9  35
ATOM     35  C   UNL     1      -4.149  -7.514   2.322  0.00  0.00    +0.394 C 
ATOM     36  O   UNL     1      -4.554  -6.752   3.192  0.00  0.00    -0.240 OA
ATOM     37  O   UNL     1      -4.638  -8.632   2.210  0.00  0.00    -0.240 OA
ENDBRANCH   9  35
TORSDOF 8
