REMARK  Name = ZINC05865048
REMARK  7 active torsions:
REMARK  status: ('A' for Active; 'I' for Inactive)
REMARK    1  A    between atoms: C_1  and  C_2
REMARK    2  A    between atoms: C_3  and  O_27
REMARK    3  A    between atoms: C_12  and  C_13
REMARK    4  A    between atoms: C_13  and  S_14
REMARK    5  A    between atoms: S_14  and  C_15
REMARK    6  A    between atoms: C_18  and  C_26
REMARK    7  A    between atoms: N_19  and  C_20
REMARK                            x       y       z     vdW  Elec       q    Type
REMARK                         _______ _______ _______ _____ _____    ______ ____
ROOT
ATOM      1  C   UNL     1       3.407   3.797  -0.011  0.00  0.00    +0.051 C 
ATOM      2  C   UNL     1       3.488   2.292  -0.019  0.00  0.00    +0.034 A 
ATOM      3  C   UNL     1       4.723   1.663  -0.034  0.00  0.00    +0.123 A 
ATOM      4  C   UNL     1       4.808   0.272  -0.043  0.00  0.00    +0.046 A 
ATOM      5  C   UNL     1       3.676  -0.490  -0.036  0.00  0.00    +0.015 A 
ATOM      6  C   UNL     1       2.421   0.129  -0.021  0.00  0.00    +0.022 A 
ATOM      7  C   UNL     1       2.328   1.533  -0.012  0.00  0.00    +0.146 A 
ATOM      8  O   UNL     1       1.115   2.126   0.003  0.00  0.00    -0.422 OA
ATOM      9  C   UNL     1      -0.017   1.406   0.010  0.00  0.00    +0.338 A 
ATOM     10  O   UNL     1      -1.089   1.985   0.018  0.00  0.00    -0.245 OA
ATOM     11  C   UNL     1       0.002  -0.004   0.002  0.00  0.00    +0.097 A 
ATOM     12  C   UNL     1       1.190  -0.664  -0.013  0.00  0.00    -0.020 A 
ENDROOT
BRANCH   3  13
ATOM     13  O   UNL     1       5.858   2.407  -0.042  0.00  0.00    -0.506 OA
ATOM     14  H   UNL     1       6.195   2.618   0.840  0.00  0.00    +0.292 HD
ENDBRANCH   3  13
BRANCH  12  15
ATOM     15  C   UNL     1       1.238  -2.170  -0.022  0.00  0.00    +0.113 C 
BRANCH  15  16
ATOM     16  S   UNL     1       1.242  -2.763  -1.732  0.00  0.00    -0.081 S 
BRANCH  16  17
ATOM     17  C   UNL     1       1.300  -4.502  -1.452  0.00  0.00    +0.192 A 
ATOM     18  N   UNL     1       1.330  -5.104  -0.286  0.00  0.00    -0.122 NA
ATOM     19  N   UNL     1       1.370  -6.378  -0.454  0.00  0.00    -0.134 NA
ATOM     20  C   UNL     1       1.368  -6.662  -1.726  0.00  0.00    +0.131 A 
ATOM     21  N   UNL     1       1.317  -5.478  -2.408  0.00  0.00    -0.303 N 
ATOM     22  C   UNL     1       1.407  -8.041  -2.333  0.00  0.00    +0.088 C 
BRANCH  21  23
ATOM     23  C   UNL     1       1.291  -5.294  -3.861  0.00  0.00    +0.091 C 
ATOM     24  C   UNL     1       2.510  -4.476  -4.293  0.00  0.00    +0.025 C 
ATOM     25  C   UNL     1       2.482  -4.283  -5.811  0.00  0.00    +0.002 C 
ATOM     26  C   UNL     1       1.203  -3.543  -6.208  0.00  0.00    +0.000 C 
ATOM     27  C   UNL     1      -0.015  -4.361  -5.775  0.00  0.00    +0.002 C 
ATOM     28  C   UNL     1       0.013  -4.553  -4.258  0.00  0.00    +0.025 C 
ENDBRANCH  21  23
ENDBRANCH  16  17
ENDBRANCH  15  16
ENDBRANCH  12  15
TORSDOF 5
