REMARK  Name = ZINC36494145
REMARK  15 active torsions:
REMARK  status: ('A' for Active; 'I' for Inactive)
REMARK    1  A    between atoms: C_1  and  C_2
REMARK    2  A    between atoms: C_2  and  C_3
REMARK    3  A    between atoms: C_2  and  C_4
REMARK    4  A    between atoms: C_2  and  N_5
REMARK    5  A    between atoms: C_6  and  C_8
REMARK    6  A    between atoms: C_8  and  C_10
REMARK    7  A    between atoms: C_8  and  N_19
REMARK    8  A    between atoms: C_11  and  O_18
REMARK    9  A    between atoms: C_13  and  O_17
REMARK   10  A    between atoms: C_15  and  O_16
REMARK   11  A    between atoms: N_19  and  C_20
REMARK   12  A    between atoms: C_20  and  C_21
REMARK   13  A    between atoms: C_26  and  C_28
REMARK   14  A    between atoms: C_33  and  O_34
REMARK   15  A    between atoms: O_34  and  C_35
REMARK                            x       y       z     vdW  Elec       q    Type
REMARK                         _______ _______ _______ _____ _____    ______ ____
ROOT
ATOM      1  C   UNL     1       4.605  -1.430  -3.188  0.00  0.00    +0.200 C 
ENDROOT
BRANCH   1   2
ATOM      2  C   UNL     1       5.040  -1.695  -4.607  0.00  0.00    +0.065 A 
ATOM      3  C   UNL     1       6.368  -1.982  -4.883  0.00  0.00    +0.129 A 
ATOM      4  C   UNL     1       6.768  -2.225  -6.188  0.00  0.00    +0.091 A 
ATOM      5  C   UNL     1       5.840  -2.181  -7.217  0.00  0.00    +0.124 A 
ATOM      6  C   UNL     1       4.511  -1.895  -6.941  0.00  0.00    +0.091 A 
ATOM      7  C   UNL     1       4.111  -1.656  -5.635  0.00  0.00    +0.129 A 
BRANCH   7   8
ATOM      8  O   UNL     1       2.808  -1.380  -5.364  0.00  0.00    -0.506 OA
ATOM      9  H   UNL     1       2.590  -0.438  -5.397  0.00  0.00    +0.292 HD
ENDBRANCH   7   8
BRANCH   5  10
ATOM     10  O   UNL     1       6.232  -2.419  -8.497  0.00  0.00    -0.507 OA
ATOM     11  H   UNL     1       6.183  -3.349  -8.757  0.00  0.00    +0.292 HD
ENDBRANCH   5  10
BRANCH   3  12
ATOM     12  O   UNL     1       7.278  -2.025  -3.874  0.00  0.00    -0.506 OA
ATOM     13  H   UNL     1       7.325  -2.879  -3.423  0.00  0.00    +0.292 HD
ENDBRANCH   3  12
ENDBRANCH   1   2
BRANCH   1  15
ATOM     14  N   UNL     1       2.496  -2.675  -2.842  0.00  0.00    -0.309 N 
ATOM     15  C   UNL     1       3.102  -1.500  -3.102  0.00  0.00    +0.239 C 
ATOM     16  O   UNL     1       2.438  -0.498  -3.267  0.00  0.00    -0.273 OA
ATOM     17  H   UNL     1       3.026  -3.476  -2.711  0.00  0.00    +0.149 HD
BRANCH  14  19
ATOM     18  C   UNL     1       0.426  -2.299  -4.091  0.00  0.00    +0.031 C 
ATOM     19  C   UNL     1       1.035  -2.742  -2.759  0.00  0.00    +0.026 C 
ATOM     20  C   UNL     1       0.545  -1.819  -1.642  0.00  0.00    +0.031 C 
ATOM     21  C   UNL     1       0.607  -4.180  -2.456  0.00  0.00    +0.031 C 
ENDBRANCH  14  19
ENDBRANCH   1  15
BRANCH   1  22
ATOM     22  N   UNL     1       5.057  -0.098  -2.779  0.00  0.00    -0.274 N 
ATOM     23  C   UNL     1       5.099   0.227  -1.472  0.00  0.00    +0.251 C 
ATOM     24  O   UNL     1       5.060   1.395  -1.134  0.00  0.00    -0.270 OA
BRANCH  23  25
ATOM     25  C   UNL     1       5.194  -0.833  -0.451  0.00  0.00    +0.078 A 
ATOM     26  C   UNL     1       4.416  -1.988  -0.563  0.00  0.00    +0.017 A 
ATOM     27  C   UNL     1       4.510  -2.975   0.394  0.00  0.00    +0.001 A 
ATOM     28  C   UNL     1       5.371  -2.828   1.469  0.00  0.00    +0.004 A 
ATOM     29  C   UNL     1       6.145  -1.691   1.592  0.00  0.00    +0.046 A 
ATOM     30  C   UNL     1       6.068  -0.690   0.635  0.00  0.00    +0.132 A 
BRANCH  30  31
ATOM     31  O   UNL     1       6.832   0.425   0.752  0.00  0.00    -0.494 OA
ATOM     32  C   UNL     1       7.699   0.501   1.885  0.00  0.00    +0.277 C 
ENDBRANCH  30  31
ENDBRANCH  23  25
BRANCH  22  33
ATOM     33  C   UNL     1       5.462   0.881  -3.791  0.00  0.00    +0.183 C 
BRANCH  33  34
ATOM     34  C   UNL     1       4.562   2.087  -3.713  0.00  0.00    +0.122 A 
ATOM     35  C   UNL     1       4.696   3.114  -2.855  0.00  0.00    +0.046 A 
ATOM     36  C   UNL     1       3.643   4.017  -3.129  0.00  0.00    +0.041 A 
ATOM     37  C   UNL     1       2.928   3.487  -4.138  0.00  0.00    +0.195 A 
ATOM     38  O   UNL     1       3.493   2.320  -4.492  0.00  0.00    -0.466 OA
ENDBRANCH  33  34
ENDBRANCH  22  33
ENDBRANCH   1  22
TORSDOF 11
