REMARK  Name = ZINC35646622
REMARK  13 active torsions:
REMARK  status: ('A' for Active; 'I' for Inactive)
REMARK    1  A    between atoms: C_1  and  C_2
REMARK    2  A    between atoms: C_2  and  N_3
REMARK    3  A    between atoms: C_4  and  C_24
REMARK    4  A    between atoms: C_5  and  C_19
REMARK    5  A    between atoms: C_6  and  C_11
REMARK    6  A    between atoms: C_14  and  C_18
REMARK    7  A    between atoms: C_16  and  C_17
REMARK    8  A    between atoms: C_19  and  O_21
REMARK    9  A    between atoms: O_21  and  C_22
REMARK   10  A    between atoms: C_22  and  C_23
REMARK   11  A    between atoms: C_24  and  N_25
REMARK   12  A    between atoms: C_32  and  C_34
REMARK   13  A    between atoms: C_37  and  C_40
REMARK                            x       y       z     vdW  Elec       q    Type
REMARK                         _______ _______ _______ _____ _____    ______ ____
ROOT
ATOM      1  N   UNL     1      -1.502  -0.151  -0.311  0.00  0.00    -0.261 N 
ATOM      2  C   UNL     1      -1.953  -0.715   0.848  0.00  0.00    +0.010 C 
ATOM      3  C   UNL     1      -3.098  -1.430   0.876  0.00  0.00    +0.076 C 
ATOM      4  C   UNL     1      -3.864  -1.586  -0.422  0.00  0.00    +0.144 C 
ATOM      5  N   UNL     1      -3.293  -0.940  -1.615  0.00  0.00    -0.288 N 
ATOM      6  C   UNL     1      -2.141  -0.253  -1.483  0.00  0.00    +0.307 C 
ATOM      7  O   UNL     1      -1.663   0.288  -2.462  0.00  0.00    -0.252 OA
ATOM      8  H   UNL     1      -3.737  -1.004  -2.475  0.00  0.00    +0.151 HD
ENDROOT
BRANCH   4   9
ATOM      9  C   UNL     1      -3.995  -3.059  -0.710  0.00  0.00    -0.020 A 
ATOM     10  C   UNL     1      -3.149  -3.962  -0.093  0.00  0.00    +0.006 A 
ATOM     11  C   UNL     1      -3.269  -5.314  -0.357  0.00  0.00    +0.004 A 
ATOM     12  C   UNL     1      -4.235  -5.762  -1.239  0.00  0.00    -0.050 A 
ATOM     13  C   UNL     1      -5.081  -4.860  -1.855  0.00  0.00    +0.007 A 
ATOM     14  C   UNL     1      -4.964  -3.509  -1.587  0.00  0.00    -0.045 A 
ATOM     15  C   UNL     1      -5.890  -2.525  -2.255  0.00  0.00    +0.044 C 
ATOM     16  C   UNL     1      -4.365  -7.236  -1.528  0.00  0.00    +0.044 C 
ENDBRANCH   4   9
BRANCH   1  18
ATOM     17  C   UNL     1      -0.567   2.094  -0.056  0.00  0.00    +0.025 C 
ATOM     18  C   UNL     1      -0.253   0.612  -0.268  0.00  0.00    +0.111 C 
ENDBRANCH   1  18
BRANCH   3  19
ATOM     19  C   UNL     1      -3.566  -2.015   2.076  0.00  0.00    +0.339 C 
ATOM     20  O   UNL     1      -2.972  -1.820   3.120  0.00  0.00    -0.245 OA
BRANCH  19  21
ATOM     21  O   UNL     1      -4.671  -2.789   2.064  0.00  0.00    -0.462 OA
BRANCH  21  22
ATOM     22  C   UNL     1      -5.150  -3.257   3.326  0.00  0.00    +0.229 C 
ATOM     23  C   UNL     1      -6.325  -4.211   3.104  0.00  0.00    +0.048 C 
ENDBRANCH  21  22
ENDBRANCH  19  21
ENDBRANCH   3  19
BRANCH   2  24
ATOM     24  C   UNL     1      -1.160  -0.535   2.117  0.00  0.00    -0.026 C 
BRANCH  24  25
ATOM     25  N   UNL     1      -0.357  -1.739   2.367  0.00  0.00    +0.384 N 
ATOM     26  C   UNL     1       0.192  -1.655   3.719  0.00  0.00    -0.077 C 
ATOM     27  C   UNL     1       0.376  -3.051   4.271  0.00  0.00    +0.000 C 
ATOM     28  C   UNL     1       1.813  -3.528   3.990  0.00  0.00    +0.106 C 
ATOM     29  N   UNL     1       2.257  -3.111   2.644  0.00  0.00    -0.299 N 
ATOM     30  C   UNL     1       1.389  -3.179   1.486  0.00  0.00    +0.089 C 
ATOM     31  C   UNL     1       0.606  -1.854   1.340  0.00  0.00    -0.059 C 
ATOM     32  C   UNL     1       3.514  -2.652   2.488  0.00  0.00    +0.247 C 
ATOM     33  O   UNL     1       3.868  -2.202   1.415  0.00  0.00    -0.270 OA
ATOM     34  H   UNL     1      -0.966  -2.542   2.323  0.00  0.00    -0.081 HD
BRANCH  32  35
ATOM     35  C   UNL     1       4.463  -2.695   3.621  0.00  0.00    +0.037 A 
ATOM     36  C   UNL     1       4.436  -3.764   4.518  0.00  0.00    +0.013 A 
ATOM     37  C   UNL     1       5.324  -3.799   5.572  0.00  0.00    +0.004 A 
ATOM     38  C   UNL     1       6.241  -2.776   5.743  0.00  0.00    -0.050 A 
ATOM     39  C   UNL     1       6.273  -1.714   4.857  0.00  0.00    +0.004 A 
ATOM     40  C   UNL     1       5.394  -1.670   3.795  0.00  0.00    +0.013 A 
ATOM     41  C   UNL     1       7.208  -2.821   6.897  0.00  0.00    +0.044 C 
ENDBRANCH  32  35
ENDBRANCH  24  25
ENDBRANCH   2  24
TORSDOF 8
