REMARK  Name = ZINC20206172
REMARK  10 active torsions:
REMARK  status: ('A' for Active; 'I' for Inactive)
REMARK    1  A    between atoms: C_1  and  C_2
REMARK    2  A    between atoms: C_2  and  C_3
REMARK    3  A    between atoms: C_2  and  C_4
REMARK    4  A    between atoms: C_2  and  C_5
REMARK    5  A    between atoms: C_8  and  C_11
REMARK    6  A    between atoms: C_11  and  O_13
REMARK    7  A    between atoms: O_13  and  C_14
REMARK    8  A    between atoms: C_17  and  C_20
REMARK    9  A    between atoms: C_31  and  S_32
REMARK   10  A    between atoms: S_32  and  C_35
REMARK                            x       y       z     vdW  Elec       q    Type
REMARK                         _______ _______ _______ _____ _____    ______ ____
ROOT
ATOM      1  C   UNL     1       5.605  -3.297  -5.234  0.00  0.00    +0.132 A 
ATOM      2  C   UNL     1       4.805  -3.590  -6.333  0.00  0.00    +0.047 A 
ATOM      3  C   UNL     1       5.376  -3.812  -7.560  0.00  0.00    +0.011 A 
ATOM      4  C   UNL     1       6.768  -3.743  -7.705  0.00  0.00    -0.024 A 
ATOM      5  C   UNL     1       7.569  -3.446  -6.593  0.00  0.00    +0.011 A 
ATOM      6  C   UNL     1       6.987  -3.221  -5.373  0.00  0.00    +0.047 A 
ENDROOT
BRANCH   4   7
ATOM      7  C   UNL     1       7.384  -3.979  -9.013  0.00  0.00    +0.024 C 
ATOM      8  C   UNL     1       6.866  -4.937  -9.855  0.00  0.00    +0.078 C 
ATOM      9  C   UNL     1       7.350  -5.100 -11.256  0.00  0.00    +0.117 C 
ATOM     10  N   UNL     1       8.582  -4.869 -11.623  0.00  0.00    -0.386 N 
ATOM     11  N   UNL     1       6.343  -5.529 -12.145  0.00  0.00    -0.203 N 
ATOM     12  C   UNL     1       5.254  -6.198 -11.627  0.00  0.00    +0.183 C 
ATOM     13  N   UNL     1       4.990  -6.401 -10.356  0.00  0.00    -0.152 NA
ATOM     14  C   UNL     1       5.798  -5.870  -9.417  0.00  0.00    +0.273 C 
ATOM     15  O   UNL     1       5.654  -6.145  -8.237  0.00  0.00    -0.268 OA
ATOM     16  S   UNL     1       4.396  -6.637 -12.988  0.00  0.00    +0.049 S 
ATOM     17  N   UNL     1       5.341  -5.896 -14.157  0.00  0.00    -0.174 NA
ATOM     18  C   UNL     1       6.320  -5.368 -13.488  0.00  0.00    +0.257 C 
ATOM     19  H   UNL     1       9.211  -4.486 -10.992  0.00  0.00    +0.157 HD
ATOM     20  H   UNL     1       8.867  -5.079 -12.526  0.00  0.00    +0.157 HD
BRANCH  18  21
ATOM     21  S   UNL     1       7.587  -4.462 -14.310  0.00  0.00    +0.026 S 
ATOM     22  O   UNL     1       7.007  -4.064 -15.545  0.00  0.00    -0.167 OA
ATOM     23  O   UNL     1       8.011  -3.490 -13.363  0.00  0.00    -0.167 OA
ATOM     24  C   UNL     1       8.910  -5.669 -14.601  0.00  0.00    +0.203 C 
ENDBRANCH  18  21
ENDBRANCH   4   7
BRANCH   1  25
ATOM     25  O   UNL     1       5.034  -3.078  -4.022  0.00  0.00    -0.422 OA
BRANCH  25  26
ATOM     26  C   UNL     1       4.600  -4.146  -3.325  0.00  0.00    +0.344 C 
ATOM     27  O   UNL     1       4.642  -5.254  -3.822  0.00  0.00    -0.245 OA
BRANCH  26  31
ATOM     28  C   UNL     1       3.085  -3.641   0.610  0.00  0.00    -0.042 A 
ATOM     29  C   UNL     1       3.131  -4.904   0.046  0.00  0.00    +0.005 A 
ATOM     30  C   UNL     1       3.622  -5.075  -1.231  0.00  0.00    +0.015 A 
ATOM     31  C   UNL     1       4.072  -3.970  -1.957  0.00  0.00    +0.059 A 
ATOM     32  C   UNL     1       4.023  -2.698  -1.382  0.00  0.00    +0.015 A 
ATOM     33  C   UNL     1       3.525  -2.541  -0.105  0.00  0.00    +0.005 A 
BRANCH  28  35
ATOM     34  C   UNL     1       1.333  -2.532   1.970  0.00  0.00    +0.015 C 
ATOM     35  C   UNL     1       2.547  -3.462   2.006  0.00  0.00    -0.013 C 
ATOM     36  C   UNL     1       3.632  -2.850   2.895  0.00  0.00    +0.015 C 
ATOM     37  C   UNL     1       2.132  -4.821   2.571  0.00  0.00    +0.015 C 
ENDBRANCH  28  35
ENDBRANCH  26  31
ENDBRANCH  25  26
ENDBRANCH   1  25
TORSDOF 6
