REMARK  Name = ZINC39835786
REMARK  13 active torsions:
REMARK  status: ('A' for Active; 'I' for Inactive)
REMARK    1  A    between atoms: C_1  and  C_2
REMARK    2  A    between atoms: C_2  and  C_3
REMARK    3  A    between atoms: C_3  and  C_4
REMARK    4  A    between atoms: C_4  and  C_5
REMARK    5  A    between atoms: C_5  and  C_7
REMARK    6  A    between atoms: C_5  and  C_9
REMARK    7  A    between atoms: C_7  and  C_8
REMARK    8  A    between atoms: C_9  and  N_10
REMARK    9  A    between atoms: C_14  and  C_15
REMARK   10  A    between atoms: C_16  and  O_26
REMARK   11  A    between atoms: O_26  and  C_27
REMARK   12  A    between atoms: C_31  and  C_34
REMARK   13  A    between atoms: C_32  and  C_33
REMARK                            x       y       z     vdW  Elec       q    Type
REMARK                         _______ _______ _______ _____ _____    ______ ____
ROOT
ATOM      1  C   UNL     1       6.088  -5.181   4.236  0.00  0.00    +0.103 A 
ATOM      2  C   UNL     1       5.893  -5.509   2.877  0.00  0.00    +0.235 A 
ATOM      3  N   UNL     1       6.885  -5.344   2.016  0.00  0.00    -0.194 NA
ATOM      4  C   UNL     1       8.073  -4.874   2.399  0.00  0.00    +0.144 A 
ATOM      5  C   UNL     1       9.090  -4.720   1.440  0.00  0.00    +0.047 A 
ATOM      6  C   UNL     1      10.307  -4.239   1.821  0.00  0.00    +0.005 A 
ATOM      7  C   UNL     1      10.529  -3.906   3.165  0.00  0.00    +0.018 A 
ATOM      8  C   UNL     1       9.539  -4.060   4.073  0.00  0.00    +0.096 A 
ATOM      9  N   UNL     1       8.319  -4.539   3.701  0.00  0.00    -0.268 N 
ATOM     10  C   UNL     1       7.351  -4.677   4.633  0.00  0.00    +0.269 A 
ATOM     11  O   UNL     1       7.561  -4.376   5.795  0.00  0.00    -0.266 OA
ENDROOT
BRANCH   1  16
ATOM     12  N   UNL     1       2.239  -3.290   4.029  0.00  0.00    -0.255 N 
ATOM     13  C   UNL     1       3.475  -3.758   4.005  0.00  0.00    +0.258 C 
ATOM     14  O   UNL     1       4.272  -3.379   3.164  0.00  0.00    -0.269 OA
ATOM     15  C   UNL     1       3.849  -4.718   4.989  0.00  0.00    +0.077 C 
ATOM     16  C   UNL     1       5.045  -5.346   5.178  0.00  0.00    +0.039 C 
ATOM     17  S   UNL     1       2.324  -4.874   5.909  0.00  0.00    -0.061 S 
ATOM     18  C   UNL     1       1.357  -3.706   4.965  0.00  0.00    +0.121 C 
ATOM     19  S   UNL     1      -0.274  -3.235   5.187  0.00  0.00    -0.027 S 
BRANCH  12  20
ATOM     20  C   UNL     1       1.821  -2.301   3.032  0.00  0.00    +0.118 C 
BRANCH  20  21
ATOM     21  C   UNL     1       2.102  -0.893   3.560  0.00  0.00    +0.007 C 
BRANCH  21  22
ATOM     22  C   UNL     1       3.612  -0.699   3.716  0.00  0.00    +0.002 C 
ATOM     23  C   UNL     1       3.888   0.669   4.344  0.00  0.00    +0.004 C 
ENDBRANCH  21  22
BRANCH  21  24
ATOM     24  C   UNL     1       1.554   0.140   2.575  0.00  0.00    +0.005 C 
BRANCH  24  25
ATOM     25  C   UNL     1       0.029   0.028   2.514  0.00  0.00    +0.000 C 
BRANCH  25  27
ATOM     26  C   UNL     1      -2.055   1.033   1.570  0.00  0.00    +0.004 C 
ATOM     27  C   UNL     1      -0.530   1.145   1.631  0.00  0.00    -0.003 C 
ENDBRANCH  25  27
ENDBRANCH  24  25
ENDBRANCH  21  24
ENDBRANCH  20  21
ENDBRANCH  12  20
ENDBRANCH   1  16
BRANCH   2  28
ATOM     28  O   UNL     1       4.701  -5.989   2.456  0.00  0.00    -0.437 OA
BRANCH  28  29
ATOM     29  C   UNL     1       4.595  -6.391   1.162  0.00  0.00    +0.134 A 
ATOM     30  C   UNL     1       4.128  -5.511   0.197  0.00  0.00    +0.046 A 
ATOM     31  C   UNL     1       4.022  -5.923  -1.118  0.00  0.00    +0.004 A 
ATOM     32  C   UNL     1       4.381  -7.211  -1.471  0.00  0.00    +0.004 A 
ATOM     33  C   UNL     1       4.846  -8.089  -0.511  0.00  0.00    -0.044 A 
ATOM     34  C   UNL     1       4.960  -7.681   0.804  0.00  0.00    -0.005 A 
ATOM     35  C   UNL     1       5.474  -8.637   1.849  0.00  0.00    +0.048 C 
ATOM     36  C   UNL     1       5.236  -9.492  -0.900  0.00  0.00    +0.044 C 
ENDBRANCH  28  29
ENDBRANCH   2  28
TORSDOF 9
