REMARK  Name = ZINC39881486
REMARK  7 active torsions:
REMARK  status: ('A' for Active; 'I' for Inactive)
REMARK    1  A    between atoms: C_1  and  C_2
REMARK    2  A    between atoms: N_12  and  C_15
REMARK    3  A    between atoms: C_18  and  C_21
REMARK    4  A    between atoms: N_23  and  C_24
REMARK    5  A    between atoms: N_23  and  C_31
REMARK    6  A    between atoms: C_24  and  C_25
REMARK    7  A    between atoms: C_31  and  C_32
REMARK                            x       y       z     vdW  Elec       q    Type
REMARK                         _______ _______ _______ _____ _____    ______ ____
ROOT
ATOM      1  C   UNL     1      -0.092  -8.734   6.125  0.00  0.00    +0.035 A 
ATOM      2  C   UNL     1      -0.293  -7.677   5.241  0.00  0.00    +0.024 A 
ATOM      3  C   UNL     1      -0.188  -6.378   5.684  0.00  0.00    +0.015 A 
ATOM      4  C   UNL     1       0.122  -6.121   7.023  0.00  0.00    +0.037 A 
ATOM      5  C   UNL     1       0.323  -7.184   7.908  0.00  0.00    +0.015 A 
ATOM      6  C   UNL     1       0.211  -8.481   7.459  0.00  0.00    +0.024 A 
ENDROOT
BRANCH   1  18
ATOM      7  C   UNL     1       6.349 -10.909   2.540  0.00  0.00    +0.044 C 
ATOM      8  C   UNL     1       4.987 -11.423   2.928  0.00  0.00    -0.048 A 
ATOM      9  C   UNL     1       4.624 -12.725   2.590  0.00  0.00    +0.004 A 
ATOM     10  C   UNL     1       3.400 -13.218   2.928  0.00  0.00    +0.010 A 
ATOM     11  C   UNL     1       2.493 -12.405   3.624  0.00  0.00    -0.001 A 
ATOM     12  C   UNL     1       1.217 -12.876   3.993  0.00  0.00    +0.017 A 
ATOM     13  C   UNL     1       0.387 -12.034   4.668  0.00  0.00    -0.007 A 
ATOM     14  C   UNL     1       0.795 -10.732   4.987  0.00  0.00    +0.107 A 
ATOM     15  N   UNL     1       2.000 -10.304   4.633  0.00  0.00    -0.342 N 
ATOM     16  C   UNL     1       2.858 -11.081   3.970  0.00  0.00    +0.048 A 
ATOM     17  C   UNL     1       4.133 -10.610   3.608  0.00  0.00    +0.029 A 
ATOM     18  N   UNL     1      -0.199 -10.046   5.673  0.00  0.00    -0.286 N 
ATOM     19  C   UNL     1      -1.376 -10.898   5.855  0.00  0.00    +0.117 C 
ATOM     20  C   UNL     1      -1.016 -12.238   5.193  0.00  0.00    +0.058 C 
ATOM     21  H   UNL     1       2.265  -9.399   4.863  0.00  0.00    +0.167 HD
ENDBRANCH   1  18
BRANCH   4  22
ATOM     22  C   UNL     1       0.236  -4.730   7.501  0.00  0.00    +0.247 C 
ATOM     23  O   UNL     1       0.430  -3.828   6.709  0.00  0.00    -0.270 OA
ATOM     24  N   UNL     1       0.126  -4.458   8.817  0.00  0.00    -0.289 N 
BRANCH  24  25
ATOM     25  C   UNL     1       0.078  -3.068   9.276  0.00  0.00    +0.143 C 
BRANCH  25  26
ATOM     26  C   UNL     1      -1.358  -2.650   9.461  0.00  0.00    -0.030 A 
ATOM     27  C   UNL     1      -2.043  -2.051   8.421  0.00  0.00    +0.005 A 
ATOM     28  C   UNL     1      -3.360  -1.667   8.590  0.00  0.00    +0.000 A 
ATOM     29  C   UNL     1      -3.993  -1.883   9.800  0.00  0.00    +0.000 A 
ATOM     30  C   UNL     1      -3.308  -2.483  10.841  0.00  0.00    +0.000 A 
ATOM     31  C   UNL     1      -1.992  -2.871  10.670  0.00  0.00    +0.005 A 
ENDBRANCH  25  26
ENDBRANCH  24  25
BRANCH  24  32
ATOM     32  C   UNL     1       0.055  -5.553   9.787  0.00  0.00    +0.143 C 
BRANCH  32  33
ATOM     33  C   UNL     1       1.449  -6.019  10.123  0.00  0.00    -0.030 A 
ATOM     34  C   UNL     1       2.436  -5.997   9.156  0.00  0.00    +0.005 A 
ATOM     35  C   UNL     1       3.715  -6.424   9.463  0.00  0.00    +0.000 A 
ATOM     36  C   UNL     1       4.006  -6.872  10.738  0.00  0.00    +0.000 A 
ATOM     37  C   UNL     1       3.018  -6.892  11.706  0.00  0.00    +0.000 A 
ATOM     38  C   UNL     1       1.741  -6.462  11.399  0.00  0.00    +0.005 A 
ENDBRANCH  32  33
ENDBRANCH  24  32
ENDBRANCH   4  22
TORSDOF 6
