REMARK  Name = ZINC32622951
REMARK  11 active torsions:
REMARK  status: ('A' for Active; 'I' for Inactive)
REMARK    1  A    between atoms: C_1  and  C_2
REMARK    2  A    between atoms: C_2  and  O_3
REMARK    3  A    between atoms: O_3  and  C_4
REMARK    4  A    between atoms: C_7  and  C_10
REMARK    5  A    between atoms: C_12  and  C_15
REMARK    6  A    between atoms: N_17  and  C_18
REMARK    7  A    between atoms: C_18  and  C_19
REMARK    8  A    between atoms: C_19  and  C_21
REMARK    9  A    between atoms: C_19  and  N_27
REMARK   10  A    between atoms: C_24  and  C_26
REMARK   11  A    between atoms: C_30  and  C_33
REMARK                            x       y       z     vdW  Elec       q    Type
REMARK                         _______ _______ _______ _____ _____    ______ ____
ROOT
ATOM      1  C   UNL     1       3.503   0.380   0.009  0.00  0.00    +0.266 C 
ATOM      2  O   UNL     1       4.217   1.361   0.063  0.00  0.00    -0.268 OA
ATOM      3  N   UNL     1       4.050  -0.851  -0.031  0.00  0.00    -0.311 N 
ATOM      4  H   UNL     1       3.404  -1.740  -0.080  0.00  0.00    +0.149 HD
ENDROOT
BRANCH   1   7
ATOM      5  C   UNL     1      -0.007   1.355  -0.016  0.00  0.00    +0.168 A 
ATOM      6  C   UNL     1       1.301   1.754   0.025  0.00  0.00    +0.086 A 
ATOM      7  C   UNL     1       2.028   0.536  -0.012  0.00  0.00    +0.168 A 
ATOM      8  N   UNL     1       1.136  -0.423  -0.069  0.00  0.00    -0.073 NA
ATOM      9  O   UNL     1       0.009   0.012  -0.071  0.00  0.00    -0.354 OA
BRANCH   5  13
ATOM     10  C   UNL     1      -3.435   3.864   0.011  0.00  0.00    +0.121 A 
ATOM     11  C   UNL     1      -3.587   2.485  -0.050  0.00  0.00    +0.046 A 
ATOM     12  C   UNL     1      -2.477   1.668  -0.059  0.00  0.00    +0.015 A 
ATOM     13  C   UNL     1      -1.199   2.228  -0.007  0.00  0.00    +0.020 A 
ATOM     14  C   UNL     1      -1.051   3.615   0.060  0.00  0.00    +0.015 A 
ATOM     15  C   UNL     1      -2.166   4.425   0.064  0.00  0.00    +0.046 A 
BRANCH  10  16
ATOM     16  O   UNL     1      -4.531   4.666   0.019  0.00  0.00    -0.492 OA
BRANCH  16  18
ATOM     17  C   UNL     1      -5.646   6.809   0.084  0.00  0.00    +0.048 C 
ATOM     18  C   UNL     1      -4.304   6.075   0.084  0.00  0.00    +0.225 C 
ENDBRANCH  16  18
ENDBRANCH  10  16
ENDBRANCH   5  13
ENDBRANCH   1   7
BRANCH   3  19
ATOM     19  C   UNL     1       5.507  -1.006  -0.010  0.00  0.00    +0.097 C 
BRANCH  19  20
ATOM     20  C   UNL     1       5.863  -2.493  -0.064  0.00  0.00    +0.016 C 
BRANCH  20  21
ATOM     21  N   UNL     1       5.183  -3.200   1.030  0.00  0.00    +0.387 N 
ATOM     22  C   UNL     1       5.520  -2.605   2.329  0.00  0.00    -0.078 C 
ATOM     23  C   UNL     1       4.686  -3.269   3.427  0.00  0.00    -0.015 C 
ATOM     24  C   UNL     1       4.974  -4.773   3.442  0.00  0.00    -0.018 C 
ATOM     25  C   UNL     1       4.660  -5.358   2.062  0.00  0.00    -0.015 C 
ATOM     26  C   UNL     1       5.496  -4.634   1.004  0.00  0.00    -0.078 C 
ATOM     27  C   UNL     1       4.098  -5.451   4.497  0.00  0.00    +0.007 C 
ATOM     28  H   UNL     1       4.098  -3.090   0.882  0.00  0.00    -0.081 HD
ENDBRANCH  20  21
BRANCH  20  29
ATOM     29  C   UNL     1       7.354  -2.659   0.081  0.00  0.00    +0.093 A 
ATOM     30  C   UNL     1       8.205  -3.009  -0.900  0.00  0.00    +0.043 A 
ATOM     31  C   UNL     1       9.498  -3.042  -0.327  0.00  0.00    +0.044 A 
ATOM     32  C   UNL     1       9.357  -2.718   0.971  0.00  0.00    +0.102 A 
ATOM     33  O   UNL     1       8.057  -2.487   1.212  0.00  0.00    -0.466 OA
ATOM     34  C   UNL     1      10.471  -2.630   1.982  0.00  0.00    +0.086 C 
ENDBRANCH  20  29
ENDBRANCH  19  20
ENDBRANCH   3  19
TORSDOF 8
