REMARK  Name = ZINC35911806
REMARK  11 active torsions:
REMARK  status: ('A' for Active; 'I' for Inactive)
REMARK    1  A    between atoms: C_1  and  C_2
REMARK    2  A    between atoms: C_2  and  C_3
REMARK    3  A    between atoms: C_8  and  N_9
REMARK    4  A    between atoms: C_10  and  C_38
REMARK    5  A    between atoms: C_12  and  C_14
REMARK    6  A    between atoms: C_15  and  C_37
REMARK    7  A    between atoms: C_21  and  C_24
REMARK    8  A    between atoms: C_24  and  C_25
REMARK    9  A    between atoms: N_27  and  C_28
REMARK   10  A    between atoms: C_28  and  C_30
REMARK   11  A    between atoms: C_28  and  C_31
REMARK                            x       y       z     vdW  Elec       q    Type
REMARK                         _______ _______ _______ _____ _____    ______ ____
ROOT
ATOM      1  C   UNL     1       3.546   0.932   3.191  0.00  0.00    +0.088 A 
ATOM      2  C   UNL     1       2.337   1.057   3.867  0.00  0.00    +0.055 A 
ATOM      3  N   UNL     1       2.354   1.446   5.137  0.00  0.00    -0.227 NA
ATOM      4  C   UNL     1       3.480   1.709   5.754  0.00  0.00    +0.180 A 
ATOM      5  N   UNL     1       4.716   1.614   5.171  0.00  0.00    -0.258 N 
ATOM      6  C   UNL     1       4.747   1.212   3.865  0.00  0.00    +0.268 A 
ATOM      7  O   UNL     1       5.815   1.100   3.285  0.00  0.00    -0.266 OA
ATOM      8  C   UNL     1       5.798   1.927   5.959  0.00  0.00    +0.044 A 
ATOM      9  C   UNL     1       5.639   2.303   7.228  0.00  0.00    +0.071 A 
ATOM     10  S   UNL     1       3.864   2.240   7.409  0.00  0.00    -0.057 S 
ATOM     11  C   UNL     1       1.034   0.759   3.172  0.00  0.00    +0.066 C 
ENDROOT
BRANCH   1  15
ATOM     12  N   UNL     1       2.963  -0.150  -0.241  0.00  0.00    -0.236 N 
ATOM     13  C   UNL     1       4.320  -0.069  -0.250  0.00  0.00    +0.042 A 
ATOM     14  C   UNL     1       4.719   0.330   0.978  0.00  0.00    +0.053 A 
ATOM     15  C   UNL     1       3.568   0.501   1.773  0.00  0.00    +0.100 A 
ATOM     16  N   UNL     1       2.515   0.217   1.034  0.00  0.00    -0.166 NA
ATOM     17  C   UNL     1       5.219  -0.371  -1.421  0.00  0.00    +0.066 C 
BRANCH  12  23
ATOM     18  C   UNL     1       1.107   0.288  -1.725  0.00  0.00    -0.022 A 
ATOM     19  C   UNL     1       0.316  -0.086  -2.794  0.00  0.00    +0.006 A 
ATOM     20  C   UNL     1       0.561  -1.274  -3.456  0.00  0.00    +0.000 A 
ATOM     21  C   UNL     1       1.600  -2.093  -3.051  0.00  0.00    +0.002 A 
ATOM     22  C   UNL     1       2.395  -1.725  -1.984  0.00  0.00    +0.028 A 
ATOM     23  C   UNL     1       2.155  -0.529  -1.320  0.00  0.00    +0.069 A 
BRANCH  18  25
ATOM     24  C   UNL     1       1.802   2.659  -1.512  0.00  0.00    +0.009 C 
ATOM     25  C   UNL     1       0.839   1.583  -1.004  0.00  0.00    +0.034 C 
ENDBRANCH  18  25
ENDBRANCH  12  23
ENDBRANCH   1  15
BRANCH   8  26
ATOM     26  C   UNL     1       7.186   1.843   5.379  0.00  0.00    +0.150 C 
BRANCH  26  27
ATOM     27  C   UNL     1       7.692   0.427   5.489  0.00  0.00    +0.219 C 
ATOM     28  O   UNL     1       6.994  -0.429   5.990  0.00  0.00    -0.275 OA
ATOM     29  N   UNL     1       8.920   0.113   5.032  0.00  0.00    -0.308 N 
ATOM     30  H   UNL     1       9.478   0.797   4.631  0.00  0.00    +0.149 HD
BRANCH  29  31
ATOM     31  C   UNL     1       9.411  -1.263   5.139  0.00  0.00    +0.100 C 
ATOM     32  C   UNL     1       8.917  -2.076   3.941  0.00  0.00    +0.033 C 
BRANCH  31  33
ATOM     33  C   UNL     1      10.918  -1.258   5.156  0.00  0.00    -0.027 A 
ATOM     34  C   UNL     1      11.616  -0.394   4.333  0.00  0.00    +0.005 A 
ATOM     35  C   UNL     1      12.998  -0.390   4.348  0.00  0.00    +0.000 A 
ATOM     36  C   UNL     1      13.683  -1.249   5.187  0.00  0.00    +0.000 A 
ATOM     37  C   UNL     1      12.985  -2.112   6.011  0.00  0.00    +0.000 A 
ATOM     38  C   UNL     1      11.603  -2.114   5.999  0.00  0.00    +0.005 A 
ENDBRANCH  31  33
ENDBRANCH  29  31
ENDBRANCH  26  27
ENDBRANCH   8  26
TORSDOF 7
