REMARK  Name = ZINC11591641
REMARK  9 active torsions:
REMARK  status: ('A' for Active; 'I' for Inactive)
REMARK    1  A    between atoms: C_1  and  C_2
REMARK    2  A    between atoms: C_4  and  C_17
REMARK    3  A    between atoms: C_5  and  C_16
REMARK    4  A    between atoms: N_6  and  C_7
REMARK    5  A    between atoms: C_10  and  C_13
REMARK    6  A    between atoms: C_13  and  C_14
REMARK    7  A    between atoms: C_13  and  C_15
REMARK    8  A    between atoms: C_17  and  C_19
REMARK    9  A    between atoms: C_19  and  N_20
REMARK                            x       y       z     vdW  Elec       q    Type
REMARK                         _______ _______ _______ _____ _____    ______ ____
ROOT
ATOM      1  C   UNL     1       0.061  -3.394   1.417  0.00  0.00    +0.183 C 
ATOM      2  O   UNL     1       0.070  -4.481   0.878  0.00  0.00    -0.290 OA
ENDROOT
BRANCH   1   6
ATOM      3  C   UNL     1      -0.018   1.503   0.010  0.00  0.00    +0.064 C 
ATOM      4  C   UNL     1       0.002  -0.004   0.002  0.00  0.00    +0.022 A 
ATOM      5  C   UNL     1       0.023  -0.788   1.092  0.00  0.00    +0.034 A 
ATOM      6  C   UNL     1       0.037  -2.175   0.606  0.00  0.00    +0.040 A 
ATOM      7  C   UNL     1       0.024  -2.093  -0.774  0.00  0.00    +0.031 A 
ATOM      8  N   UNL     1      -0.003  -0.790  -1.116  0.00  0.00    -0.317 N 
ATOM      9  C   UNL     1       0.030  -3.259  -1.729  0.00  0.00    +0.064 C 
BRANCH   8  10
ATOM     10  C   UNL     1      -0.029  -0.310  -2.433  0.00  0.00    +0.047 A 
ATOM     11  C   UNL     1      -1.124  -0.568  -3.246  0.00  0.00    +0.026 A 
ATOM     12  C   UNL     1      -1.149  -0.089  -4.541  0.00  0.00    +0.006 A 
ATOM     13  C   UNL     1      -0.080   0.638  -5.031  0.00  0.00    -0.045 A 
ATOM     14  C   UNL     1       1.015   0.893  -4.225  0.00  0.00    +0.006 A 
ATOM     15  C   UNL     1       1.043   0.421  -2.928  0.00  0.00    +0.026 A 
BRANCH  13  16
ATOM     16  C   UNL     1      -0.107   1.155  -6.447  0.00  0.00    +0.013 C 
ATOM     17  C   UNL     1      -0.230  -0.022  -7.417  0.00  0.00    +0.012 C 
ATOM     18  C   UNL     1      -1.304   2.090  -6.625  0.00  0.00    +0.012 C 
ENDBRANCH  13  16
ENDBRANCH   8  10
ENDBRANCH   1   6
BRANCH   1  19
ATOM     19  C   UNL     1       0.073  -3.298   2.921  0.00  0.00    +0.197 C 
BRANCH  19  20
ATOM     20  N   UNL     1       0.096  -4.646   3.496  0.00  0.00    -0.216 N 
ATOM     21  C   UNL     1      -1.008  -5.356   3.808  0.00  0.00    +0.252 C 
ATOM     22  O   UNL     1      -2.163  -5.014   3.672  0.00  0.00    -0.272 OA
ATOM     23  C   UNL     1      -0.500  -6.667   4.362  0.00  0.00    +0.144 C 
ATOM     24  C   UNL     1      -0.962  -6.845   5.806  0.00  0.00    +0.081 C 
ATOM     25  C   UNL     1      -0.651  -8.284   6.237  0.00  0.00    +0.232 C 
ATOM     26  O   UNL     1      -1.420  -9.175   5.429  0.00  0.00    -0.492 OA
ATOM     27  C   UNL     1      -1.393  -9.002   4.082  0.00  0.00    +0.126 A 
ATOM     28  C   UNL     1      -0.963  -7.815   3.510  0.00  0.00    +0.027 A 
ATOM     29  C   UNL     1      -0.957  -7.678   2.133  0.00  0.00    +0.010 A 
ATOM     30  C   UNL     1      -1.374  -8.720   1.326  0.00  0.00    +0.001 A 
ATOM     31  C   UNL     1      -1.799  -9.906   1.894  0.00  0.00    +0.004 A 
ATOM     32  C   UNL     1      -1.809 -10.049   3.267  0.00  0.00    +0.046 A 
ATOM     33  N   UNL     1       0.961  -6.538   4.302  0.00  0.00    -0.281 N 
ATOM     34  C   UNL     1       1.215  -5.323   3.781  0.00  0.00    +0.310 C 
ATOM     35  O   UNL     1       2.334  -4.889   3.592  0.00  0.00    -0.252 OA
ATOM     36  H   UNL     1       1.614  -7.199   4.582  0.00  0.00    +0.152 HD
ENDBRANCH  19  20
ENDBRANCH   1  19
TORSDOF 5
