REMARK  Name = ZINC06148945
REMARK  5 active torsions:
REMARK  status: ('A' for Active; 'I' for Inactive)
REMARK    1  A    between atoms: C_1  and  C_2
REMARK    2  A    between atoms: C_7  and  C_9
REMARK    3  A    between atoms: C_7  and  C_24
REMARK    4  A    between atoms: C_7  and  N_63
REMARK    5  A    between atoms: N_28  and  C_29
REMARK                            x       y       z     vdW  Elec       q    Type
REMARK                         _______ _______ _______ _____ _____    ______ ____
ROOT
ATOM      1  C   UNL     1      -1.334   2.138   0.020  0.00  0.00    +0.039 C 
ENDROOT
BRANCH   1   2
ATOM      2  C   UNL     1      -0.017   1.405   0.010  0.00  0.00    +0.011 A 
ATOM      3  C   UNL     1       1.146   2.105   0.002  0.00  0.00    +0.017 A 
ATOM      4  C   UNL     1       2.407   1.365  -0.014  0.00  0.00    +0.002 A 
ATOM      5  C   UNL     1       3.637   2.035  -0.020  0.00  0.00    +0.059 A 
ATOM      6  C   UNL     1       4.809   1.311  -0.037  0.00  0.00    +0.167 A 
ATOM      7  C   UNL     1       4.773  -0.090  -0.047  0.00  0.00    +0.168 A 
ATOM      8  C   UNL     1       3.563  -0.759  -0.040  0.00  0.00    +0.075 A 
ATOM      9  C   UNL     1       2.373  -0.043  -0.022  0.00  0.00    +0.053 A 
ATOM     10  N   UNL     1       1.156  -0.694  -0.014  0.00  0.00    -0.322 N 
ATOM     11  H   UNL     1       1.132  -1.694  -0.019  0.00  0.00    +0.169 HD
ATOM     12  C   UNL     1       0.002  -0.004   0.002  0.00  0.00    +0.251 A 
ATOM     13  O   UNL     1      -1.054  -0.613   0.009  0.00  0.00    -0.268 OA
ATOM     14  O   UNL     1       6.056  -0.555  -0.063  0.00  0.00    -0.453 OA
ATOM     15  C   UNL     1       6.866   0.561  -0.477  0.00  0.00    +0.466 C 
ATOM     16  O   UNL     1       6.115   1.711  -0.046  0.00  0.00    -0.453 OA
ENDBRANCH   1   2
BRANCH   1  23
ATOM     17  C   UNL     1      -4.356   1.221   4.784  0.00  0.00    +0.007 C 
ATOM     18  C   UNL     1      -3.504   1.876   3.694  0.00  0.00    -0.018 C 
ATOM     19  C   UNL     1      -4.265   1.851   2.366  0.00  0.00    -0.015 C 
ATOM     20  C   UNL     1      -3.384   2.452   1.268  0.00  0.00    -0.077 C 
ATOM     21  C   UNL     1      -1.372   1.724   2.405  0.00  0.00    -0.077 C 
ATOM     22  C   UNL     1      -2.193   1.102   3.537  0.00  0.00    -0.015 C 
ATOM     23  N   UNL     1      -2.149   1.647   1.150  0.00  0.00    +0.389 N 
ATOM     24  H   UNL     1      -2.405   0.668   0.976  0.00  0.00    -0.080 HD
ENDBRANCH   1  23
BRANCH   1  25
ATOM     25  C   UNL     1      -2.071   1.865  -1.266  0.00  0.00    +0.143 A 
ATOM     26  N   UNL     1      -2.694   0.758  -1.590  0.00  0.00    -0.115 NA
ATOM     27  N   UNL     1      -3.197   0.915  -2.766  0.00  0.00    -0.023 NA
ATOM     28  N   UNL     1      -2.911   2.093  -3.200  0.00  0.00    -0.044 NA
ATOM     29  N   UNL     1      -2.222   2.711  -2.301  0.00  0.00    -0.227 N 
BRANCH  29  30
ATOM     30  C   UNL     1      -1.698   4.077  -2.392  0.00  0.00    +0.111 C 
ATOM     31  C   UNL     1      -2.860   5.057  -2.570  0.00  0.00    +0.027 C 
ATOM     32  C   UNL     1      -2.313   6.483  -2.665  0.00  0.00    +0.002 C 
ATOM     33  C   UNL     1      -1.369   6.588  -3.864  0.00  0.00    +0.000 C 
ATOM     34  C   UNL     1      -0.208   5.608  -3.687  0.00  0.00    +0.002 C 
ATOM     35  C   UNL     1      -0.754   4.182  -3.592  0.00  0.00    +0.027 C 
ENDBRANCH  29  30
ENDBRANCH   1  25
TORSDOF 4
