REMARK  Name = ZINC40944300
REMARK  17 active torsions:
REMARK  status: ('A' for Active; 'I' for Inactive)
REMARK    1  A    between atoms: C_1  and  C_2
REMARK    2  A    between atoms: C_2  and  O_3
REMARK    3  A    between atoms: O_3  and  C_4
REMARK    4  A    between atoms: C_4  and  C_6
REMARK    5  A    between atoms: C_7  and  C_32
REMARK    6  A    between atoms: C_8  and  C_26
REMARK    7  A    between atoms: C_10  and  N_11
REMARK    8  A    between atoms: C_12  and  C_14
REMARK    9  A    between atoms: C_14  and  C_15
REMARK   10  A    between atoms: C_15  and  C_16
REMARK   11  A    between atoms: C_16  and  O_17
REMARK   12  A    between atoms: O_17  and  C_18
REMARK   13  A    between atoms: C_21  and  C_25
REMARK   14  A    between atoms: C_26  and  O_28
REMARK   15  A    between atoms: O_28  and  C_29
REMARK   16  A    between atoms: C_29  and  C_30
REMARK   17  A    between atoms: C_29  and  C_31
REMARK                            x       y       z     vdW  Elec       q    Type
REMARK                         _______ _______ _______ _____ _____    ______ ____
ROOT
ATOM      1  C   UNL     1       1.498  -2.372   2.469  0.00  0.00    +0.091 A 
ATOM      2  C   UNL     1       0.816  -2.667   3.641  0.00  0.00    -0.014 A 
ATOM      3  C   UNL     1       1.564  -3.184   4.665  0.00  0.00    +0.102 A 
ATOM      4  S   UNL     1       3.201  -3.243   3.964  0.00  0.00    -0.066 S 
ATOM      5  C   UNL     1       2.870  -2.630   2.436  0.00  0.00    +0.087 A 
ATOM      6  C   UNL     1      -0.666  -2.432   3.780  0.00  0.00    +0.046 C 
ENDROOT
BRANCH   5   7
ATOM      7  N   UNL     1       3.750  -2.426   1.391  0.00  0.00    -0.279 N 
ATOM      8  C   UNL     1       5.053  -2.736   1.538  0.00  0.00    +0.218 C 
ATOM      9  O   UNL     1       5.453  -3.193   2.588  0.00  0.00    -0.275 OA
ATOM     10  H   UNL     1       3.429  -2.061   0.552  0.00  0.00    +0.155 HD
BRANCH   8  11
ATOM     11  C   UNL     1       6.013  -2.514   0.398  0.00  0.00    +0.099 C 
BRANCH  11  12
ATOM     12  C   UNL     1       7.419  -2.944   0.824  0.00  0.00    +0.050 C 
BRANCH  12  13
ATOM     13  C   UNL     1       8.393  -2.719  -0.334  0.00  0.00    +0.229 C 
BRANCH  13  14
ATOM     14  O   UNL     1       9.706  -3.120   0.063  0.00  0.00    -0.491 OA
BRANCH  14  15
ATOM     15  C   UNL     1      10.698  -2.984  -0.856  0.00  0.00    +0.134 A 
ATOM     16  C   UNL     1      10.415  -2.469  -2.112  0.00  0.00    +0.047 A 
ATOM     17  C   UNL     1      11.424  -2.332  -3.045  0.00  0.00    +0.007 A 
ATOM     18  C   UNL     1      12.717  -2.707  -2.728  0.00  0.00    -0.049 A 
ATOM     19  C   UNL     1      13.002  -3.221  -1.476  0.00  0.00    +0.022 A 
ATOM     20  C   UNL     1      11.997  -3.355  -0.537  0.00  0.00    +0.060 A 
ATOM     21 BR   UNL     1      12.389  -4.049   1.177  0.00  0.00    -0.047 Br
ATOM     22  C   UNL     1      13.816  -2.557  -3.747  0.00  0.00    +0.044 C 
ENDBRANCH  14  15
ENDBRANCH  13  14
ENDBRANCH  12  13
ENDBRANCH  11  12
ENDBRANCH   8  11
ENDBRANCH   5   7
BRANCH   1  23
ATOM     23  C   UNL     1       0.801  -1.814   1.304  0.00  0.00    +0.342 C 
ATOM     24  O   UNL     1       0.321  -2.556   0.470  0.00  0.00    -0.245 OA
BRANCH  23  25
ATOM     25  O   UNL     1       0.693  -0.477   1.160  0.00  0.00    -0.461 OA
BRANCH  25  27
ATOM     26  C   UNL     1      -0.019   1.526   0.010  0.00  0.00    +0.048 C 
ATOM     27  C   UNL     1       0.002  -0.004   0.002  0.00  0.00    +0.229 C 
ENDBRANCH  25  27
ENDBRANCH  23  25
ENDBRANCH   1  23
BRANCH   3  28
ATOM     28  C   UNL     1       1.129  -3.586   6.002  0.00  0.00    +0.346 C 
ATOM     29  O   UNL     1      -0.041  -3.475   6.320  0.00  0.00    -0.244 OA
BRANCH  28  30
ATOM     30  O   UNL     1       2.023  -4.078   6.884  0.00  0.00    -0.458 OA
BRANCH  30  31
ATOM     31  C   UNL     1       1.528  -4.451   8.171  0.00  0.00    +0.171 C 
ATOM     32  C   UNL     1       1.094  -5.918   8.146  0.00  0.00    +0.052 C 
ATOM     33  C   UNL     1       2.630  -4.263   9.216  0.00  0.00    +0.052 C 
ENDBRANCH  30  31
ENDBRANCH  28  30
ENDBRANCH   3  28
TORSDOF 12
