REMARK  Name = ZINC38966365
REMARK  4 active torsions:
REMARK  status: ('A' for Active; 'I' for Inactive)
REMARK    1  A    between atoms: C_1  and  C_2
REMARK    2  A    between atoms: C_7  and  C_8
REMARK    3  A    between atoms: C_11  and  C_19
REMARK    4  A    between atoms: C_22  and  C_25
REMARK                            x       y       z     vdW  Elec       q    Type
REMARK                         _______ _______ _______ _____ _____    ______ ____
ROOT
ATOM      1  C   UNL     1      -0.057  -0.164   2.583  0.00  0.00    +0.076 C 
ATOM      2  N   UNL     1      -0.246   1.101   2.604  0.00  0.00    -0.184 NA
ATOM      3  N   UNL     1      -0.273   1.872   3.762  0.00  0.00    -0.207 N 
ATOM      4  C   UNL     1      -0.032   3.312   3.913  0.00  0.00    +0.206 C 
ATOM      5  N   UNL     1      -0.382   3.623   5.324  0.00  0.00    -0.231 NA
ATOM      6  N   UNL     1      -0.020   2.387   6.044  0.00  0.00    -0.225 NA
ATOM      7  C   UNL     1      -0.470   1.324   5.125  0.00  0.00    +0.234 C 
ATOM      8  S   UNL     1       0.631  -0.124   5.227  0.00  0.00    -0.114 S 
ATOM      9  C   UNL     1       0.123  -1.075   3.759  0.00  0.00    +0.129 C 
ATOM     10  H   UNL     1      -1.367   3.821   5.418  0.00  0.00    +0.143 HD
ATOM     11  H   UNL     1      -0.503   2.329   6.928  0.00  0.00    +0.143 HD
ENDROOT
BRANCH   1  18
ATOM     12  C   UNL     1       2.409  -1.343   1.635  0.00  0.00    +0.044 C 
ATOM     13  C   UNL     1       1.167  -1.370   0.782  0.00  0.00    -0.042 A 
ATOM     14  C   UNL     1       1.196  -1.966  -0.462  0.00  0.00    +0.004 A 
ATOM     15  C   UNL     1       0.057  -1.991  -1.247  0.00  0.00    +0.000 A 
ATOM     16  C   UNL     1      -1.119  -1.420  -0.791  0.00  0.00    +0.001 A 
ATOM     17  C   UNL     1      -1.162  -0.821   0.451  0.00  0.00    +0.010 A 
ATOM     18  C   UNL     1      -0.017  -0.797   1.251  0.00  0.00    +0.001 A 
ENDBRANCH   1  18
BRANCH   4  19
ATOM     19  C   UNL     1      -0.928   4.103   2.957  0.00  0.00    +0.190 C 
ATOM     20  C   UNL     1      -0.640   5.590   3.059  0.00  0.00    +0.034 C 
ATOM     21  C   UNL     1      -1.808   6.117   3.474  0.00  0.00    +0.091 C 
ATOM     22  N   UNL     1      -2.740   5.141   3.629  0.00  0.00    -0.154 NA
ATOM     23  N   UNL     1      -2.339   4.002   3.363  0.00  0.00    -0.176 NA
BRANCH  21  24
ATOM     24  C   UNL     1      -2.043   7.560   3.727  0.00  0.00    +0.002 A 
ATOM     25  C   UNL     1      -1.016   8.481   3.532  0.00  0.00    +0.010 A 
ATOM     26  C   UNL     1      -1.240   9.822   3.769  0.00  0.00    +0.001 A 
ATOM     27  C   UNL     1      -2.482  10.252   4.199  0.00  0.00    +0.000 A 
ATOM     28  C   UNL     1      -3.506   9.342   4.395  0.00  0.00    +0.001 A 
ATOM     29  C   UNL     1      -3.294   8.000   4.156  0.00  0.00    +0.010 A 
ENDBRANCH  21  24
ENDBRANCH   4  19
TORSDOF 3
