REMARK  Name = ZINC27346271
REMARK  11 active torsions:
REMARK  status: ('A' for Active; 'I' for Inactive)
REMARK    1  A    between atoms: C_1  and  C_2
REMARK    2  A    between atoms: C_5  and  C_8
REMARK    3  A    between atoms: C_8  and  C_32
REMARK    4  A    between atoms: N_11  and  C_15
REMARK    5  A    between atoms: C_15  and  C_16
REMARK    6  A    between atoms: N_18  and  C_19
REMARK    7  A    between atoms: C_19  and  C_20
REMARK    8  A    between atoms: C_20  and  C_22
REMARK    9  A    between atoms: C_20  and  N_29
REMARK   10  A    between atoms: N_29  and  C_30
REMARK   11  A    between atoms: N_29  and  C_31
REMARK                            x       y       z     vdW  Elec       q    Type
REMARK                         _______ _______ _______ _____ _____    ______ ____
ROOT
ATOM      1  C   UNL     1      -0.637   4.407   0.914  0.00  0.00    +0.213 C 
ENDROOT
BRANCH   1   5
ATOM      2  C   UNL     1       2.532   2.502   0.562  0.00  0.00    +0.135 C 
ATOM      3  C   UNL     1       1.043   2.668   0.333  0.00  0.00    +0.251 C 
ATOM      4  O   UNL     1       0.300   1.902  -0.242  0.00  0.00    -0.272 OA
ATOM      5  N   UNL     1       0.716   3.845   0.904  0.00  0.00    -0.215 N 
ATOM      6  C   UNL     1       1.780   4.438   1.456  0.00  0.00    +0.310 C 
ATOM      7  O   UNL     1       1.735   5.508   2.030  0.00  0.00    -0.252 OA
ATOM      8  N   UNL     1       2.906   3.717   1.305  0.00  0.00    -0.281 N 
ATOM      9  C   UNL     1       3.277   2.431  -0.772  0.00  0.00    +0.047 C 
ATOM     10  H   UNL     1       3.950   3.873   1.614  0.00  0.00    +0.152 HD
BRANCH   2  15
ATOM     11  C   UNL     1       3.587  -2.218   3.725  0.00  0.00    +0.044 C 
ATOM     12  C   UNL     1       3.312  -0.987   2.900  0.00  0.00    -0.050 A 
ATOM     13  C   UNL     1       4.162   0.100   2.976  0.00  0.00    +0.004 A 
ATOM     14  C   UNL     1       3.910   1.229   2.219  0.00  0.00    +0.006 A 
ATOM     15  C   UNL     1       2.807   1.271   1.387  0.00  0.00    -0.015 A 
ATOM     16  C   UNL     1       1.954   0.186   1.315  0.00  0.00    +0.006 A 
ATOM     17  C   UNL     1       2.209  -0.945   2.068  0.00  0.00    +0.004 A 
ENDBRANCH   2  15
ENDBRANCH   1   5
BRANCH   1  18
ATOM     18  C   UNL     1      -1.370   3.931   2.141  0.00  0.00    +0.231 C 
ATOM     19  O   UNL     1      -0.817   3.194   2.930  0.00  0.00    -0.274 OA
ATOM     20  N   UNL     1      -2.640   4.324   2.362  0.00  0.00    -0.315 N 
ATOM     21  H   UNL     1      -3.142   4.991   1.646  0.00  0.00    +0.149 HD
BRANCH  20  22
ATOM     22  C   UNL     1      -3.353   3.861   3.555  0.00  0.00    +0.093 C 
BRANCH  22  23
ATOM     23  C   UNL     1      -4.819   4.292   3.473  0.00  0.00    -0.020 C 
BRANCH  23  24
ATOM     24  C   UNL     1      -5.528   3.906   4.746  0.00  0.00    -0.041 A 
ATOM     25  C   UNL     1      -6.377   2.816   4.761  0.00  0.00    +0.003 A 
ATOM     26  C   UNL     1      -7.028   2.462   5.928  0.00  0.00    +0.000 A 
ATOM     27  C   UNL     1      -6.830   3.199   7.081  0.00  0.00    +0.001 A 
ATOM     28  C   UNL     1      -5.981   4.290   7.067  0.00  0.00    +0.020 A 
ATOM     29  C   UNL     1      -5.325   4.641   5.900  0.00  0.00    +0.043 A 
ATOM     30 CL   UNL     1      -4.253   6.006   5.883  0.00  0.00    -0.083 Cl
ENDBRANCH  23  24
BRANCH  23  31
ATOM     31  N   UNL     1      -5.462   3.625   2.333  0.00  0.00    +0.382 N 
ATOM     32  C   UNL     1      -5.197   4.348   1.082  0.00  0.00    -0.096 C 
ATOM     33  C   UNL     1      -5.033   2.223   2.232  0.00  0.00    -0.096 C 
ATOM     34  H   UNL     1      -6.549   3.634   2.505  0.00  0.00    -0.082 HD
ENDBRANCH  23  31
ENDBRANCH  22  23
ENDBRANCH  20  22
ENDBRANCH   1  18
TORSDOF 7
