REMARK  Name = ZINC39710219
REMARK  10 active torsions:
REMARK  status: ('A' for Active; 'I' for Inactive)
REMARK    1  A    between atoms: C_1  and  C_2
REMARK    2  A    between atoms: C_9  and  C_14
REMARK    3  A    between atoms: C_14  and  C_16
REMARK    4  A    between atoms: C_14  and  N_25
REMARK    5  A    between atoms: N_20  and  C_21
REMARK    6  A    between atoms: C_21  and  C_22
REMARK    7  A    between atoms: C_22  and  O_23
REMARK    8  A    between atoms: O_23  and  C_24
REMARK    9  A    between atoms: N_28  and  C_31
REMARK   10  A    between atoms: C_36  and  C_37
REMARK                            x       y       z     vdW  Elec       q    Type
REMARK                         _______ _______ _______ _____ _____    ______ ____
ROOT
ATOM      1  C   UNL     1       1.319  -4.874   2.934  0.00  0.00    +0.142 C 
ENDROOT
BRANCH   1  10
ATOM      2  C   UNL     1      -0.018   1.503   0.010  0.00  0.00    +0.044 C 
ATOM      3  C   UNL     1       0.002  -0.004   0.002  0.00  0.00    -0.050 A 
ATOM      4  C   UNL     1       0.005  -0.680  -1.218  0.00  0.00    +0.005 A 
ATOM      5  C   UNL     1       0.024  -2.036  -1.305  0.00  0.00    +0.024 A 
ATOM      6  C   UNL     1       0.041  -2.826  -0.141  0.00  0.00    +0.040 A 
ATOM      7  N   UNL     1       0.059  -4.155  -0.238  0.00  0.00    -0.284 N 
ATOM      8  C   UNL     1       0.075  -4.956   0.815  0.00  0.00    +0.226 C 
ATOM      9  O   UNL     1       0.092  -6.163   0.663  0.00  0.00    -0.275 OA
ATOM     10  C   UNL     1       0.073  -4.365   2.207  0.00  0.00    +0.123 C 
ATOM     11  C   UNL     1       0.053  -2.854   2.322  0.00  0.00    -0.003 C 
ATOM     12  C   UNL     1       0.037  -2.138   1.162  0.00  0.00    -0.007 A 
ATOM     13  C   UNL     1       0.022  -0.675   1.183  0.00  0.00    +0.012 A 
ATOM     14  H   UNL     1       0.061  -4.554  -1.122  0.00  0.00    +0.155 HD
ENDBRANCH   1  10
BRANCH   1  15
ATOM     15  N   UNL     1       1.281  -6.341   3.004  0.00  0.00    -0.289 NA
ATOM     16  C   UNL     1       0.099  -6.803   3.744  0.00  0.00    +0.104 C 
ATOM     17  C   UNL     1      -0.002  -8.328   3.639  0.00  0.00    +0.120 C 
ATOM     18  N   UNL     1       1.274  -8.912   4.079  0.00  0.00    -0.327 N 
ATOM     19  C   UNL     1       2.516  -8.401   3.480  0.00  0.00    +0.120 C 
ATOM     20  C   UNL     1       2.518  -6.873   3.591  0.00  0.00    +0.104 C 
BRANCH  18  21
ATOM     21  C   UNL     1       1.305  -9.924   5.041  0.00  0.00    +0.034 A 
ATOM     22  C   UNL     1       1.248 -11.256   4.652  0.00  0.00    +0.043 A 
ATOM     23  C   UNL     1       1.279 -12.255   5.606  0.00  0.00    +0.043 A 
ATOM     24  C   UNL     1       1.368 -11.929   6.949  0.00  0.00    +0.020 A 
ATOM     25  C   UNL     1       1.425 -10.604   7.338  0.00  0.00    +0.006 A 
ATOM     26  C   UNL     1       1.400  -9.601   6.388  0.00  0.00    -0.029 A 
ATOM     27  C   UNL     1       1.470  -8.157   6.814  0.00  0.00    +0.045 C 
ATOM     28 CL   UNL     1       1.206 -13.921   5.122  0.00  0.00    -0.083 Cl
ENDBRANCH  18  21
ENDBRANCH   1  15
BRANCH   1  29
ATOM     29  C   UNL     1       1.353  -4.306   4.330  0.00  0.00    +0.170 A 
ATOM     30  N   UNL     1       0.617  -4.683   5.346  0.00  0.00    -0.112 NA
ATOM     31  N   UNL     1       0.941  -3.960   6.362  0.00  0.00    -0.023 NA
ATOM     32  N   UNL     1       1.864  -3.131   6.019  0.00  0.00    -0.044 NA
ATOM     33  N   UNL     1       2.150  -3.317   4.775  0.00  0.00    -0.225 N 
BRANCH  33  34
ATOM     34  C   UNL     1       3.150  -2.586   3.993  0.00  0.00    +0.175 C 
BRANCH  34  35
ATOM     35  C   UNL     1       2.499  -1.360   3.350  0.00  0.00    +0.183 C 
BRANCH  35  36
ATOM     36  O   UNL     1       3.474  -0.647   2.587  0.00  0.00    -0.381 OA
ATOM     37  C   UNL     1       2.966   0.522   1.942  0.00  0.00    +0.194 C 
ENDBRANCH  35  36
ENDBRANCH  34  35
ENDBRANCH  33  34
ENDBRANCH   1  29
TORSDOF 7
