REMARK  Name = ZINC12532835
REMARK  6 active torsions:
REMARK  status: ('A' for Active; 'I' for Inactive)
REMARK    1  A    between atoms: C_4  and  C_7
REMARK    2  A    between atoms: C_9  and  C_18
REMARK    3  A    between atoms: N_10  and  C_12
REMARK    4  A    between atoms: N_20  and  C_21
REMARK    5  A    between atoms: C_23  and  C_32
REMARK    6  A    between atoms: C_26  and  N_27
REMARK                            x       y       z     vdW  Elec       q    Type
REMARK                         _______ _______ _______ _____ _____    ______ ____
ROOT
ATOM      1  C   UNL     1      -2.678   1.108   1.109  0.00  0.00    +0.267 C 
ATOM      2  O   UNL     1      -2.614  -0.105   1.158  0.00  0.00    -0.268 OA
ATOM      3  N   UNL     1      -1.565   1.849   1.278  0.00  0.00    -0.279 N 
ATOM      4  H   UNL     1      -1.625   2.817   1.307  0.00  0.00    +0.155 HD
ENDROOT
BRANCH   3   5
ATOM      5  C   UNL     1      -0.320   1.221   1.412  0.00  0.00    +0.056 A 
ATOM      6  C   UNL     1      -0.236  -0.035   1.983  0.00  0.00    +0.038 A 
ATOM      7  C   UNL     1       1.008  -0.660   2.110  0.00  0.00    +0.038 A 
ATOM      8  C   UNL     1       2.162  -0.014   1.659  0.00  0.00    +0.015 A 
ATOM      9  C   UNL     1       2.075   1.238   1.091  0.00  0.00    +0.026 A 
ATOM     10  C   UNL     1       0.839   1.862   0.963  0.00  0.00    +0.051 A 
BRANCH  10  11
ATOM     11  N   UNL     1       0.755   3.127   0.388  0.00  0.00    -0.328 N 
ATOM     12  C   UNL     1       2.090   3.596  -0.064  0.00  0.00    +0.105 C 
ATOM     13  C   UNL     1       1.748   4.695  -1.101  0.00  0.00    +0.020 C 
ATOM     14  C   UNL     1       0.500   4.122  -1.812  0.00  0.00    +0.020 C 
ATOM     15  C   UNL     1      -0.094   3.103  -0.823  0.00  0.00    +0.105 C 
ENDBRANCH  10  11
BRANCH   7  16
ATOM     16  C   UNL     1       1.102  -2.001   2.719  0.00  0.00    +0.242 C 
ATOM     17  O   UNL     1       0.097  -2.562   3.111  0.00  0.00    -0.270 OA
ATOM     18  N   UNL     1       2.301  -2.603   2.841  0.00  0.00    -0.325 N 
ATOM     19  H   UNL     1       3.103  -2.155   2.528  0.00  0.00    +0.145 HD
ATOM     20  H   UNL     1       2.363  -3.484   3.241  0.00  0.00    +0.145 HD
ENDBRANCH   7  16
ENDBRANCH   3   5
BRANCH   1  23
ATOM     21  C   UNL     1      -5.593   3.254   0.593  0.00  0.00    +0.094 A 
ATOM     22  C   UNL     1      -4.224   3.127   0.890  0.00  0.00    +0.063 A 
ATOM     23  C   UNL     1      -3.970   1.768   0.864  0.00  0.00    +0.130 A 
ATOM     24  N   UNL     1      -5.160   1.157   0.572  0.00  0.00    -0.227 N 
ATOM     25  N   UNL     1      -6.078   2.042   0.421  0.00  0.00    -0.166 NA
BRANCH  21  29
ATOM     26  C   UNL     1      -7.774   6.894   0.320  0.00  0.00    +0.000 A 
ATOM     27  C   UNL     1      -8.419   5.688   0.114  0.00  0.00    +0.001 A 
ATOM     28  C   UNL     1      -7.716   4.503   0.202  0.00  0.00    +0.010 A 
ATOM     29  C   UNL     1      -6.354   4.525   0.498  0.00  0.00    +0.002 A 
ATOM     30  C   UNL     1      -5.712   5.742   0.710  0.00  0.00    +0.010 A 
ATOM     31  C   UNL     1      -6.423   6.921   0.614  0.00  0.00    +0.001 A 
ENDBRANCH  21  29
BRANCH  24  32
ATOM     32  C   UNL     1      -5.348  -0.225   0.455  0.00  0.00    +0.066 A 
ATOM     33  C   UNL     1      -4.436  -0.993  -0.259  0.00  0.00    +0.028 A 
ATOM     34  C   UNL     1      -4.622  -2.357  -0.368  0.00  0.00    +0.002 A 
ATOM     35  C   UNL     1      -5.719  -2.957   0.223  0.00  0.00    +0.000 A 
ATOM     36  C   UNL     1      -6.631  -2.195   0.930  0.00  0.00    +0.002 A 
ATOM     37  C   UNL     1      -6.448  -0.831   1.048  0.00  0.00    +0.028 A 
ENDBRANCH  24  32
ENDBRANCH   1  23
TORSDOF 6
