REMARK  Name = ZINC40016868
REMARK  11 active torsions:
REMARK  status: ('A' for Active; 'I' for Inactive)
REMARK    1  A    between atoms: C_1  and  C_2
REMARK    2  A    between atoms: C_2  and  O_3
REMARK    3  A    between atoms: O_3  and  C_4
REMARK    4  A    between atoms: C_8  and  C_10
REMARK    5  A    between atoms: C_12  and  C_34
REMARK    6  A    between atoms: C_13  and  C_33
REMARK    7  A    between atoms: C_20  and  C_21
REMARK    8  A    between atoms: C_28  and  C_31
REMARK    9  A    between atoms: C_34  and  O_36
REMARK   10  A    between atoms: O_36  and  C_37
REMARK   11  A    between atoms: C_37  and  C_38
REMARK                            x       y       z     vdW  Elec       q    Type
REMARK                         _______ _______ _______ _____ _____    ______ ____
ROOT
ATOM      1  C   UNL     1      -5.126  -4.428  -0.323  0.00  0.00    +0.162 C 
ATOM      2  C   UNL     1      -5.626  -4.785   1.058  0.00  0.00    +0.085 C 
ATOM      3  C   UNL     1      -5.739  -6.109   1.378  0.00  0.00    +0.053 C 
ATOM      4  N   UNL     1      -5.417  -7.046   0.496  0.00  0.00    -0.228 NA
ATOM      5  C   UNL     1      -4.978  -6.814  -0.715  0.00  0.00    +0.178 A 
ATOM      6  N   UNL     1      -4.791  -5.555  -1.237  0.00  0.00    -0.275 N 
ATOM      7  C   UNL     1      -4.335  -5.442  -2.492  0.00  0.00    +0.268 A 
ATOM      8  O   UNL     1      -4.154  -4.350  -2.997  0.00  0.00    -0.266 OA
ATOM      9  C   UNL     1      -4.061  -6.677  -3.240  0.00  0.00    +0.081 A 
ATOM     10  C   UNL     1      -3.599  -6.833  -4.508  0.00  0.00    +0.028 C 
ATOM     11  S   UNL     1      -4.497  -7.915  -2.031  0.00  0.00    -0.046 S 
ATOM     12  C   UNL     1      -6.234  -6.507   2.745  0.00  0.00    +0.066 C 
ENDROOT
BRANCH  10  13
ATOM     13  C   UNL     1      -3.560  -8.170  -5.115  0.00  0.00    -0.023 A 
ATOM     14  C   UNL     1      -4.291  -9.223  -4.552  0.00  0.00    +0.011 A 
ATOM     15  C   UNL     1      -4.256 -10.472  -5.125  0.00  0.00    +0.046 A 
ATOM     16  C   UNL     1      -3.492 -10.704  -6.270  0.00  0.00    +0.124 A 
ATOM     17  C   UNL     1      -2.761  -9.656  -6.822  0.00  0.00    -0.002 A 
ATOM     18  C   UNL     1      -2.795  -8.401  -6.266  0.00  0.00    +0.015 A 
ATOM     19  C   UNL     1      -2.024 -10.213  -8.025  0.00  0.00    +0.083 C 
ATOM     20  C   UNL     1      -2.145 -11.738  -7.794  0.00  0.00    +0.175 C 
ATOM     21  O   UNL     1      -3.332 -11.847  -6.991  0.00  0.00    -0.488 OA
ATOM     22  C   UNL     1      -2.316 -12.476  -9.124  0.00  0.00    +0.052 C 
ENDBRANCH  10  13
BRANCH   1  27
ATOM     23  C   UNL     1      -2.852  -1.420  -0.064  0.00  0.00    +0.121 A 
ATOM     24  C   UNL     1      -1.619  -2.025   0.130  0.00  0.00    +0.045 A 
ATOM     25  C   UNL     1      -1.526  -3.402   0.177  0.00  0.00    +0.004 A 
ATOM     26  C   UNL     1      -2.661  -4.178   0.031  0.00  0.00    +0.006 A 
ATOM     27  C   UNL     1      -3.891  -3.579  -0.163  0.00  0.00    -0.016 A 
ATOM     28  C   UNL     1      -3.990  -2.201  -0.205  0.00  0.00    +0.051 A 
BRANCH  23  29
ATOM     29  O   UNL     1      -2.946  -0.065  -0.110  0.00  0.00    -0.492 OA
BRANCH  29  31
ATOM     30  C   UNL     1      -2.037   2.172  -0.036  0.00  0.00    +0.048 C 
ATOM     31  C   UNL     1      -1.734   0.675   0.043  0.00  0.00    +0.225 C 
ENDBRANCH  29  31
ENDBRANCH  23  29
ENDBRANCH   1  27
BRANCH   2  32
ATOM     32  C   UNL     1      -5.963  -3.786   1.985  0.00  0.00    +0.340 C 
ATOM     33  O   UNL     1      -6.491  -4.088   3.041  0.00  0.00    -0.245 OA
BRANCH  32  34
ATOM     34  O   UNL     1      -5.703  -2.490   1.706  0.00  0.00    -0.457 OA
BRANCH  34  35
ATOM     35  C   UNL     1      -6.073  -1.527   2.695  0.00  0.00    +0.259 C 
BRANCH  35  36
ATOM     36  C   UNL     1      -5.708  -0.146   2.213  0.00  0.00    +0.006 C 
ATOM     37  C   UNL     1      -6.562   0.839   2.342  0.00  0.00    +0.007 C 
ENDBRANCH  35  36
ENDBRANCH  34  35
ENDBRANCH  32  34
ENDBRANCH   2  32
TORSDOF 8
