REMARK  Name = ZINC59366109
REMARK  14 active torsions:
REMARK  status: ('A' for Active; 'I' for Inactive)
REMARK    1  A    between atoms: C_1  and  C_2
REMARK    2  A    between atoms: C_2  and  O_3
REMARK    3  A    between atoms: O_3  and  C_4
REMARK    4  A    between atoms: C_7  and  N_10
REMARK    5  A    between atoms: C_12  and  C_33
REMARK    6  A    between atoms: C_16  and  C_17
REMARK    7  A    between atoms: C_19  and  C_31
REMARK    8  A    between atoms: N_20  and  C_23
REMARK    9  A    between atoms: C_21  and  C_22
REMARK   10  A    between atoms: C_25  and  C_30
REMARK   11  A    between atoms: C_27  and  C_29
REMARK   12  A    between atoms: C_33  and  O_35
REMARK   13  A    between atoms: O_35  and  C_36
REMARK   14  A    between atoms: C_36  and  C_37
REMARK                            x       y       z     vdW  Elec       q    Type
REMARK                         _______ _______ _______ _____ _____    ______ ____
ROOT
ATOM      1  N   UNL     1       1.133  -5.926   1.750  0.00  0.00    -0.240 NA
ATOM      2  C   UNL     1       2.287  -6.461   2.107  0.00  0.00    +0.120 C 
ATOM      3  C   UNL     1       2.622  -7.878   2.314  0.00  0.00    +0.139 C 
ATOM      4  C   UNL     1       3.914  -8.157   2.686  0.00  0.00    +0.209 C 
ATOM      5  O   UNL     1       4.311  -9.432   2.898  0.00  0.00    -0.286 OA
ATOM      6  C   UNL     1       4.820  -7.085   2.844  0.00  0.00    +0.062 C 
ATOM      7  C   UNL     1       6.136  -7.137   3.204  0.00  0.00    +0.028 C 
ATOM      8  S   UNL     1       3.838  -5.649   2.452  0.00  0.00    -0.065 S 
ENDROOT
BRANCH   7   9
ATOM      9  C   UNL     1       6.914  -5.901   3.313  0.00  0.00    -0.003 A 
ATOM     10  C   UNL     1       6.436  -4.532   3.079  0.00  0.00    +0.031 A 
ATOM     11  C   UNL     1       7.484  -3.719   3.293  0.00  0.00    +0.022 A 
ATOM     12  N   UNL     1       8.573  -4.469   3.641  0.00  0.00    -0.317 N 
ATOM     13  C   UNL     1       8.246  -5.785   3.664  0.00  0.00    +0.028 A 
ATOM     14  C   UNL     1       9.174  -6.922   4.009  0.00  0.00    +0.064 C 
ATOM     15  C   UNL     1       7.463  -2.217   3.169  0.00  0.00    +0.064 C 
BRANCH  12  16
ATOM     16  C   UNL     1       9.841  -3.952   3.937  0.00  0.00    +0.047 A 
ATOM     17  C   UNL     1      10.921  -4.243   3.114  0.00  0.00    +0.029 A 
ATOM     18  C   UNL     1      12.169  -3.732   3.409  0.00  0.00    -0.048 A 
ATOM     19  C   UNL     1      12.345  -2.931   4.522  0.00  0.00    +0.006 A 
ATOM     20  C   UNL     1      11.272  -2.639   5.344  0.00  0.00    -0.048 A 
ATOM     21  C   UNL     1      10.019  -3.143   5.051  0.00  0.00    +0.029 A 
ATOM     22  C   UNL     1      11.468  -1.765   6.556  0.00  0.00    +0.044 C 
ATOM     23  C   UNL     1      13.342  -4.048   2.516  0.00  0.00    +0.044 C 
ENDBRANCH  12  16
ENDBRANCH   7   9
BRANCH   1  27
ATOM     24  C   UNL     1       0.802  -1.825   1.306  0.00  0.00    +0.121 A 
ATOM     25  C   UNL     1       0.258  -2.671   0.349  0.00  0.00    +0.048 A 
ATOM     26  C   UNL     1       0.366  -4.038   0.492  0.00  0.00    +0.031 A 
ATOM     27  C   UNL     1       1.024  -4.572   1.603  0.00  0.00    +0.065 A 
ATOM     28  C   UNL     1       1.570  -3.716   2.564  0.00  0.00    +0.031 A 
ATOM     29  C   UNL     1       1.462  -2.350   2.409  0.00  0.00    +0.048 A 
BRANCH  24  30
ATOM     30  O   UNL     1       0.693  -0.477   1.160  0.00  0.00    -0.492 OA
BRANCH  30  32
ATOM     31  C   UNL     1      -0.019   1.526   0.010  0.00  0.00    +0.048 C 
ATOM     32  C   UNL     1       0.002  -0.004   0.002  0.00  0.00    +0.225 C 
ENDBRANCH  30  32
ENDBRANCH  24  30
ENDBRANCH   1  27
BRANCH   3  33
ATOM     33  C   UNL     1       1.630  -8.937   2.132  0.00  0.00    +0.346 C 
ATOM     34  O   UNL     1       1.941 -10.099   2.312  0.00  0.00    -0.245 OA
BRANCH  33  35
ATOM     35  O   UNL     1       0.369  -8.624   1.766  0.00  0.00    -0.461 OA
BRANCH  35  36
ATOM     36  C   UNL     1      -0.548  -9.709   1.607  0.00  0.00    +0.229 C 
ATOM     37  C   UNL     1      -1.916  -9.163   1.192  0.00  0.00    +0.048 C 
ENDBRANCH  35  36
ENDBRANCH  33  35
ENDBRANCH   3  33
TORSDOF 8
