REMARK  Name = ZINC39665368
REMARK  7 active torsions:
REMARK  status: ('A' for Active; 'I' for Inactive)
REMARK    1  A    between atoms: C_1  and  C_2
REMARK    2  A    between atoms: C_2  and  C_4
REMARK    3  A    between atoms: C_2  and  O_30
REMARK    4  A    between atoms: C_4  and  N_5
REMARK    5  A    between atoms: C_6  and  C_8
REMARK    6  A    between atoms: C_19  and  C_21
REMARK    7  A    between atoms: O_30  and  C_31
REMARK                            x       y       z     vdW  Elec       q    Type
REMARK                         _______ _______ _______ _____ _____    ______ ____
ROOT
ATOM      1  C   UNL     1       1.595  -3.983   2.436  0.00  0.00    +0.100 C 
ATOM      2  C   UNL     1       2.616  -4.423   1.364  0.00  0.00    +0.121 C 
ATOM      3  N   UNL     1       3.882  -4.616   2.110  0.00  0.00    -0.296 N 
ATOM      4  C   UNL     1       3.465  -5.245   3.386  0.00  0.00    +0.115 C 
ATOM      5  C   UNL     1       2.153  -4.527   3.761  0.00  0.00    -0.004 C 
ATOM      6  C   UNL     1       1.171  -5.515   4.383  0.00  0.00    -0.010 C 
ATOM      7  C   UNL     1       1.721  -5.998   5.728  0.00  0.00    -0.082 C 
ATOM      8  N   UNL     1       1.921  -4.848   6.619  0.00  0.00    +0.379 N 
ATOM      9  C   UNL     1       2.936  -3.950   6.057  0.00  0.00    -0.082 C 
ATOM     10  C   UNL     1       2.437  -3.380   4.726  0.00  0.00    -0.010 C 
ATOM     11  C   UNL     1       5.130  -4.293   1.717  0.00  0.00    +0.248 C 
ATOM     12  O   UNL     1       5.303  -3.684   0.678  0.00  0.00    -0.270 OA
ATOM     13  H   UNL     1       1.050  -4.348   6.720  0.00  0.00    -0.086 HD
ATOM     14  H   UNL     1       2.225  -5.174   7.524  0.00  0.00    -0.086 HD
ENDROOT
BRANCH  11  15
ATOM     15  C   UNL     1       6.282  -4.678   2.542  0.00  0.00    +0.052 A 
ATOM     16  C   UNL     1       6.217  -5.743   3.383  0.00  0.00    +0.059 A 
ATOM     17  S   UNL     1       7.723  -5.823   4.118  0.00  0.00    -0.096 S 
ATOM     18  C   UNL     1       8.523  -4.443   3.346  0.00  0.00    +0.020 A 
ATOM     19  C   UNL     1       7.539  -3.928   2.480  0.00  0.00    +0.001 A 
ATOM     20  C   UNL     1       7.885  -2.804   1.707  0.00  0.00    +0.010 A 
ATOM     21  C   UNL     1       9.138  -2.252   1.806  0.00  0.00    +0.001 A 
ATOM     22  C   UNL     1      10.092  -2.782   2.663  0.00  0.00    +0.001 A 
ATOM     23  C   UNL     1       9.776  -3.878   3.442  0.00  0.00    +0.015 A 
ENDBRANCH  11  15
BRANCH   1  25
ATOM     24  N   UNL     1       0.412  -1.891   3.020  0.00  0.00    -0.312 N 
ATOM     25  C   UNL     1       1.499  -2.480   2.485  0.00  0.00    +0.218 C 
ATOM     26  O   UNL     1       2.401  -1.801   2.042  0.00  0.00    -0.275 OA
ATOM     27  H   UNL     1      -0.309  -2.434   3.375  0.00  0.00    +0.149 HD
BRANCH  24  28
ATOM     28  C   UNL     1       0.320  -0.429   3.068  0.00  0.00    +0.148 C 
BRANCH  28  30
ATOM     29  C   UNL     1      -1.157   1.498   3.656  0.00  0.00    +0.053 C 
ATOM     30  C   UNL     1      -1.004  -0.023   3.719  0.00  0.00    +0.187 C 
BRANCH  30  31
ATOM     31  O   UNL     1      -1.012  -0.447   5.084  0.00  0.00    -0.488 OA
BRANCH  31  32
ATOM     32  C   UNL     1      -2.227  -0.645   5.660  0.00  0.00    +0.121 A 
ATOM     33  C   UNL     1      -3.383  -0.540   4.900  0.00  0.00    +0.045 A 
ATOM     34  C   UNL     1      -4.616  -0.743   5.488  0.00  0.00    +0.004 A 
ATOM     35  C   UNL     1      -4.699  -1.051   6.834  0.00  0.00    +0.000 A 
ATOM     36  C   UNL     1      -3.549  -1.156   7.594  0.00  0.00    +0.004 A 
ATOM     37  C   UNL     1      -2.313  -0.960   7.009  0.00  0.00    +0.045 A 
ENDBRANCH  31  32
ENDBRANCH  30  31
ENDBRANCH  28  30
ENDBRANCH  24  28
ENDBRANCH   1  25
TORSDOF 6
