REMARK  Name = ZINC02251226
REMARK  4 active torsions:
REMARK  status: ('A' for Active; 'I' for Inactive)
REMARK    1  A    between atoms: C_5  and  C_7
REMARK    2  A    between atoms: C_8  and  C_9
REMARK    3  A    between atoms: C_17  and  C_29
REMARK    4  A    between atoms: C_20  and  C_22
REMARK                            x       y       z     vdW  Elec       q    Type
REMARK                         _______ _______ _______ _____ _____    ______ ____
ROOT
ATOM      1  C   UNL     1       0.127  -4.315  -0.024  0.00  0.00    +0.243 C 
ATOM      2  O   UNL     1       1.193  -4.902  -0.037  0.00  0.00    -0.270 OA
ATOM      3  N   UNL     1      -1.026  -5.011  -0.016  0.00  0.00    -0.250 N 
ATOM      4  C   UNL     1      -0.999  -6.408  -0.025  0.00  0.00    +0.243 A 
ATOM      5  N   UNL     1       0.107  -7.160  -0.034  0.00  0.00    -0.176 NA
ATOM      6  C   UNL     1      -0.223  -8.428  -0.042  0.00  0.00    +0.251 A 
ATOM      7  N   UNL     1      -1.589  -8.500  -0.030  0.00  0.00    -0.220 N 
ATOM      8  N   UNL     1      -2.059  -7.191  -0.019  0.00  0.00    -0.131 NA
ATOM      9  C   UNL     1      -2.312  -9.772  -0.018  0.00  0.00    +0.147 C 
ATOM     10  C   UNL     1      -1.446 -10.816  -0.733  0.00  0.00    +0.087 C 
ATOM     11  C   UNL     1      -0.006 -10.695  -0.323  0.00  0.00    +0.055 C 
ATOM     12  N   UNL     1       0.550  -9.548  -0.038  0.00  0.00    -0.215 NA
ATOM     13  H   UNL     1      -1.876  -4.543  -0.005  0.00  0.00    +0.158 HD
ENDROOT
BRANCH  11  14
ATOM     14  C   UNL     1       0.811 -11.916  -0.240  0.00  0.00    -0.003 A 
ATOM     15  C   UNL     1       0.248 -13.160  -0.544  0.00  0.00    +0.011 A 
ATOM     16  C   UNL     1       1.019 -14.299  -0.464  0.00  0.00    +0.020 A 
ATOM     17  C   UNL     1       2.348 -14.215  -0.083  0.00  0.00    +0.041 A 
ATOM     18  C   UNL     1       2.913 -12.986   0.219  0.00  0.00    +0.020 A 
ATOM     19  C   UNL     1       2.155 -11.837   0.138  0.00  0.00    +0.011 A 
ATOM     20 CL   UNL     1       3.312 -15.656   0.016  0.00  0.00    -0.084 Cl
ENDBRANCH  11  14
BRANCH   9  21
ATOM     21  C   UNL     1      -2.561 -10.203   1.405  0.00  0.00    -0.022 A 
ATOM     22  C   UNL     1      -1.495 -10.416   2.259  0.00  0.00    +0.008 A 
ATOM     23  C   UNL     1      -1.723 -10.810   3.563  0.00  0.00    +0.038 A 
ATOM     24  C   UNL     1      -3.019 -10.992   4.015  0.00  0.00    +0.123 A 
ATOM     25  C   UNL     1      -4.086 -10.779   3.159  0.00  0.00    +0.038 A 
ATOM     26  C   UNL     1      -3.856 -10.379   1.856  0.00  0.00    +0.008 A 
ATOM     27  F   UNL     1      -3.242 -11.378   5.290  0.00  0.00    -0.205 F 
ENDBRANCH   9  21
BRANCH   1  29
ATOM     28  C   UNL     1       1.253  -2.155  -0.022  0.00  0.00    +0.014 C 
ATOM     29  C   UNL     1       0.099  -2.852  -0.015  0.00  0.00    +0.068 C 
BRANCH  28  34
ATOM     30  C   UNL     1      -0.017   1.374   0.010  0.00  0.00    +0.001 A 
ATOM     31  C   UNL     1       1.170   2.087   0.002  0.00  0.00    +0.001 A 
ATOM     32  C   UNL     1       2.384   1.424  -0.013  0.00  0.00    +0.020 A 
ATOM     33  C   UNL     1       2.421   0.044  -0.021  0.00  0.00    +0.048 A 
ATOM     34  C   UNL     1       1.225  -0.683  -0.014  0.00  0.00    -0.007 A 
ATOM     35  C   UNL     1       0.002  -0.004   0.002  0.00  0.00    +0.009 A 
ATOM     36 CL   UNL     1       3.945  -0.787  -0.041  0.00  0.00    -0.083 Cl
ENDBRANCH  28  34
ENDBRANCH   1  29
TORSDOF 4
