REMARK  Name = ZINC33682971
REMARK  9 active torsions:
REMARK  status: ('A' for Active; 'I' for Inactive)
REMARK    1  A    between atoms: C_1  and  C_2
REMARK    2  A    between atoms: C_2  and  C_4
REMARK    3  A    between atoms: C_2  and  C_8
REMARK    4  A    between atoms: C_4  and  O_6
REMARK    5  A    between atoms: O_6  and  C_7
REMARK    6  A    between atoms: C_8  and  O_32
REMARK    7  A    between atoms: C_13  and  C_31
REMARK    8  A    between atoms: C_23  and  C_30
REMARK    9  A    between atoms: C_26  and  O_29
REMARK                            x       y       z     vdW  Elec       q    Type
REMARK                         _______ _______ _______ _____ _____    ______ ____
ROOT
ATOM      1  C   UNL     1       0.123   0.294  -0.045  0.00  0.00    +0.084 C 
ATOM      2  C   UNL     1       0.437   1.811  -0.053  0.00  0.00    +0.036 C 
ATOM      3  C   UNL     1       1.985   1.941  -0.025  0.00  0.00    +0.007 C 
ATOM      4  C   UNL     1       2.461   0.522  -0.372  0.00  0.00    +0.001 C 
ATOM      5  C   UNL     1       1.453  -0.352   0.401  0.00  0.00    +0.001 C 
ATOM      6  C   UNL     1       1.593  -1.809   0.040  0.00  0.00    +0.010 C 
ATOM      7  C   UNL     1       3.057  -2.161  -0.271  0.00  0.00    +0.005 C 
ATOM      8  C   UNL     1       4.006  -1.239   0.479  0.00  0.00    +0.003 C 
ATOM      9  C   UNL     1       3.888   0.186  -0.083  0.00  0.00    +0.000 C 
ATOM     10  C   UNL     1       4.583   1.122   0.906  0.00  0.00    +0.031 C 
ATOM     11  C   UNL     1       6.015   0.659   1.017  0.00  0.00    -0.027 C 
ATOM     12  C   UNL     1       6.391  -0.560   0.779  0.00  0.00    -0.065 C 
ATOM     13  C   UNL     1       5.457  -1.685   0.401  0.00  0.00    -0.008 C 
ATOM     14  C   UNL     1       5.841  -2.196  -0.981  0.00  0.00    +0.014 C 
ATOM     15  C   UNL     1       7.150  -1.552  -1.438  0.00  0.00    +0.032 C 
ATOM     16  C   UNL     1       8.247  -1.682  -0.387  0.00  0.00    +0.119 C 
ATOM     17  C   UNL     1       7.865  -0.915   0.885  0.00  0.00    +0.062 C 
ATOM     18  C   UNL     1       5.646  -2.822   1.412  0.00  0.00    +0.016 C 
ATOM     19  C   UNL     1       1.549  -0.153   1.917  0.00  0.00    +0.014 C 
ENDROOT
BRANCH   1  21
ATOM     20  C   UNL     1      -2.257   0.715   0.576  0.00  0.00    +0.022 C 
ATOM     21  C   UNL     1      -0.975  -0.023   0.967  0.00  0.00    +0.127 C 
BRANCH  21  22
ATOM     22  C   UNL     1      -1.234  -1.508   0.978  0.00  0.00    +0.312 C 
ATOM     23  O   UNL     1      -0.603  -2.237   0.250  0.00  0.00    -0.250 OA
BRANCH  22  24
ATOM     24  O   UNL     1      -2.166  -2.020   1.797  0.00  0.00    -0.468 OA
ATOM     25  C   UNL     1      -2.361  -3.459   1.755  0.00  0.00    +0.280 C 
ENDBRANCH  22  24
ENDBRANCH  21  22
ENDBRANCH   1  21
BRANCH  16  26
ATOM     26  O   UNL     1       8.461  -3.059  -0.076  0.00  0.00    -0.391 OA
ATOM     27  H   UNL     1       9.221  -3.343   0.667  0.00  0.00    +0.210 HD
ENDBRANCH  16  26
BRANCH   1  28
ATOM     28  O   UNL     1      -0.235  -0.154  -1.347  0.00  0.00    -0.387 OA
ATOM     29  H   UNL     1       0.454   0.000  -2.190  0.00  0.00    +0.210 HD
ENDBRANCH   1  28
TORSDOF 5
