REMARK  Name = ZINC35361518
REMARK  6 active torsions:
REMARK  status: ('A' for Active; 'I' for Inactive)
REMARK    1  A    between atoms: C_1  and  C_2
REMARK    2  A    between atoms: C_15  and  O_34
REMARK    3  A    between atoms: C_18  and  C_31
REMARK    4  A    between atoms: C_23  and  C_25
REMARK    5  A    between atoms: C_25  and  C_30
REMARK    6  A    between atoms: N_32  and  O_33
REMARK                            x       y       z     vdW  Elec       q    Type
REMARK                         _______ _______ _______ _____ _____    ______ ____
ROOT
ATOM      1  C   UNL     1       1.049   1.165   0.158  0.00  0.00    +0.012 C 
ATOM      2  C   UNL     1       1.591  -0.275   0.166  0.00  0.00    -0.023 C 
ATOM      3  C   UNL     1       0.387  -1.174   0.493  0.00  0.00    +0.012 C 
ATOM      4  C   UNL     1       0.819  -2.615   0.742  0.00  0.00    +0.065 C 
ATOM      5  C   UNL     1       1.790  -2.639   1.926  0.00  0.00    +0.170 C 
ATOM      6  C   UNL     1       3.030  -1.830   1.543  0.00  0.00    +0.069 C 
ATOM      7  C   UNL     1       2.621  -0.379   1.288  0.00  0.00    +0.000 C 
ATOM      8  C   UNL     1       3.867   0.436   0.936  0.00  0.00    +0.004 C 
ATOM      9  C   UNL     1       4.502  -0.162  -0.317  0.00  0.00    +0.004 C 
ATOM     10  C   UNL     1       3.539  -0.069  -1.499  0.00  0.00    -0.001 C 
ATOM     11  C   UNL     1       2.170  -0.655  -1.184  0.00  0.00    +0.027 C 
ATOM     12  C   UNL     1       1.165  -0.458  -2.309  0.00  0.00    +0.119 C 
ATOM     13  C   UNL     1       1.187   0.903  -3.001  0.00  0.00    +0.045 C 
ATOM     14  C   UNL     1       2.587   1.357  -3.308  0.00  0.00    +0.022 C 
ATOM     15  C   UNL     1       3.426   1.342  -2.007  0.00  0.00    +0.005 C 
ATOM     16  C   UNL     1       4.731   2.010  -2.470  0.00  0.00    +0.005 C 
ATOM     17  C   UNL     1       4.231   3.156  -3.389  0.00  0.00    +0.010 C 
ATOM     18  C   UNL     1       2.776   2.800  -3.791  0.00  0.00    +0.060 C 
ATOM     19  O   UNL     1       1.161  -2.039   3.071  0.00  0.00    -0.346 OA
ATOM     20  C   UNL     1       0.545  -3.152   3.763  0.00  0.00    +0.191 C 
ATOM     21  C   UNL     1       1.588  -4.276   3.550  0.00  0.00    +0.191 C 
ATOM     22  O   UNL     1       2.144  -3.984   2.252  0.00  0.00    -0.346 OA
ENDROOT
BRANCH  18  23
ATOM     23  C   UNL     1       1.792   3.762  -3.122  0.00  0.00    +0.171 C 
ATOM     24  O   UNL     1       0.446   3.389  -3.460  0.00  0.00    -0.346 OA
ATOM     25  C   UNL     1      -0.267   4.644  -3.582  0.00  0.00    +0.191 C 
ATOM     26  C   UNL     1       0.815   5.561  -4.206  0.00  0.00    +0.191 C 
ATOM     27  O   UNL     1       2.032   5.097  -3.587  0.00  0.00    -0.346 OA
ATOM     28  C   UNL     1       1.972   3.707  -1.603  0.00  0.00    +0.074 C 
ENDBRANCH  18  23
BRANCH  14  29
ATOM     29  C   UNL     1       3.198   0.462  -4.362  0.00  0.00    +0.133 C 
ATOM     30  N   UNL     1       2.525  -0.518  -4.837  0.00  0.00    -0.099 NA
BRANCH  30  31
ATOM     31  O   UNL     1       3.097  -1.357  -5.824  0.00  0.00    -0.409 OA
ATOM     32  H   UNL     1       2.513  -2.068  -6.121  0.00  0.00    +0.328 HD
ENDBRANCH  30  31
ENDBRANCH  14  29
BRANCH  12  33
ATOM     33  O   UNL     1       1.341  -1.501  -3.279  0.00  0.00    -0.391 OA
ATOM     34  H   UNL     1       0.735  -1.445  -4.030  0.00  0.00    +0.210 HD
ENDBRANCH  12  33
TORSDOF 4
