REMARK  Name = ZINC13640151
REMARK  7 active torsions:
REMARK  status: ('A' for Active; 'I' for Inactive)
REMARK    1  A    between atoms: C_1  and  C_2
REMARK    2  A    between atoms: C_2  and  C_3
REMARK    3  A    between atoms: C_3  and  N_4
REMARK    4  A    between atoms: C_5  and  C_7
REMARK    5  A    between atoms: C_14  and  C_23
REMARK    6  A    between atoms: C_26  and  O_30
REMARK    7  A    between atoms: C_28  and  O_29
REMARK                            x       y       z     vdW  Elec       q    Type
REMARK                         _______ _______ _______ _____ _____    ______ ____
ROOT
ATOM      1  C   UNL     1      -0.225  -4.328   0.313  0.00  0.00    +0.058 A 
ATOM      2  C   UNL     1       0.314  -5.343  -0.476  0.00  0.00    +0.015 A 
ATOM      3  C   UNL     1       0.552  -5.124  -1.815  0.00  0.00    +0.001 A 
ATOM      4  C   UNL     1       0.261  -3.890  -2.374  0.00  0.00    +0.006 A 
ATOM      5  C   UNL     1      -0.265  -2.873  -1.608  0.00  0.00    -0.019 A 
ATOM      6  C   UNL     1      -0.529  -3.071  -0.249  0.00  0.00    +0.044 A 
ATOM      7  N   UNL     1      -1.078  -2.112   0.585  0.00  0.00    -0.336 N 
ATOM      8  C   UNL     1      -1.293  -0.775   0.010  0.00  0.00    +0.108 C 
ATOM      9  C   UNL     1      -1.783  -0.975  -1.409  0.00  0.00    +0.029 C 
ATOM     10  C   UNL     1      -0.546  -1.537  -2.177  0.00  0.00    +0.049 C 
ATOM     11  C   UNL     1      -0.935  -1.337  -3.594  0.00  0.00    -0.023 C 
ATOM     12  C   UNL     1      -1.748  -0.288  -3.665  0.00  0.00    -0.030 C 
ATOM     13  C   UNL     1      -1.994   0.276  -2.263  0.00  0.00    +0.033 C 
ATOM     14  H   UNL     1      -1.917  -2.455   1.028  0.00  0.00    +0.147 HD
ENDROOT
BRANCH   8  15
ATOM     15  C   UNL     1       0.002  -0.004   0.002  0.00  0.00    +0.015 A 
ATOM     16  C   UNL     1       1.208  -0.680  -0.013  0.00  0.00    +0.012 A 
ATOM     17  C   UNL     1       2.396   0.024  -0.021  0.00  0.00    +0.046 A 
ATOM     18  C   UNL     1       2.383   1.412  -0.014  0.00  0.00    +0.120 A 
ATOM     19  C   UNL     1       1.175   2.092   0.002  0.00  0.00    +0.091 A 
ATOM     20  C   UNL     1      -0.017   1.383   0.010  0.00  0.00    +0.125 A 
BRANCH  20  21
ATOM     21  O   UNL     1      -1.202   2.047   0.019  0.00  0.00    -0.506 OA
ATOM     22  H   UNL     1      -1.541   2.235   0.905  0.00  0.00    +0.292 HD
ENDBRANCH  20  21
BRANCH  18  23
ATOM     23  O   UNL     1       3.553   2.103  -0.021  0.00  0.00    -0.507 OA
ATOM     24  H   UNL     1       3.883   2.308  -0.906  0.00  0.00    +0.292 HD
ENDBRANCH  18  23
ENDBRANCH   8  15
BRANCH   1  26
ATOM     25  N   UNL     1      -0.189  -5.770   2.287  0.00  0.00    -0.311 N 
ATOM     26  C   UNL     1      -0.479  -4.570   1.745  0.00  0.00    +0.246 C 
ATOM     27  O   UNL     1      -0.949  -3.688   2.437  0.00  0.00    -0.270 OA
ATOM     28  H   UNL     1       0.186  -6.474   1.735  0.00  0.00    +0.149 HD
BRANCH  25  29
ATOM     29  C   UNL     1      -0.441  -6.011   3.710  0.00  0.00    +0.104 C 
BRANCH  29  31
ATOM     30  C   UNL     1      -0.291  -7.692   5.552  0.00  0.00    +0.005 C 
ATOM     31  C   UNL     1      -0.028  -7.440   4.066  0.00  0.00    +0.015 C 
ENDBRANCH  29  31
ENDBRANCH  25  29
ENDBRANCH   1  26
TORSDOF 6
