REMARK  Name = ZINC13641408
REMARK  6 active torsions:
REMARK  status: ('A' for Active; 'I' for Inactive)
REMARK    1  A    between atoms: C_1  and  C_2
REMARK    2  A    between atoms: C_9  and  N_13
REMARK    3  A    between atoms: C_10  and  C_11
REMARK    4  A    between atoms: C_14  and  C_16
REMARK    5  A    between atoms: C_18  and  C_31
REMARK    6  A    between atoms: C_22  and  C_25
REMARK                            x       y       z     vdW  Elec       q    Type
REMARK                         _______ _______ _______ _____ _____    ______ ____
ROOT
ATOM      1  C   UNL     1       0.746   1.654   1.376  0.00  0.00    +0.054 A 
ATOM      2  C   UNL     1      -0.177   2.412   2.090  0.00  0.00    +0.043 A 
ATOM      3  C   UNL     1      -0.309   3.774   1.798  0.00  0.00    +0.082 A 
ATOM      4  N   UNL     1       0.419   4.350   0.850  0.00  0.00    -0.209 NA
ATOM      5  C   UNL     1       1.306   3.671   0.140  0.00  0.00    +0.260 A 
ATOM      6  C   UNL     1       1.501   2.301   0.377  0.00  0.00    +0.081 A 
ATOM      7  C   UNL     1       2.536   1.855  -0.564  0.00  0.00    +0.123 A 
ATOM      8  N   UNL     1       2.889   2.896  -1.270  0.00  0.00    -0.075 NA
ATOM      9  O   UNL     1       2.147   4.024  -0.855  0.00  0.00    -0.334 OA
ENDROOT
BRANCH   7  10
ATOM     10  C   UNL     1       3.079   0.480  -0.689  0.00  0.00    +0.004 A 
ATOM     11  C   UNL     1       2.383  -0.484  -1.415  0.00  0.00    +0.010 A 
ATOM     12  C   UNL     1       2.896  -1.759  -1.534  0.00  0.00    +0.001 A 
ATOM     13  C   UNL     1       4.093  -2.086  -0.922  0.00  0.00    +0.000 A 
ATOM     14  C   UNL     1       4.786  -1.134  -0.194  0.00  0.00    +0.001 A 
ATOM     15  C   UNL     1       4.285   0.146  -0.075  0.00  0.00    +0.010 A 
ENDBRANCH   7  10
BRANCH   3  16
ATOM     16  C   UNL     1      -1.281   4.585   2.555  0.00  0.00    +0.038 A 
ATOM     17  C   UNL     1      -1.575   5.919   2.433  0.00  0.00    +0.017 A 
ATOM     18  C   UNL     1      -2.531   6.464   3.259  0.00  0.00    +0.008 A 
ATOM     19  C   UNL     1      -3.154   5.667   4.167  0.00  0.00    +0.046 A 
ATOM     20  S   UNL     1      -2.387   4.083   3.864  0.00  0.00    -0.095 S 
ENDBRANCH   3  16
BRANCH   1  22
ATOM     21  N   UNL     1       0.108  -0.414   2.524  0.00  0.00    -0.275 N 
ATOM     22  C   UNL     1       0.926   0.212   1.654  0.00  0.00    +0.250 C 
ATOM     23  O   UNL     1       1.810  -0.409   1.097  0.00  0.00    -0.270 OA
ATOM     24  H   UNL     1      -0.598   0.081   2.968  0.00  0.00    +0.156 HD
BRANCH  21  32
ATOM     25  C   UNL     1       1.444  -8.017   3.782  0.00  0.00    +0.008 C 
ATOM     26  C   UNL     1       1.091  -6.549   4.025  0.00  0.00    -0.009 C 
ATOM     27  C   UNL     1      -0.429  -6.398   4.134  0.00  0.00    +0.008 C 
ATOM     28  C   UNL     1      -0.779  -4.990   4.620  0.00  0.00    +0.037 C 
ATOM     29  C   UNL     1      -0.074  -3.974   3.730  0.00  0.00    -0.018 A 
ATOM     30  C   UNL     1       0.976  -4.336   2.958  0.00  0.00    -0.004 A 
ATOM     31  S   UNL     1       1.448  -2.853   2.114  0.00  0.00    -0.077 S 
ATOM     32  C   UNL     1       0.276  -1.766   2.784  0.00  0.00    +0.090 A 
ATOM     33  C   UNL     1      -0.457  -2.577   3.638  0.00  0.00    +0.084 A 
ATOM     34  C   UNL     1       1.589  -5.697   2.848  0.00  0.00    +0.046 C 
BRANCH  33  35
ATOM     35  C   UNL     1      -1.551  -2.055   4.400  0.00  0.00    +0.102 C 
ATOM     36  N   UNL     1      -2.419  -1.641   5.004  0.00  0.00    -0.191 NA
ENDBRANCH  33  35
ENDBRANCH  21  32
ENDBRANCH   1  22
TORSDOF 5
