REMARK  Name = ZINC12331058
REMARK  7 active torsions:
REMARK  status: ('A' for Active; 'I' for Inactive)
REMARK    1  A    between atoms: C_1  and  C_2
REMARK    2  A    between atoms: C_6  and  C_7
REMARK    3  A    between atoms: N_9  and  C_10
REMARK    4  A    between atoms: N_9  and  C_20
REMARK    5  A    between atoms: C_10  and  C_11
REMARK    6  A    between atoms: C_20  and  C_21
REMARK    7  A    between atoms: C_29  and  N_30
REMARK                            x       y       z     vdW  Elec       q    Type
REMARK                         _______ _______ _______ _____ _____    ______ ____
ROOT
ATOM      1  C   UNL     1       4.262  -1.378   2.330  0.00  0.00    +0.254 C 
ATOM      2  O   UNL     1       3.590  -2.385   2.209  0.00  0.00    -0.269 OA
ATOM      3  N   UNL     1       4.313  -0.477   1.329  0.00  0.00    -0.288 N 
ENDROOT
BRANCH   1   9
ATOM      4  C   UNL     1       4.654  -3.394   4.652  0.00  0.00    +0.045 C 
ATOM      5  C   UNL     1       5.227  -2.001   4.635  0.00  0.00    -0.031 A 
ATOM      6  C   UNL     1       5.984  -1.525   5.677  0.00  0.00    +0.011 A 
ATOM      7  C   UNL     1       6.474  -0.259   5.617  0.00  0.00    +0.046 A 
ATOM      8  S   UNL     1       5.896   0.317   4.087  0.00  0.00    -0.092 S 
ATOM      9  C   UNL     1       5.016  -1.145   3.565  0.00  0.00    +0.077 A 
ENDBRANCH   1   9
BRANCH   3  10
ATOM     10  C   UNL     1       5.225   0.666   1.419  0.00  0.00    +0.143 C 
BRANCH  10  11
ATOM     11  C   UNL     1       6.579   0.271   0.888  0.00  0.00    -0.026 A 
ATOM     12  C   UNL     1       7.478  -0.382   1.711  0.00  0.00    +0.009 A 
ATOM     13  C   UNL     1       8.719  -0.751   1.228  0.00  0.00    +0.050 A 
ATOM     14  C   UNL     1       9.070  -0.456  -0.080  0.00  0.00    +0.166 A 
ATOM     15  C   UNL     1       8.166   0.206  -0.907  0.00  0.00    +0.167 A 
ATOM     16  C   UNL     1       6.922   0.568  -0.417  0.00  0.00    +0.054 A 
ATOM     17  O   UNL     1       8.742   0.378  -2.133  0.00  0.00    -0.453 OA
ATOM     18  C   UNL     1      10.153   0.179  -1.926  0.00  0.00    +0.466 C 
ATOM     19  O   UNL     1      10.212  -0.700  -0.787  0.00  0.00    -0.453 OA
ENDBRANCH  10  11
ENDBRANCH   3  10
BRANCH   3  20
ATOM     20  C   UNL     1       3.457  -0.641   0.152  0.00  0.00    +0.147 C 
BRANCH  20  21
ATOM     21  C   UNL     1       2.195   0.164   0.332  0.00  0.00    +0.009 A 
ATOM     22  C   UNL     1       1.958   0.806   1.510  0.00  0.00    +0.018 A 
ATOM     23  C   UNL     1       0.767   1.548   1.639  0.00  0.00    -0.001 A 
ATOM     24  C   UNL     1       0.461   2.235   2.825  0.00  0.00    +0.013 A 
ATOM     25  C   UNL     1      -0.699   2.942   2.914  0.00  0.00    +0.039 A 
ATOM     26  C   UNL     1      -1.589   2.993   1.841  0.00  0.00    +0.125 A 
ATOM     27  C   UNL     1      -1.320   2.342   0.674  0.00  0.00    +0.064 A 
ATOM     28  C   UNL     1      -0.135   1.598   0.548  0.00  0.00    +0.050 A 
ATOM     29  C   UNL     1       1.263   0.252  -0.711  0.00  0.00    +0.104 A 
ATOM     30  F   UNL     1      -2.733   3.703   1.959  0.00  0.00    -0.205 F 
ATOM     31  N   UNL     1       0.102   0.950  -0.644  0.00  0.00    -0.343 N 
ATOM     32  H   UNL     1      -0.557   0.992  -1.430  0.00  0.00    +0.167 HD
BRANCH  29  33
ATOM     33  N   UNL     1       1.518  -0.407  -1.904  0.00  0.00    -0.312 N 
ATOM     34  C   UNL     1       1.777   0.549  -2.990  0.00  0.00    +0.134 C 
ATOM     35  C   UNL     1       2.112  -0.219  -4.271  0.00  0.00    +0.178 C 
ATOM     36  O   UNL     1       1.038  -1.111  -4.580  0.00  0.00    -0.377 OA
ATOM     37  C   UNL     1       0.759  -2.057  -3.545  0.00  0.00    +0.178 C 
ATOM     38  C   UNL     1       0.410  -1.308  -2.256  0.00  0.00    +0.134 C 
ENDBRANCH  29  33
ENDBRANCH  20  21
ENDBRANCH   3  20
TORSDOF 6
