REMARK  Name = ZINC04837201
REMARK  5 active torsions:
REMARK  status: ('A' for Active; 'I' for Inactive)
REMARK    1  A    between atoms: C_1  and  S_2
REMARK    2  A    between atoms: S_2  and  C_3
REMARK    3  A    between atoms: C_5  and  N_18
REMARK    4  A    between atoms: C_6  and  C_13
REMARK    5  A    between atoms: N_15  and  C_16
REMARK                            x       y       z     vdW  Elec       q    Type
REMARK                         _______ _______ _______ _____ _____    ______ ____
ROOT
ATOM      1  C   UNL     1      -1.699  -0.463   0.232  0.00  0.00    +0.112 A 
ATOM      2  C   UNL     1      -2.083  -1.831   0.122  0.00  0.00    +0.061 A 
ATOM      3  C   UNL     1      -1.250  -3.014   0.011  0.00  0.00    +0.054 A 
ATOM      4  C   UNL     1      -1.867  -4.242  -0.083  0.00  0.00    +0.075 A 
ATOM      5  S   UNL     1      -3.602  -3.837  -0.024  0.00  0.00    -0.064 S 
ATOM      6  C   UNL     1      -3.475  -2.074   0.122  0.00  0.00    +0.117 A 
ATOM      7  N   UNL     1      -4.346  -1.087   0.218  0.00  0.00    -0.207 NA
ATOM      8  C   UNL     1      -3.929   0.168   0.318  0.00  0.00    +0.215 A 
ATOM      9  N   UNL     1      -2.636   0.467   0.329  0.00  0.00    -0.208 NA
ATOM     10  N   UNL     1      -4.861   1.186   0.416  0.00  0.00    -0.327 N 
ATOM     11  H   UNL     1      -5.808   0.978   0.412  0.00  0.00    +0.145 HD
ATOM     12  H   UNL     1      -4.566   2.107   0.490  0.00  0.00    +0.145 HD
ENDROOT
BRANCH   4  13
ATOM     13  C   UNL     1      -1.246  -5.562  -0.204  0.00  0.00    +0.139 C 
ATOM     14  N   UNL     1       0.059  -5.672  -0.232  0.00  0.00    -0.284 NA
ATOM     15  N   UNL     1      -2.039  -6.695  -0.287  0.00  0.00    -0.236 N 
ATOM     16  H   UNL     1       0.470  -6.547  -0.312  0.00  0.00    +0.188 HD
ATOM     17  H   UNL     1      -3.006  -6.614  -0.266  0.00  0.00    +0.166 HD
BRANCH  15  18
ATOM     18  C   UNL     1      -1.465  -7.917  -0.399  0.00  0.00    +0.172 C 
ATOM     19  N   UNL     1      -0.983  -8.942  -0.492  0.00  0.00    -0.174 NA
ENDBRANCH  15  18
ENDBRANCH   4  13
BRANCH   3  20
ATOM     20  N   UNL     1       0.137  -2.910  -0.001  0.00  0.00    -0.356 N 
ATOM     21  H   UNL     1       0.558  -2.040  -0.078  0.00  0.00    +0.142 HD
ATOM     22  H   UNL     1       0.684  -3.709   0.068  0.00  0.00    +0.142 HD
ENDBRANCH   3  20
BRANCH   1  24
ATOM     23  C   UNL     1      -0.018   1.792   0.406  0.00  0.00    +0.091 C 
ATOM     24  S   UNL     1       0.005  -0.014   0.245  0.00  0.00    -0.108 S 
ENDBRANCH   1  24
TORSDOF 4
