REMARK  Name = ZINC63180170
REMARK  9 active torsions:
REMARK  status: ('A' for Active; 'I' for Inactive)
REMARK    1  A    between atoms: C_1  and  O_2
REMARK    2  A    between atoms: O_2  and  C_3
REMARK    3  A    between atoms: C_6  and  C_11
REMARK    4  A    between atoms: C_8  and  O_9
REMARK    5  A    between atoms: O_9  and  C_10
REMARK    6  A    between atoms: C_17  and  C_19
REMARK    7  A    between atoms: C_19  and  C_20
REMARK    8  A    between atoms: C_20  and  C_21
REMARK    9  A    between atoms: C_29  and  C_31
REMARK                            x       y       z     vdW  Elec       q    Type
REMARK                         _______ _______ _______ _____ _____    ______ ____
ROOT
ATOM      1  C   UNL     1      -6.428  -0.912  -4.418  0.00  0.00    +0.043 C 
ENDROOT
BRANCH   1   2
ATOM      2  C   UNL     1      -7.478  -0.160  -5.194  0.00  0.00    -0.034 C 
ATOM      3  C   UNL     1      -8.611   0.392  -4.704  0.00  0.00    +0.002 A 
ATOM      4  C   UNL     1      -9.184   0.455  -3.354  0.00  0.00    +0.048 A 
ATOM      5  C   UNL     1     -10.364   1.093  -3.170  0.00  0.00    +0.124 A 
ATOM      6  C   UNL     1     -11.050   1.695  -4.237  0.00  0.00    +0.040 A 
ATOM      7  C   UNL     1     -10.587   1.678  -5.504  0.00  0.00    +0.029 A 
ATOM      8  C   UNL     1      -9.356   1.035  -5.811  0.00  0.00    +0.043 A 
ATOM      9  N   UNL     1      -8.707   0.886  -6.941  0.00  0.00    -0.374 N 
ATOM     10  C   UNL     1      -7.474   0.136  -6.677  0.00  0.00    +0.137 C 
ATOM     11  F   UNL     1     -10.894   1.152  -1.929  0.00  0.00    -0.205 F 
ATOM     12  H   UNL     1      -8.994   1.218  -7.806  0.00  0.00    +0.161 HD
BRANCH  10  13
ATOM     13  C   UNL     1      -6.270   0.968  -7.037  0.00  0.00    -0.021 A 
ATOM     14  C   UNL     1      -6.277   2.330  -6.804  0.00  0.00    +0.009 A 
ATOM     15  C   UNL     1      -5.173   3.094  -7.133  0.00  0.00    +0.039 A 
ATOM     16  C   UNL     1      -4.060   2.494  -7.698  0.00  0.00    +0.123 A 
ATOM     17  C   UNL     1      -4.055   1.129  -7.932  0.00  0.00    +0.039 A 
ATOM     18  C   UNL     1      -5.158   0.367  -7.596  0.00  0.00    +0.009 A 
ATOM     19  F   UNL     1      -2.981   3.239  -8.021  0.00  0.00    -0.205 F 
ENDBRANCH  10  13
ENDBRANCH   1   2
BRANCH   1  20
ATOM     20  C   UNL     1      -6.833  -0.979  -2.944  0.00  0.00    +0.100 C 
BRANCH  20  26
ATOM     21  C   UNL     1      -4.987  -2.627   0.035  0.00  0.00    +0.106 C 
ATOM     22  C   UNL     1      -5.578  -2.611   1.460  0.00  0.00    +0.029 C 
ATOM     23  C   UNL     1      -7.091  -2.381   1.206  0.00  0.00    +0.021 C 
ATOM     24  C   UNL     1      -7.061  -1.435  -0.020  0.00  0.00    +0.108 C 
ATOM     25  N   UNL     1      -5.930  -1.915  -0.840  0.00  0.00    -0.294 N 
ATOM     26  C   UNL     1      -5.784  -1.731  -2.167  0.00  0.00    +0.216 C 
ATOM     27  O   UNL     1      -4.808  -2.171  -2.737  0.00  0.00    -0.276 OA
BRANCH  21  31
ATOM     28  C   UNL     1      -1.201  -0.638   0.010  0.00  0.00    +0.162 A 
ATOM     29  C   UNL     1      -2.374   0.099   0.019  0.00  0.00    +0.050 A 
ATOM     30  C   UNL     1      -3.596  -0.546   0.027  0.00  0.00    +0.009 A 
ATOM     31  C   UNL     1      -3.652  -1.928   0.026  0.00  0.00    -0.023 A 
ATOM     32  C   UNL     1      -2.485  -2.669   0.017  0.00  0.00    +0.055 A 
ATOM     33  C   UNL     1      -1.257  -2.028   0.003  0.00  0.00    +0.162 A 
BRANCH  28  35
ATOM     34  C   UNL     1      -0.017   1.425   0.010  0.00  0.00    +0.277 C 
ATOM     35  O   UNL     1       0.002  -0.004   0.002  0.00  0.00    -0.491 OA
ENDBRANCH  28  35
BRANCH  33  36
ATOM     36  O   UNL     1      -0.108  -2.756  -0.012  0.00  0.00    -0.491 OA
ATOM     37  C   UNL     1      -0.242  -4.179  -0.018  0.00  0.00    +0.277 C 
ENDBRANCH  33  36
ENDBRANCH  21  31
ENDBRANCH  20  26
ENDBRANCH   1  20
TORSDOF 7
