REMARK  Name = ZINC22366999
REMARK  12 active torsions:
REMARK  status: ('A' for Active; 'I' for Inactive)
REMARK    1  A    between atoms: C_1  and  C_2
REMARK    2  A    between atoms: C_5  and  O_8
REMARK    3  A    between atoms: O_8  and  C_9
REMARK    4  A    between atoms: C_9  and  C_10
REMARK    5  A    between atoms: C_10  and  C_12
REMARK    6  A    between atoms: C_10  and  N_13
REMARK    7  A    between atoms: C_14  and  C_16
REMARK    8  A    between atoms: C_16  and  N_17
REMARK    9  A    between atoms: N_17  and  C_18
REMARK   10  A    between atoms: N_17  and  S_34
REMARK   11  A    between atoms: C_21  and  C_24
REMARK   12  A    between atoms: S_34  and  C_37
REMARK                            x       y       z     vdW  Elec       q    Type
REMARK                         _______ _______ _______ _____ _____    ______ ____
ROOT
ATOM      1  N   UNL     1      -3.608   1.789   0.029  0.00  0.00    -0.199 N 
ENDROOT
BRANCH   1   2
ATOM      2  C   UNL     1      -4.085   2.333   1.224  0.00  0.00    +0.051 A 
ATOM      3  C   UNL     1      -4.258   3.706   1.344  0.00  0.00    +0.025 A 
ATOM      4  C   UNL     1      -4.734   4.240   2.525  0.00  0.00    +0.006 A 
ATOM      5  C   UNL     1      -5.028   3.410   3.592  0.00  0.00    -0.041 A 
ATOM      6  C   UNL     1      -4.851   2.044   3.478  0.00  0.00    +0.006 A 
ATOM      7  C   UNL     1      -4.381   1.503   2.297  0.00  0.00    +0.025 A 
BRANCH   5   8
ATOM      8  C   UNL     1      -5.541   3.997   4.882  0.00  0.00    -0.003 C 
ATOM      9  C   UNL     1      -4.577   3.652   6.018  0.00  0.00    +0.015 C 
ATOM     10  C   UNL     1      -5.097   4.247   7.328  0.00  0.00    -0.010 C 
ATOM     11  C   UNL     1      -5.200   5.768   7.191  0.00  0.00    +0.007 C 
ATOM     12  C   UNL     1      -6.165   6.113   6.054  0.00  0.00    -0.010 C 
ATOM     13  C   UNL     1      -5.644   5.518   4.745  0.00  0.00    +0.015 C 
ATOM     14  C   UNL     1      -7.547   5.534   6.364  0.00  0.00    +0.007 C 
ATOM     15  C   UNL     1      -7.444   4.014   6.501  0.00  0.00    -0.010 C 
ATOM     16  C   UNL     1      -6.479   3.668   7.637  0.00  0.00    +0.007 C 
ATOM     17  C   UNL     1      -6.923   3.418   5.191  0.00  0.00    +0.015 C 
ENDBRANCH   5   8
ENDBRANCH   1   2
BRANCH   1  18
ATOM     18  S   UNL     1      -4.464   1.996  -1.374  0.00  0.00    +0.043 S 
ATOM     19  O   UNL     1      -5.300   3.118  -1.127  0.00  0.00    -0.155 OA
ATOM     20  O   UNL     1      -3.478   2.039  -2.397  0.00  0.00    -0.155 OA
ATOM     21  C   UNL     1      -5.466   0.493  -1.534  0.00  0.00    +0.218 C 
ENDBRANCH   1  18
BRANCH   1  22
ATOM     22  C   UNL     1      -2.352   1.036   0.016  0.00  0.00    +0.226 C 
BRANCH  22  24
ATOM     23  N   UNL     1       0.067   1.521  -0.161  0.00  0.00    -0.308 N 
ATOM     24  C   UNL     1      -1.195   1.992  -0.125  0.00  0.00    +0.232 C 
ATOM     25  O   UNL     1      -1.400   3.184  -0.208  0.00  0.00    -0.274 OA
ATOM     26  H   UNL     1       0.254   0.439  -0.081  0.00  0.00    +0.149 HD
BRANCH  23  27
ATOM     27  C   UNL     1       1.192   2.449  -0.304  0.00  0.00    +0.107 C 
ATOM     28  C   UNL     1       1.592   2.983   1.073  0.00  0.00    +0.031 C 
BRANCH  27  29
ATOM     29  C   UNL     1       2.380   1.717  -0.932  0.00  0.00    +0.251 C 
BRANCH  29  30
ATOM     30  O   UNL     1       2.840   0.702  -0.039  0.00  0.00    -0.490 OA
BRANCH  30  35
ATOM     31  C   UNL     1       7.226  -2.399  -1.735  0.00  0.00    +0.044 C 
ATOM     32  C   UNL     1       6.052  -1.570  -1.281  0.00  0.00    -0.050 A 
ATOM     33  C   UNL     1       5.473  -1.810  -0.049  0.00  0.00    +0.007 A 
ATOM     34  C   UNL     1       4.397  -1.050   0.369  0.00  0.00    +0.046 A 
ATOM     35  C   UNL     1       3.898  -0.047  -0.448  0.00  0.00    +0.121 A 
ATOM     36  C   UNL     1       4.478   0.188  -1.687  0.00  0.00    +0.046 A 
ATOM     37  C   UNL     1       5.557  -0.570  -2.098  0.00  0.00    +0.007 A 
ENDBRANCH  30  35
ENDBRANCH  29  30
ENDBRANCH  27  29
ENDBRANCH  23  27
ENDBRANCH  22  24
ENDBRANCH   1  22
TORSDOF 9
