REMARK  Name = ZINC23063645
REMARK  12 active torsions:
REMARK  status: ('A' for Active; 'I' for Inactive)
REMARK    1  A    between atoms: C_1  and  C_2
REMARK    2  A    between atoms: C_4  and  C_16
REMARK    3  A    between atoms: C_5  and  C_15
REMARK    4  A    between atoms: N_6  and  C_7
REMARK    5  A    between atoms: C_10  and  O_13
REMARK    6  A    between atoms: O_13  and  C_14
REMARK    7  A    between atoms: C_16  and  O_18
REMARK    8  A    between atoms: O_18  and  C_19
REMARK    9  A    between atoms: C_19  and  C_21
REMARK   10  A    between atoms: C_19  and  C_22
REMARK   11  A    between atoms: N_24  and  C_25
REMARK   12  A    between atoms: C_30  and  N_31
REMARK                            x       y       z     vdW  Elec       q    Type
REMARK                         _______ _______ _______ _____ _____    ______ ____
ROOT
ATOM      1  C   UNL     1       0.026  -3.387  -1.457  0.00  0.00    +0.342 C 
ATOM      2  O   UNL     1       0.029  -4.484  -0.932  0.00  0.00    -0.245 OA
ENDROOT
BRANCH   1   6
ATOM      3  C   UNL     1       0.001   1.495   0.021  0.00  0.00    +0.064 C 
ATOM      4  C   UNL     1       0.007  -0.012   0.009  0.00  0.00    +0.022 A 
ATOM      5  C   UNL     1       0.014  -0.783  -1.093  0.00  0.00    +0.038 A 
ATOM      6  C   UNL     1       0.019  -2.174  -0.625  0.00  0.00    +0.080 A 
ATOM      7  C   UNL     1       0.014  -2.112   0.752  0.00  0.00    +0.035 A 
ATOM      8  N   UNL     1       0.013  -0.813   1.115  0.00  0.00    -0.317 N 
ATOM      9  C   UNL     1       0.016  -3.291   1.690  0.00  0.00    +0.065 C 
BRANCH   8  10
ATOM     10  C   UNL     1       0.013  -0.351   2.439  0.00  0.00    +0.047 A 
ATOM     11  C   UNL     1       1.108  -0.592   3.259  0.00  0.00    +0.030 A 
ATOM     12  C   UNL     1       1.108  -0.136   4.562  0.00  0.00    +0.047 A 
ATOM     13  C   UNL     1       0.014   0.562   5.053  0.00  0.00    +0.120 A 
ATOM     14  C   UNL     1      -1.080   0.802   4.235  0.00  0.00    +0.047 A 
ATOM     15  C   UNL     1      -1.079   0.352   2.930  0.00  0.00    +0.030 A 
BRANCH  13  16
ATOM     16  O   UNL     1       0.015   1.010   6.337  0.00  0.00    -0.495 OA
ATOM     17  C   UNL     1      -1.144   1.721   6.776  0.00  0.00    +0.277 C 
ENDBRANCH  13  16
ENDBRANCH   8  10
ENDBRANCH   1   6
BRANCH   1  18
ATOM     18  O   UNL     1       0.030  -3.283  -2.801  0.00  0.00    -0.449 OA
BRANCH  18  19
ATOM     19  C   UNL     1       0.037  -4.503  -3.546  0.00  0.00    +0.259 C 
ATOM     20  C   UNL     1      -1.402  -4.944  -3.816  0.00  0.00    +0.062 C 
BRANCH  19  21
ATOM     21  C   UNL     1       0.751  -4.287  -4.855  0.00  0.00    +0.258 C 
ATOM     22  O   UNL     1       1.208  -3.196  -5.124  0.00  0.00    -0.271 OA
ATOM     23  N   UNL     1       0.881  -5.306  -5.728  0.00  0.00    -0.281 N 
ATOM     24  H   UNL     1       0.588  -6.197  -5.480  0.00  0.00    +0.155 HD
BRANCH  23  25
ATOM     25  C   UNL     1       1.440  -5.079  -6.990  0.00  0.00    +0.064 A 
ATOM     26  C   UNL     1       1.381  -3.814  -7.560  0.00  0.00    +0.025 A 
ATOM     27  C   UNL     1       1.933  -3.593  -8.806  0.00  0.00    +0.002 A 
ATOM     28  C   UNL     1       2.544  -4.630  -9.487  0.00  0.00    +0.002 A 
ATOM     29  C   UNL     1       2.604  -5.891  -8.923  0.00  0.00    +0.034 A 
ATOM     30  C   UNL     1       2.059  -6.117  -7.674  0.00  0.00    +0.147 A 
BRANCH  30  31
ATOM     31  N   UNL     1       2.130  -7.465  -7.068  0.00  0.00    +0.058 N 
ATOM     32  O   UNL     1       2.745  -8.346  -7.622  0.00  0.00    -0.126 OA
ATOM     33  O   UNL     1       1.571  -7.686  -6.018  0.00  0.00    -0.126 OA
ENDBRANCH  30  31
ENDBRANCH  23  25
ENDBRANCH  19  21
ENDBRANCH  18  19
ENDBRANCH   1  18
TORSDOF 8
