REMARK  Name = ZINC03296157
REMARK  8 active torsions:
REMARK  status: ('A' for Active; 'I' for Inactive)
REMARK    1  A    between atoms: C_1  and  C_2
REMARK    2  A    between atoms: C_2  and  N_3
REMARK    3  A    between atoms: N_3  and  C_4
REMARK    4  A    between atoms: C_14  and  C_16
REMARK    5  A    between atoms: C_16  and  O_17
REMARK    6  A    between atoms: O_17  and  C_18
REMARK    7  A    between atoms: C_18  and  C_20
REMARK    8  A    between atoms: C_20  and  N_21
REMARK                            x       y       z     vdW  Elec       q    Type
REMARK                         _______ _______ _______ _____ _____    ______ ____
ROOT
ATOM      1  O   UNL     1       4.206  -0.723  -0.156  0.00  0.00    -0.454 OA
ENDROOT
BRANCH   1   2
ATOM      2  C   UNL     1       5.045  -0.546   0.876  0.00  0.00    +0.329 C 
ATOM      3  O   UNL     1       4.623  -0.158   1.940  0.00  0.00    -0.249 OA
BRANCH   2   4
ATOM      4  C   UNL     1       6.516  -0.831   0.709  0.00  0.00    +0.265 C 
BRANCH   4   5
ATOM      5  N   UNL     1       7.212  -0.562   1.970  0.00  0.00    -0.238 N 
ATOM      6  C   UNL     1       7.340  -1.556   2.870  0.00  0.00    +0.274 A 
ATOM      7  O   UNL     1       6.883  -2.658   2.635  0.00  0.00    -0.266 OA
ATOM      8  C   UNL     1       8.045  -1.298   4.144  0.00  0.00    +0.053 A 
ATOM      9  C   UNL     1       8.206  -2.291   5.101  0.00  0.00    +0.014 A 
ATOM     10  C   UNL     1       8.868  -2.002   6.282  0.00  0.00    +0.001 A 
ATOM     11  C   UNL     1       9.369  -0.733   6.514  0.00  0.00    +0.001 A 
ATOM     12  C   UNL     1       9.217   0.267   5.570  0.00  0.00    +0.014 A 
ATOM     13  C   UNL     1       8.555  -0.006   4.381  0.00  0.00    +0.053 A 
ATOM     14  C   UNL     1       8.367   1.030   3.342  0.00  0.00    +0.271 A 
ATOM     15  O   UNL     1       8.795   2.154   3.515  0.00  0.00    -0.266 OA
ATOM     16  N   UNL     1       7.718   0.717   2.204  0.00  0.00    -0.260 N 
ATOM     17  H   UNL     1       7.599   1.401   1.527  0.00  0.00    +0.190 HD
ENDBRANCH   4   5
ENDBRANCH   2   4
ENDBRANCH   1   2
BRANCH   1  18
ATOM     18  C   UNL     1       2.803  -0.428   0.078  0.00  0.00    +0.328 C 
BRANCH  18  20
ATOM     19  N   UNL     1       0.688  -0.476  -1.203  0.00  0.00    -0.268 N 
ATOM     20  C   UNL     1       2.019  -0.683  -1.184  0.00  0.00    +0.258 C 
ATOM     21  O   UNL     1       2.587  -1.074  -2.182  0.00  0.00    -0.272 OA
BRANCH  19  22
ATOM     22  C   UNL     1      -0.038  -0.713  -2.372  0.00  0.00    +0.044 A 
ATOM     23  C   UNL     1      -0.220   0.296  -3.294  0.00  0.00    +0.024 A 
ATOM     24  C   UNL     1      -0.942   0.071  -4.462  0.00  0.00    +0.002 A 
ATOM     25  C   UNL     1      -1.487  -1.148  -4.728  0.00  0.00    +0.008 A 
ATOM     26  C   UNL     1      -1.325  -2.203  -3.814  0.00  0.00    -0.016 A 
ATOM     27  C   UNL     1      -0.588  -1.988  -2.624  0.00  0.00    +0.004 A 
ATOM     28  C   UNL     1      -0.430  -3.042  -1.710  0.00  0.00    +0.010 A 
ATOM     29  C   UNL     1      -0.979  -4.258  -1.983  0.00  0.00    +0.001 A 
ATOM     30  C   UNL     1      -1.700  -4.472  -3.155  0.00  0.00    +0.001 A 
ATOM     31  C   UNL     1      -1.877  -3.472  -4.062  0.00  0.00    +0.008 A 
ENDBRANCH  19  22
BRANCH  19  33
ATOM     32  C   UNL     1      -0.019   1.526   0.010  0.00  0.00    +0.025 C 
ATOM     33  C   UNL     1       0.002  -0.004   0.002  0.00  0.00    +0.110 C 
ENDBRANCH  19  33
ENDBRANCH  18  20
ENDBRANCH   1  18
TORSDOF 7
