REMARK  Name = ZINC39469769
REMARK  8 active torsions:
REMARK  status: ('A' for Active; 'I' for Inactive)
REMARK    1  A    between atoms: C_1  and  C_2
REMARK    2  A    between atoms: C_2  and  O_3
REMARK    3  A    between atoms: O_3  and  C_4
REMARK    4  A    between atoms: P_13  and  S_29
REMARK    5  A    between atoms: C_21  and  C_22
REMARK    6  A    between atoms: C_22  and  C_23
REMARK    7  A    between atoms: S_29  and  O_32
REMARK    8  A    between atoms: O_32  and  C_33
REMARK                            x       y       z     vdW  Elec       q    Type
REMARK                         _______ _______ _______ _____ _____    ______ ____
ROOT
ATOM      1  C   UNL     1       0.777  -1.810  -1.336  0.00  0.00    +0.120 C 
ATOM      2  C   UNL     1       0.264  -2.639  -0.424  0.00  0.00    +0.023 C 
ATOM      3  C   UNL     1       0.376  -4.128  -0.618  0.00  0.00    +0.019 C 
ATOM      4  C   UNL     1      -0.738  -4.845   0.130  0.00  0.00    -0.002 C 
ATOM      5  C   UNL     1      -1.069  -6.192  -0.529  0.00  0.00    -0.020 C 
ATOM      6  C   UNL     1      -1.604  -7.085   0.599  0.00  0.00    +0.158 C 
ATOM      7  O   UNL     1      -1.975  -8.374   0.084  0.00  0.00    -0.301 OA
ATOM      8  P   UNL     1      -0.874  -9.158  -0.824  0.00  0.00    +0.431 P 
ATOM      9  O   UNL     1      -1.536 -10.174  -1.672  0.00  0.00    -0.246 OA
ATOM     10  N   UNL     1      -0.189  -7.987  -1.759  0.00  0.00    -0.271 NA
ATOM     11  N   UNL     1       0.104  -6.773  -1.171  0.00  0.00    +0.398 N 
ATOM     12  C   UNL     1       0.589  -5.953  -2.292  0.00  0.00    -0.046 C 
ATOM     13  C   UNL     1       0.260  -4.464  -2.104  0.00  0.00    +0.005 C 
ATOM     14  C   UNL     1       1.218  -3.615  -2.896  0.00  0.00    -0.017 C 
ATOM     15  C   UNL     1       1.454  -2.363  -2.525  0.00  0.00    -0.005 C 
ATOM     16  H   UNL     1       0.009  -8.154  -2.694  0.00  0.00    +0.113 HD
ATOM     17  H   UNL     1       0.840  -6.886  -0.491  0.00  0.00    -0.055 HD
ENDROOT
BRANCH   8  18
ATOM     18  S   UNL     1       0.586 -10.071   0.413  0.00  0.00    +0.209 S 
ATOM     19  O   UNL     1       1.415 -10.846  -0.442  0.00  0.00    -0.126 OA
ATOM     20  O   UNL     1       1.103  -9.048   1.253  0.00  0.00    -0.126 OA
BRANCH  18  21
ATOM     21  O   UNL     1      -0.142 -11.053   1.320  0.00  0.00    -0.339 OA
BRANCH  21  22
ATOM     22  C   UNL     1      -0.535 -12.194   0.696  0.00  0.00    +0.157 A 
ATOM     23  C   UNL     1      -1.781 -12.260   0.089  0.00  0.00    +0.048 A 
ATOM     24  C   UNL     1      -2.179 -13.421  -0.544  0.00  0.00    +0.004 A 
ATOM     25  C   UNL     1      -1.336 -14.517  -0.574  0.00  0.00    +0.000 A 
ATOM     26  C   UNL     1      -0.094 -14.454   0.030  0.00  0.00    +0.004 A 
ATOM     27  C   UNL     1       0.310 -13.293   0.660  0.00  0.00    +0.048 A 
ENDBRANCH  21  22
ENDBRANCH  18  21
ENDBRANCH   8  18
BRANCH   1  28
ATOM     28  O   UNL     1       0.671  -0.465  -1.174  0.00  0.00    -0.492 OA
BRANCH  28  30
ATOM     29  C   UNL     1      -0.019   1.526   0.010  0.00  0.00    +0.048 C 
ATOM     30  C   UNL     1       0.002  -0.004   0.002  0.00  0.00    +0.225 C 
ENDBRANCH  28  30
ENDBRANCH   1  28
BRANCH  15  31
ATOM     31  C   UNL     1       2.416  -1.512  -3.313  0.00  0.00    +0.073 C 
BRANCH  31  32
ATOM     32  C   UNL     1       1.650  -0.685  -4.314  0.00  0.00    -0.043 A 
ATOM     33  C   UNL     1       1.407  -1.183  -5.580  0.00  0.00    +0.004 A 
ATOM     34  C   UNL     1       0.705  -0.425  -6.498  0.00  0.00    +0.000 A 
ATOM     35  C   UNL     1       0.246   0.832  -6.150  0.00  0.00    +0.000 A 
ATOM     36  C   UNL     1       0.489   1.330  -4.884  0.00  0.00    +0.000 A 
ATOM     37  C   UNL     1       1.187   0.570  -3.964  0.00  0.00    +0.004 A 
ENDBRANCH  31  32
ENDBRANCH  15  31
TORSDOF 7
