REMARK  Name = ZINC58872773
REMARK  11 active torsions:
REMARK  status: ('A' for Active; 'I' for Inactive)
REMARK    1  A    between atoms: C_1  and  C_2
REMARK    2  A    between atoms: C_9  and  C_30
REMARK    3  A    between atoms: C_10  and  C_11
REMARK    4  A    between atoms: N_13  and  N_14
REMARK    5  A    between atoms: C_15  and  C_16
REMARK    6  A    between atoms: C_19  and  O_22
REMARK    7  A    between atoms: O_22  and  C_23
REMARK    8  A    between atoms: C_23  and  C_24
REMARK    9  A    between atoms: N_26  and  C_27
REMARK   10  A    between atoms: C_27  and  C_28
REMARK   11  A    between atoms: C_27  and  C_29
REMARK                            x       y       z     vdW  Elec       q    Type
REMARK                         _______ _______ _______ _____ _____    ______ ____
ROOT
ATOM      1  N   UNL     1      -0.140  -5.946  -2.959  0.00  0.00    -0.187 NA
ATOM      2  C   UNL     1      -0.248  -5.687  -4.226  0.00  0.00    +0.138 C 
ENDROOT
BRANCH   2   3
ATOM      3  C   UNL     1      -0.350  -6.791  -5.198  0.00  0.00    -0.005 A 
ATOM      4  C   UNL     1      -0.335  -8.117  -4.757  0.00  0.00    +0.013 A 
ATOM      5  C   UNL     1      -0.430  -9.146  -5.669  0.00  0.00    +0.046 A 
ATOM      6  C   UNL     1      -0.540  -8.866  -7.025  0.00  0.00    +0.121 A 
ATOM      7  C   UNL     1      -0.555  -7.550  -7.468  0.00  0.00    +0.046 A 
ATOM      8  C   UNL     1      -0.466  -6.515  -6.563  0.00  0.00    +0.013 A 
BRANCH   6   9
ATOM      9  O   UNL     1      -0.633  -9.883  -7.921  0.00  0.00    -0.483 OA
BRANCH   9  10
ATOM     10  C   UNL     1      -0.744  -9.526  -9.300  0.00  0.00    +0.324 C 
BRANCH  10  11
ATOM     11  C   UNL     1      -0.836 -10.775 -10.137  0.00  0.00    +0.251 C 
ATOM     12  O   UNL     1      -0.809 -11.865  -9.605  0.00  0.00    -0.272 OA
ATOM     13  N   UNL     1      -0.948 -10.682 -11.477  0.00  0.00    -0.310 N 
ATOM     14  H   UNL     1      -0.969  -9.810 -11.902  0.00  0.00    +0.149 HD
BRANCH  13  15
ATOM     15  C   UNL     1      -1.037 -11.896 -12.291  0.00  0.00    +0.067 C 
ATOM     16  C   UNL     1      -2.492 -12.366 -12.349  0.00  0.00    +0.027 C 
ATOM     17  C   UNL     1      -0.540 -11.599 -13.707  0.00  0.00    +0.027 C 
ENDBRANCH  13  15
ENDBRANCH  10  11
ENDBRANCH   9  10
ENDBRANCH   6   9
ENDBRANCH   2   3
BRANCH   1  20
ATOM     18  C   UNL     1       0.069  -5.166  -0.720  0.00  0.00    +0.282 C 
ATOM     19  O   UNL     1       0.181  -6.318  -0.341  0.00  0.00    -0.267 OA
ATOM     20  N   UNL     1      -0.044  -4.897  -2.035  0.00  0.00    -0.202 N 
ATOM     21  H   UNL     1      -0.058  -3.977  -2.343  0.00  0.00    +0.178 HD
BRANCH  18  31
ATOM     22  C   UNL     1      -3.867  -0.977   2.741  0.00  0.00    +0.044 C 
ATOM     23  C   UNL     1      -2.862  -1.849   2.034  0.00  0.00    -0.046 A 
ATOM     24  C   UNL     1      -3.292  -2.829   1.128  0.00  0.00    +0.021 A 
ATOM     25  C   UNL     1      -2.389  -3.611   0.494  0.00  0.00    +0.094 A 
ATOM     26  N   UNL     1      -1.058  -3.458   0.725  0.00  0.00    -0.295 N 
ATOM     27  C   UNL     1      -0.606  -2.513   1.601  0.00  0.00    +0.139 A 
ATOM     28  C   UNL     1      -1.529  -1.686   2.267  0.00  0.00    +0.050 A 
ATOM     29  N   UNL     1       0.724  -2.572   1.642  0.00  0.00    -0.232 NA
ATOM     30  C   UNL     1       1.156  -3.520   0.827  0.00  0.00    +0.069 A 
ATOM     31  C   UNL     1       0.056  -4.108   0.224  0.00  0.00    +0.133 A 
ATOM     32  C   UNL     1       2.597  -3.896   0.594  0.00  0.00    +0.068 C 
ENDBRANCH  18  31
ENDBRANCH   1  20
TORSDOF 7
