REMARK  Name = ZINC01196557
REMARK  7 active torsions:
REMARK  status: ('A' for Active; 'I' for Inactive)
REMARK    1  A    between atoms: C_1  and  C_2
REMARK    2  A    between atoms: C_4  and  S_20
REMARK    3  A    between atoms: C_5  and  C_19
REMARK    4  A    between atoms: C_6  and  S_8
REMARK    5  A    between atoms: S_8  and  N_11
REMARK    6  A    between atoms: N_11  and  C_12
REMARK    7  A    between atoms: S_20  and  C_23
REMARK                            x       y       z     vdW  Elec       q    Type
REMARK                         _______ _______ _______ _____ _____    ______ ____
ROOT
ATOM      1  C   UNL     1      -2.013   3.405   1.188  0.00  0.00    +0.044 C 
ATOM      2  C   UNL     1      -0.829   2.487   1.020  0.00  0.00    -0.047 A 
ATOM      3  C   UNL     1       0.318   2.945   0.398  0.00  0.00    +0.031 A 
ATOM      4  C   UNL     1       1.401   2.101   0.239  0.00  0.00    +0.099 A 
ATOM      5  C   UNL     1       1.338   0.800   0.703  0.00  0.00    +0.001 A 
ATOM      6  C   UNL     1       0.192   0.343   1.325  0.00  0.00    +0.113 A 
ATOM      7  C   UNL     1      -0.892   1.187   1.484  0.00  0.00    +0.032 A 
ATOM      8  C   UNL     1       2.519  -0.119   0.531  0.00  0.00    +0.048 C 
ENDROOT
BRANCH   6   9
ATOM      9  S   UNL     1       0.111  -1.315   1.916  0.00  0.00    +0.073 S 
ATOM     10  O   UNL     1      -1.174  -1.476   2.501  0.00  0.00    -0.150 OA
ATOM     11  O   UNL     1       0.578  -2.145   0.862  0.00  0.00    -0.150 OA
BRANCH   9  12
ATOM     12  N   UNL     1       1.211  -1.450   3.147  0.00  0.00    -0.216 N 
ATOM     13  H   UNL     1       1.949  -2.075   3.072  0.00  0.00    +0.174 HD
BRANCH  12  14
ATOM     14  C   UNL     1       1.077  -0.662   4.293  0.00  0.00    +0.048 A 
ATOM     15  C   UNL     1       0.774   0.688   4.178  0.00  0.00    +0.025 A 
ATOM     16  C   UNL     1       0.637   1.463   5.314  0.00  0.00    +0.017 A 
ATOM     17  C   UNL     1       0.811   0.897   6.564  0.00  0.00    +0.018 A 
ATOM     18  C   UNL     1       1.119  -0.447   6.681  0.00  0.00    +0.017 A 
ATOM     19  C   UNL     1       1.252  -1.228   5.550  0.00  0.00    +0.025 A 
ATOM     20 BR   UNL     1       0.630   1.963   8.116  0.00  0.00    -0.050 Br
ENDBRANCH  12  14
ENDBRANCH   9  12
ENDBRANCH   6   9
BRANCH   4  21
ATOM     21  S   UNL     1       2.863   2.684  -0.553  0.00  0.00    +0.025 S 
ATOM     22  O   UNL     1       3.201   1.721  -1.541  0.00  0.00    -0.164 OA
ATOM     23  O   UNL     1       2.636   4.051  -0.868  0.00  0.00    -0.164 OA
BRANCH  21  24
ATOM     24  C   UNL     1       4.154   2.650   0.646  0.00  0.00    +0.094 A 
ATOM     25  C   UNL     1       4.179   3.588   1.661  0.00  0.00    +0.029 A 
ATOM     26  C   UNL     1       5.188   3.559   2.605  0.00  0.00    +0.022 A 
ATOM     27  C   UNL     1       6.180   2.597   2.527  0.00  0.00    +0.041 A 
ATOM     28  C   UNL     1       6.157   1.662   1.507  0.00  0.00    +0.022 A 
ATOM     29  C   UNL     1       5.144   1.689   0.567  0.00  0.00    +0.029 A 
ATOM     30 CL   UNL     1       7.451   2.564   3.708  0.00  0.00    -0.084 Cl
ENDBRANCH  21  24
ENDBRANCH   4  21
TORSDOF 5
