REMARK  Name = ZINC32964317
REMARK  6 active torsions:
REMARK  status: ('A' for Active; 'I' for Inactive)
REMARK    1  A    between atoms: C_1  and  C_2
REMARK    2  A    between atoms: C_7  and  O_8
REMARK    3  A    between atoms: O_8  and  C_9
REMARK    4  A    between atoms: C_9  and  C_10
REMARK    5  A    between atoms: C_16  and  C_17
REMARK    6  A    between atoms: N_21  and  C_22
REMARK                            x       y       z     vdW  Elec       q    Type
REMARK                         _______ _______ _______ _____ _____    ______ ____
ROOT
ATOM      1  C   UNL     1      -2.764   1.355   4.619  0.00  0.00    +0.137 C 
ATOM      2  N   UNL     1      -2.327   2.563   4.829  0.00  0.00    -0.166 NA
ATOM      3  N   UNL     1      -1.757   2.918   6.033  0.00  0.00    -0.152 N 
ATOM      4  C   UNL     1      -1.335   4.215   6.396  0.00  0.00    +0.153 C 
ATOM      5  N   UNL     1      -1.793   5.304   5.833  0.00  0.00    -0.283 NA
ATOM      6  C   UNL     1      -0.317   4.222   7.481  0.00  0.00    +0.082 C 
ATOM      7  C   UNL     1       0.680   5.182   7.539  0.00  0.00    +0.042 C 
ATOM      8  C   UNL     1      -0.426   3.149   8.495  0.00  0.00    +0.273 C 
ATOM      9  O   UNL     1       0.023   3.301   9.621  0.00  0.00    -0.268 OA
ATOM     10  N   UNL     1      -1.034   2.000   8.141  0.00  0.00    -0.152 NA
ATOM     11  C   UNL     1      -1.616   1.919   6.971  0.00  0.00    +0.181 C 
ATOM     12  S   UNL     1      -2.401   0.545   6.170  0.00  0.00    -0.035 S 
ATOM     13  H   UNL     1      -2.510   5.248   5.182  0.00  0.00    +0.188 HD
ENDROOT
BRANCH   7  14
ATOM     14  C   UNL     1       0.838   6.098   6.481  0.00  0.00    +0.047 A 
ATOM     15  C   UNL     1       0.715   7.478   6.563  0.00  0.00    +0.027 A 
ATOM     16  C   UNL     1       0.952   7.987   5.286  0.00  0.00    +0.020 A 
ATOM     17  C   UNL     1       1.212   6.942   4.459  0.00  0.00    +0.092 A 
ATOM     18  N   UNL     1       1.151   5.789   5.172  0.00  0.00    -0.316 N 
BRANCH  18  19
ATOM     19  C   UNL     1       1.367   4.501   4.665  0.00  0.00    +0.048 A 
ATOM     20  C   UNL     1       2.318   3.674   5.248  0.00  0.00    +0.026 A 
ATOM     21  C   UNL     1       2.529   2.405   4.746  0.00  0.00    +0.003 A 
ATOM     22  C   UNL     1       1.795   1.957   3.663  0.00  0.00    +0.020 A 
ATOM     23  C   UNL     1       0.847   2.779   3.079  0.00  0.00    +0.043 A 
ATOM     24  C   UNL     1       0.627   4.048   3.581  0.00  0.00    +0.046 A 
ATOM     25 CL   UNL     1      -0.071   2.213   1.718  0.00  0.00    -0.083 Cl
ENDBRANCH  18  19
ENDBRANCH   7  14
BRANCH   1  26
ATOM     26  C   UNL     1      -3.416   0.786   3.385  0.00  0.00    +0.293 C 
BRANCH  26  27
ATOM     27  O   UNL     1      -3.604   1.826   2.423  0.00  0.00    -0.485 OA
BRANCH  27  34
ATOM     28  C   UNL     1      -4.157   3.896   0.582  0.00  0.00    +0.047 C 
ATOM     29  C   UNL     1      -4.468   2.450   0.296  0.00  0.00    -0.009 A 
ATOM     30  C   UNL     1      -5.041   2.091  -0.909  0.00  0.00    +0.007 A 
ATOM     31  C   UNL     1      -5.328   0.764  -1.172  0.00  0.00    +0.000 A 
ATOM     32  C   UNL     1      -5.041  -0.207  -0.230  0.00  0.00    +0.004 A 
ATOM     33  C   UNL     1      -4.467   0.146   0.975  0.00  0.00    +0.046 A 
ATOM     34  C   UNL     1      -4.174   1.477   1.240  0.00  0.00    +0.124 A 
ENDBRANCH  27  34
ENDBRANCH  26  27
ENDBRANCH   1  26
TORSDOF 5
