REMARK  Name = ZINC36849640
REMARK  7 active torsions:
REMARK  status: ('A' for Active; 'I' for Inactive)
REMARK    1  A    between atoms: C_1  and  C_2
REMARK    2  A    between atoms: C_2  and  C_3
REMARK    3  A    between atoms: C_3  and  C_29
REMARK    4  A    between atoms: N_6  and  C_10
REMARK    5  A    between atoms: C_10  and  C_11
REMARK    6  A    between atoms: C_11  and  C_13
REMARK    7  A    between atoms: C_22  and  C_23
REMARK                            x       y       z     vdW  Elec       q    Type
REMARK                         _______ _______ _______ _____ _____    ______ ____
ROOT
ATOM      1  C   UNL     1      -4.210   1.363  -1.565  0.00  0.00    +0.197 C 
ENDROOT
BRANCH   1   5
ATOM      2  C   UNL     1      -1.433  -0.534   0.013  0.00  0.00    +0.138 C 
ATOM      3  C   UNL     1      -2.192  -0.043  -1.205  0.00  0.00    +0.251 C 
ATOM      4  O   UNL     1      -1.933  -0.267  -2.368  0.00  0.00    -0.272 OA
ATOM      5  N   UNL     1      -3.214   0.692  -0.725  0.00  0.00    -0.216 N 
ATOM      6  C   UNL     1      -3.207   0.734   0.612  0.00  0.00    +0.310 C 
ATOM      7  O   UNL     1      -4.031   1.335   1.273  0.00  0.00    -0.252 OA
ATOM      8  N   UNL     1      -2.187   0.036   1.143  0.00  0.00    -0.281 N 
ATOM      9  H   UNL     1      -1.987  -0.072   2.086  0.00  0.00    +0.152 HD
BRANCH   2  10
ATOM     10  C   UNL     1      -1.441  -2.039   0.076  0.00  0.00    -0.015 A 
ATOM     11  C   UNL     1      -0.400  -2.759  -0.481  0.00  0.00    +0.009 A 
ATOM     12  C   UNL     1      -0.405  -4.140  -0.423  0.00  0.00    +0.039 A 
ATOM     13  C   UNL     1      -1.454  -4.802   0.191  0.00  0.00    +0.123 A 
ATOM     14  C   UNL     1      -2.496  -4.081   0.748  0.00  0.00    +0.039 A 
ATOM     15  C   UNL     1      -2.486  -2.700   0.694  0.00  0.00    +0.009 A 
ATOM     16  F   UNL     1      -1.461  -6.152   0.247  0.00  0.00    -0.205 F 
ENDBRANCH   2  10
BRANCH   2  18
ATOM     17  C   UNL     1      -0.019   1.526   0.010  0.00  0.00    +0.007 C 
ATOM     18  C   UNL     1       0.002  -0.004   0.002  0.00  0.00    +0.037 C 
ENDBRANCH   2  18
ENDBRANCH   1   5
BRANCH   1  19
ATOM     19  C   UNL     1      -5.368   0.431  -1.812  0.00  0.00    +0.183 C 
ATOM     20  O   UNL     1      -5.362  -0.685  -1.334  0.00  0.00    -0.290 OA
BRANCH  19  21
ATOM     21  C   UNL     1      -6.461   0.856  -2.601  0.00  0.00    +0.052 A 
ATOM     22  C   UNL     1      -6.623   2.167  -3.257  0.00  0.00    +0.011 A 
ATOM     23  C   UNL     1      -5.838   3.316  -3.317  0.00  0.00    +0.011 A 
ATOM     24  C   UNL     1      -6.280   4.408  -4.033  0.00  0.00    +0.001 A 
ATOM     25  C   UNL     1      -7.500   4.365  -4.691  0.00  0.00    +0.002 A 
ATOM     26  C   UNL     1      -8.287   3.235  -4.639  0.00  0.00    +0.026 A 
ATOM     27  C   UNL     1      -7.858   2.122  -3.922  0.00  0.00    +0.048 A 
ATOM     28  N   UNL     1      -8.419   0.880  -3.697  0.00  0.00    -0.354 N 
ATOM     29  H   UNL     1      -9.276   0.589  -4.047  0.00  0.00    +0.166 HD
ATOM     30  C   UNL     1      -7.599   0.119  -2.921  0.00  0.00    +0.058 A 
BRANCH  30  31
ATOM     31  C   UNL     1      -7.874  -1.263  -2.485  0.00  0.00    -0.001 A 
ATOM     32  C   UNL     1      -6.870  -2.233  -2.551  0.00  0.00    +0.010 A 
ATOM     33  C   UNL     1      -7.134  -3.523  -2.142  0.00  0.00    +0.001 A 
ATOM     34  C   UNL     1      -8.389  -3.859  -1.667  0.00  0.00    +0.000 A 
ATOM     35  C   UNL     1      -9.389  -2.904  -1.598  0.00  0.00    +0.001 A 
ATOM     36  C   UNL     1      -9.137  -1.608  -1.998  0.00  0.00    +0.010 A 
ENDBRANCH  30  31
ENDBRANCH  19  21
ENDBRANCH   1  19
TORSDOF 6
