REMARK  Name = ZINC44947303
REMARK  12 active torsions:
REMARK  status: ('A' for Active; 'I' for Inactive)
REMARK    1  A    between atoms: C_4  and  C_7
REMARK    2  A    between atoms: C_7  and  C_29
REMARK    3  A    between atoms: C_9  and  C_11
REMARK    4  A    between atoms: C_11  and  N_12
REMARK    5  A    between atoms: N_12  and  C_13
REMARK    6  A    between atoms: N_12  and  C_17
REMARK    7  A    between atoms: C_13  and  C_14
REMARK    8  A    between atoms: C_14  and  C_15
REMARK    9  A    between atoms: C_15  and  O_16
REMARK   10  A    between atoms: C_17  and  C_18
REMARK   11  A    between atoms: C_19  and  C_20
REMARK   12  A    between atoms: C_23  and  N_26
REMARK                            x       y       z     vdW  Elec       q    Type
REMARK                         _______ _______ _______ _____ _____    ______ ____
ROOT
ATOM      1  N   UNL     1       4.372  -4.335   0.562  0.00  0.00    +0.382 N 
ATOM      2  H   UNL     1       4.162  -4.741  -0.337  0.00  0.00    -0.081 HD
ENDROOT
BRANCH   1   3
ATOM      3  C   UNL     1       4.670  -2.906   0.397  0.00  0.00    -0.074 C 
BRANCH   3   6
ATOM      4  C   UNL     1       6.167  -1.309  -1.035  0.00  0.00    +0.022 C 
ATOM      5  C   UNL     1       7.105  -2.112  -0.132  0.00  0.00    +0.019 C 
ATOM      6  C   UNL     1       5.797  -2.735  -0.623  0.00  0.00    -0.012 C 
BRANCH   4  10
ATOM      7  C   UNL     1       7.385  -0.676  -5.080  0.00  0.00    +0.000 A 
ATOM      8  C   UNL     1       7.276   0.397  -4.215  0.00  0.00    +0.000 A 
ATOM      9  C   UNL     1       6.882   0.192  -2.906  0.00  0.00    +0.004 A 
ATOM     10  C   UNL     1       6.596  -1.085  -2.462  0.00  0.00    -0.037 A 
ATOM     11  C   UNL     1       6.704  -2.158  -3.327  0.00  0.00    +0.004 A 
ATOM     12  C   UNL     1       7.100  -1.953  -4.636  0.00  0.00    +0.000 A 
ENDBRANCH   4  10
BRANCH   4  13
ATOM     13  C   UNL     1       5.392  -0.180  -0.404  0.00  0.00    -0.037 A 
ATOM     14  C   UNL     1       5.940   0.531   0.647  0.00  0.00    +0.004 A 
ATOM     15  C   UNL     1       5.229   1.567   1.225  0.00  0.00    +0.000 A 
ATOM     16  C   UNL     1       3.972   1.892   0.751  0.00  0.00    +0.000 A 
ATOM     17  C   UNL     1       3.425   1.181  -0.301  0.00  0.00    +0.000 A 
ATOM     18  C   UNL     1       4.137   0.149  -0.882  0.00  0.00    +0.004 A 
ENDBRANCH   4  13
ENDBRANCH   3   6
ENDBRANCH   1   3
BRANCH   1  19
ATOM     19  C   UNL     1       3.215  -4.494   1.454  0.00  0.00    -0.076 C 
BRANCH  19  20
ATOM     20  C   UNL     1       1.970  -3.911   0.782  0.00  0.00    +0.009 C 
BRANCH  20  21
ATOM     21  C   UNL     1       0.772  -4.046   1.724  0.00  0.00    +0.154 C 
BRANCH  21  22
ATOM     22  O   UNL     1      -0.391  -3.501   1.097  0.00  0.00    -0.395 OA
ATOM     23  H   UNL     1      -1.191  -3.553   1.638  0.00  0.00    +0.209 HD
ENDBRANCH  21  22
ENDBRANCH  20  21
ENDBRANCH  19  20
ENDBRANCH   1  19
BRANCH   1  24
ATOM     24  C   UNL     1       5.536  -5.014   1.147  0.00  0.00    -0.051 C 
BRANCH  24  25
ATOM     25  C   UNL     1       5.277  -6.497   1.203  0.00  0.00    -0.045 C 
ATOM     26  C   UNL     1       6.130  -7.341   0.639  0.00  0.00    +0.002 C 
BRANCH  26  27
ATOM     27  C   UNL     1       5.877  -8.796   0.694  0.00  0.00    -0.025 A 
ATOM     28  C   UNL     1       4.737  -9.284   1.334  0.00  0.00    +0.010 A 
ATOM     29  C   UNL     1       4.506 -10.644   1.382  0.00  0.00    +0.033 A 
ATOM     30  C   UNL     1       5.401 -11.522   0.798  0.00  0.00    +0.126 A 
ATOM     31  C   UNL     1       6.533 -11.044   0.162  0.00  0.00    +0.033 A 
ATOM     32  C   UNL     1       6.772  -9.687   0.101  0.00  0.00    +0.010 A 
BRANCH  30  33
ATOM     33  N   UNL     1       5.147 -12.979   0.853  0.00  0.00    +0.056 N 
ATOM     34  O   UNL     1       4.159 -13.399   1.408  0.00  0.00    -0.126 OA
ATOM     35  O   UNL     1       5.927 -13.748   0.343  0.00  0.00    -0.126 OA
ENDBRANCH  30  33
ENDBRANCH  26  27
ENDBRANCH  24  25
ENDBRANCH   1  24
TORSDOF 12
