REMARK  Name = ZINC31040664
REMARK  12 active torsions:
REMARK  status: ('A' for Active; 'I' for Inactive)
REMARK    1  A    between atoms: C_1  and  C_2
REMARK    2  A    between atoms: C_2  and  C_4
REMARK    3  A    between atoms: C_2  and  N_19
REMARK    4  A    between atoms: N_6  and  C_7
REMARK    5  A    between atoms: C_15  and  C_16
REMARK    6  A    between atoms: C_16  and  C_18
REMARK    7  A    between atoms: N_19  and  C_20
REMARK    8  A    between atoms: N_19  and  C_21
REMARK    9  A    between atoms: C_21  and  C_22
REMARK   10  A    between atoms: N_24  and  C_25
REMARK   11  A    between atoms: C_30  and  S_31
REMARK   12  A    between atoms: S_31  and  C_32
REMARK                            x       y       z     vdW  Elec       q    Type
REMARK                         _______ _______ _______ _____ _____    ______ ____
ROOT
ATOM      1  C   UNL     1      -0.375   1.747  -0.436  0.00  0.00    -0.004 C 
ATOM      2  C   UNL     1       0.102   0.303  -0.262  0.00  0.00    +0.017 C 
ENDROOT
BRANCH   2   3
ATOM      3  C   UNL     1       1.148  -0.009  -1.301  0.00  0.00    +0.204 C 
ATOM      4  O   UNL     1       2.322   0.158  -1.048  0.00  0.00    -0.277 OA
ATOM      5  N   UNL     1       0.778  -0.474  -2.511  0.00  0.00    -0.283 N 
ATOM      6  H   UNL     1      -0.162  -0.560  -2.731  0.00  0.00    +0.155 HD
BRANCH   5   7
ATOM      7  C   UNL     1       1.743  -0.829  -3.441  0.00  0.00    +0.090 A 
ATOM      8  C   UNL     1       3.112  -1.283  -3.169  0.00  0.00    +0.042 A 
ATOM      9  C   UNL     1       3.848  -1.495  -2.002  0.00  0.00    +0.013 A 
ATOM     10  C   UNL     1       5.140  -1.935  -2.086  0.00  0.00    +0.001 A 
ATOM     11  C   UNL     1       5.722  -2.171  -3.324  0.00  0.00    +0.004 A 
ATOM     12  C   UNL     1       5.011  -1.967  -4.487  0.00  0.00    +0.047 A 
ATOM     13  C   UNL     1       3.696  -1.521  -4.426  0.00  0.00    +0.138 A 
ATOM     14  O   UNL     1       2.779  -1.241  -5.374  0.00  0.00    -0.450 OA
ATOM     15  C   UNL     1       1.614  -0.835  -4.819  0.00  0.00    +0.192 A 
BRANCH  15  16
ATOM     16  C   UNL     1       0.456  -0.473  -5.530  0.00  0.00    +0.197 C 
ATOM     17  O   UNL     1      -0.507  -0.026  -4.938  0.00  0.00    -0.289 OA
ATOM     18  C   UNL     1       0.408  -0.638  -7.027  0.00  0.00    +0.095 C 
ENDBRANCH  15  16
ENDBRANCH   5   7
ENDBRANCH   2   3
BRANCH   2  19
ATOM     19  N   UNL     1       0.678   0.136   1.079  0.00  0.00    +0.391 N 
ATOM     20  C   UNL     1      -0.342   0.440   2.091  0.00  0.00    -0.094 C 
ATOM     21  H   UNL     1       1.460   0.765   1.189  0.00  0.00    -0.080 HD
BRANCH  19  22
ATOM     22  C   UNL     1       1.136  -1.249   1.245  0.00  0.00    +0.020 C 
BRANCH  22  23
ATOM     23  C   UNL     1       1.879  -1.379   2.550  0.00  0.00    +0.201 C 
ATOM     24  O   UNL     1       2.014  -0.412   3.270  0.00  0.00    -0.278 OA
ATOM     25  N   UNL     1       2.394  -2.569   2.917  0.00  0.00    -0.286 N 
ATOM     26  H   UNL     1       2.351  -3.324   2.309  0.00  0.00    +0.155 HD
BRANCH  25  27
ATOM     27  C   UNL     1       2.992  -2.716   4.176  0.00  0.00    +0.047 A 
ATOM     28  C   UNL     1       3.566  -1.622   4.805  0.00  0.00    +0.024 A 
ATOM     29  C   UNL     1       4.155  -1.769   6.047  0.00  0.00    +0.002 A 
ATOM     30  C   UNL     1       4.175  -3.005   6.666  0.00  0.00    +0.001 A 
ATOM     31  C   UNL     1       3.606  -4.102   6.046  0.00  0.00    +0.016 A 
ATOM     32  C   UNL     1       3.007  -3.962   4.802  0.00  0.00    +0.029 A 
BRANCH  32  33
ATOM     33  S   UNL     1       2.274  -5.357   4.013  0.00  0.00    -0.127 S 
ATOM     34  C   UNL     1       2.537  -6.714   5.187  0.00  0.00    +0.090 C 
ENDBRANCH  32  33
ENDBRANCH  25  27
ENDBRANCH  22  23
ENDBRANCH  19  22
ENDBRANCH   2  19
TORSDOF 8
