REMARK  Name = ZINC24364258
REMARK  10 active torsions:
REMARK  status: ('A' for Active; 'I' for Inactive)
REMARK    1  A    between atoms: C_1  and  N_2
REMARK    2  A    between atoms: N_2  and  C_3
REMARK    3  A    between atoms: N_2  and  C_14
REMARK    4  A    between atoms: C_3  and  C_4
REMARK    5  A    between atoms: C_7  and  O_12
REMARK    6  A    between atoms: C_8  and  O_10
REMARK    7  A    between atoms: O_10  and  C_11
REMARK    8  A    between atoms: O_12  and  C_13
REMARK    9  A    between atoms: C_14  and  C_15
REMARK   10  A    between atoms: N_17  and  C_18
REMARK                            x       y       z     vdW  Elec       q    Type
REMARK                         _______ _______ _______ _____ _____    ______ ____
ROOT
ATOM      1  C   UNL     1      -0.014   1.209   0.011  0.00  0.00    +0.201 C 
ATOM      2  O   UNL     1       0.002  -0.004   0.013  0.00  0.00    -0.278 OA
ATOM      3  N   UNL     1       1.143   1.898   0.001  0.00  0.00    -0.287 N 
ATOM      4  H   UNL     1       1.130   2.995  -0.077  0.00  0.00    +0.155 HD
ENDROOT
BRANCH   3   5
ATOM      5  C   UNL     1       2.365   1.218   0.092  0.00  0.00    +0.037 A 
ATOM      6  C   UNL     1       3.429   1.790   0.776  0.00  0.00    +0.027 A 
ATOM      7  C   UNL     1       4.633   1.118   0.872  0.00  0.00    +0.051 A 
ATOM      8  C   UNL     1       4.784  -0.121   0.275  0.00  0.00    +0.167 A 
ATOM      9  C   UNL     1       3.719  -0.696  -0.418  0.00  0.00    +0.169 A 
ATOM     10  C   UNL     1       2.513  -0.026  -0.508  0.00  0.00    +0.072 A 
ATOM     11  O   UNL     1       4.128  -1.909  -0.907  0.00  0.00    -0.447 OA
ATOM     12  C   UNL     1       5.251  -2.251  -0.082  0.00  0.00    +0.254 C 
ATOM     13  O   UNL     1       5.851  -0.981   0.214  0.00  0.00    -0.448 OA
ATOM     14  C   UNL     1       6.229  -3.167  -0.825  0.00  0.00    +0.093 C 
ATOM     15  C   UNL     1       6.778  -4.103   0.283  0.00  0.00    +0.008 C 
ATOM     16  C   UNL     1       5.539  -4.338   1.184  0.00  0.00    +0.008 C 
ATOM     17  C   UNL     1       4.812  -2.974   1.191  0.00  0.00    +0.093 C 
ENDBRANCH   3   5
BRANCH   1  18
ATOM     18  C   UNL     1      -1.330   1.945   0.012  0.00  0.00    +0.019 C 
BRANCH  18  20
ATOM     19  C   UNL     1      -2.458   0.211   1.271  0.00  0.00    -0.095 C 
ATOM     20  N   UNL     1      -2.433   0.975   0.016  0.00  0.00    +0.386 N 
ATOM     21  H   UNL     1      -2.263   0.266  -0.808  0.00  0.00    -0.081 HD
BRANCH  20  22
ATOM     22  C   UNL     1      -3.721   1.642  -0.221  0.00  0.00    -0.043 C 
BRANCH  22  23
ATOM     23  C   UNL     1      -4.788   0.604  -0.454  0.00  0.00    -0.060 A 
ATOM     24  C   UNL     1      -5.051   0.161  -1.737  0.00  0.00    +0.005 A 
ATOM     25  C   UNL     1      -6.025  -0.795  -1.956  0.00  0.00    +0.049 A 
ATOM     26  C   UNL     1      -6.749  -1.303  -0.889  0.00  0.00    +0.161 A 
ATOM     27  C   UNL     1      -6.489  -0.852   0.402  0.00  0.00    +0.162 A 
ATOM     28  C   UNL     1      -5.507   0.102   0.615  0.00  0.00    +0.051 A 
BRANCH  27  29
ATOM     29  O   UNL     1      -7.197  -1.348   1.452  0.00  0.00    -0.491 OA
ATOM     30  C   UNL     1      -6.875  -0.840   2.749  0.00  0.00    +0.277 C 
ENDBRANCH  27  29
BRANCH  26  31
ATOM     31  O   UNL     1      -7.712  -2.239  -1.103  0.00  0.00    -0.491 OA
ATOM     32  C   UNL     1      -7.924  -2.654  -2.454  0.00  0.00    +0.277 C 
ENDBRANCH  26  31
ENDBRANCH  22  23
ENDBRANCH  20  22
ENDBRANCH  18  20
ENDBRANCH   1  18
TORSDOF 7
