REMARK  Name = ZINC16238227
REMARK  6 active torsions:
REMARK  status: ('A' for Active; 'I' for Inactive)
REMARK    1  A    between atoms: C_6  and  O_28
REMARK    2  A    between atoms: C_7  and  C_11
REMARK    3  A    between atoms: N_13  and  N_14
REMARK    4  A    between atoms: N_14  and  C_15
REMARK    5  A    between atoms: C_15  and  N_17
REMARK    6  A    between atoms: N_17  and  C_18
REMARK                            x       y       z     vdW  Elec       q    Type
REMARK                         _______ _______ _______ _____ _____    ______ ____
ROOT
ATOM      1  C   UNL     1      -2.487   1.002   0.020  0.00  0.00    +0.264 C 
ATOM      2  O   UNL     1      -3.548   1.596   0.028  0.00  0.00    -0.269 OA
ATOM      3  N   UNL     1      -2.469  -0.345   0.013  0.00  0.00    -0.231 N 
ATOM      4  H   UNL     1      -1.623  -0.819   0.006  0.00  0.00    +0.173 HD
ENDROOT
BRANCH   1  11
ATOM      5  C   UNL     1       3.581   1.868  -0.022  0.00  0.00    +0.001 A 
ATOM      6  C   UNL     1       3.547   3.261  -0.015  0.00  0.00    +0.001 A 
ATOM      7  C   UNL     1       2.364   3.934  -0.000  0.00  0.00    +0.008 A 
ATOM      8  C   UNL     1       1.155   3.217   0.008  0.00  0.00    -0.014 A 
ATOM      9  C   UNL     1      -0.082   3.884   0.023  0.00  0.00    +0.054 A 
ATOM     10  C   UNL     1      -1.242   3.168   0.030  0.00  0.00    +0.130 A 
ATOM     11  C   UNL     1      -1.219   1.757   0.017  0.00  0.00    +0.080 A 
ATOM     12  C   UNL     1      -0.013   1.076   0.008  0.00  0.00    +0.025 A 
ATOM     13  C   UNL     1       1.189   1.798   0.000  0.00  0.00    -0.017 A 
ATOM     14  C   UNL     1       2.432   1.139  -0.015  0.00  0.00    +0.008 A 
BRANCH  10  15
ATOM     15  O   UNL     1      -2.433   3.819   0.044  0.00  0.00    -0.506 OA
ATOM     16  H   UNL     1      -2.786   4.013  -0.835  0.00  0.00    +0.292 HD
ENDBRANCH  10  15
ENDBRANCH   1  11
BRANCH   3  17
ATOM     17  N   UNL     1      -3.673  -1.062   0.015  0.00  0.00    -0.246 N 
ATOM     18  H   UNL     1      -4.520  -0.588   0.021  0.00  0.00    +0.172 HD
BRANCH  17  19
ATOM     19  C   UNL     1      -3.655  -2.409   0.008  0.00  0.00    +0.147 C 
ATOM     20  S   UNL     1      -5.127  -3.285   0.011  0.00  0.00    -0.017 S 
BRANCH  19  21
ATOM     21  N   UNL     1      -2.480  -3.068  -0.001  0.00  0.00    -0.322 N 
ATOM     22  H   UNL     1      -1.646  -2.572  -0.003  0.00  0.00    +0.148 HD
BRANCH  21  23
ATOM     23  C   UNL     1      -2.460  -4.533  -0.009  0.00  0.00    +0.075 C 
ATOM     24  C   UNL     1      -2.452  -5.079   1.437  0.00  0.00    +0.026 C 
ATOM     25  C   UNL     1      -1.119  -5.880   1.548  0.00  0.00    -0.009 C 
ATOM     26  C   UNL     1      -1.344  -7.137   0.653  0.00  0.00    +0.004 C 
ATOM     27  C   UNL     1      -1.352  -6.591  -0.793  0.00  0.00    +0.005 C 
ATOM     28  C   UNL     1      -1.132  -5.056  -0.635  0.00  0.00    +0.010 C 
ATOM     29  C   UNL     1      -0.188  -5.025   0.618  0.00  0.00    +0.009 C 
ENDBRANCH  21  23
ENDBRANCH  19  21
ENDBRANCH  17  19
ENDBRANCH   3  17
TORSDOF 6
