REMARK  Name = ZINC38894156
REMARK  8 active torsions:
REMARK  status: ('A' for Active; 'I' for Inactive)
REMARK    1  A    between atoms: C_6  and  C_7
REMARK    2  A    between atoms: C_7  and  C_8
REMARK    3  A    between atoms: C_8  and  C_9
REMARK    4  A    between atoms: C_9  and  N_10
REMARK    5  A    between atoms: C_11  and  C_13
REMARK    6  A    between atoms: N_18  and  C_20
REMARK    7  A    between atoms: C_20  and  C_21
REMARK    8  A    between atoms: C_23  and  C_26
REMARK                            x       y       z     vdW  Elec       q    Type
REMARK                         _______ _______ _______ _____ _____    ______ ____
ROOT
ATOM      1  C   UNL     1      -5.079  -2.978  -4.456  0.00  0.00    +0.058 C 
ATOM      2  C   UNL     1      -5.289  -1.639  -5.169  0.00  0.00    +0.009 C 
ATOM      3  C   UNL     1      -5.816  -1.902  -6.583  0.00  0.00    -0.018 C 
ATOM      4  C   UNL     1      -7.105  -2.721  -6.497  0.00  0.00    -0.078 C 
ATOM      5  N   UNL     1      -6.833  -3.999  -5.829  0.00  0.00    +0.386 N 
ATOM      6  C   UNL     1      -6.395  -3.758  -4.449  0.00  0.00    -0.065 C 
ATOM      7  H   UNL     1      -6.108  -4.491  -6.329  0.00  0.00    -0.081 HD
ENDROOT
BRANCH   1   9
ATOM      8  N   UNL     1      -3.493  -2.052  -2.799  0.00  0.00    -0.315 N 
ATOM      9  C   UNL     1      -4.634  -2.729  -3.038  0.00  0.00    +0.214 C 
ATOM     10  O   UNL     1      -5.302  -3.137  -2.112  0.00  0.00    -0.276 OA
ATOM     11  H   UNL     1      -2.958  -1.726  -3.540  0.00  0.00    +0.149 HD
BRANCH   8  12
ATOM     12  C   UNL     1      -3.060  -1.810  -1.421  0.00  0.00    +0.104 C 
BRANCH  12  13
ATOM     13  C   UNL     1      -1.745  -1.028  -1.429  0.00  0.00    +0.023 C 
BRANCH  13  14
ATOM     14  C   UNL     1      -1.293  -0.775   0.010  0.00  0.00    +0.036 C 
BRANCH  14  20
ATOM     15  C   UNL     1      -0.017   1.378   0.010  0.00  0.00    +0.006 A 
ATOM     16  C   UNL     1       1.170   2.086   0.002  0.00  0.00    +0.038 A 
ATOM     17  C   UNL     1       2.379   1.410  -0.013  0.00  0.00    +0.123 A 
ATOM     18  C   UNL     1       2.396   0.026  -0.021  0.00  0.00    +0.038 A 
ATOM     19  C   UNL     1       1.208  -0.680  -0.013  0.00  0.00    +0.006 A 
ATOM     20  C   UNL     1       0.002  -0.004   0.002  0.00  0.00    -0.047 A 
ATOM     21  F   UNL     1       3.540   2.101  -0.021  0.00  0.00    -0.205 F 
ENDBRANCH  14  20
ENDBRANCH  13  14
ENDBRANCH  12  13
ENDBRANCH   8  12
ENDBRANCH   1   9
BRANCH   5  22
ATOM     22  C   UNL     1      -8.055  -4.814  -5.818  0.00  0.00    +0.022 C 
BRANCH  22  23
ATOM     23  C   UNL     1      -8.431  -5.175  -7.232  0.00  0.00    +0.211 A 
ATOM     24  N   UNL     1      -8.040  -6.237  -7.877  0.00  0.00    -0.193 NA
ATOM     25  C   UNL     1      -8.564  -6.242  -9.116  0.00  0.00    +0.202 A 
ATOM     26  N   UNL     1      -9.300  -5.169  -9.264  0.00  0.00    -0.056 NA
ATOM     27  O   UNL     1      -9.229  -4.460  -8.036  0.00  0.00    -0.340 OA
BRANCH  25  28
ATOM     28  C   UNL     1      -8.345  -7.290 -10.144  0.00  0.00    +0.023 A 
ATOM     29  C   UNL     1      -7.540  -8.391  -9.858  0.00  0.00    +0.014 A 
ATOM     30  C   UNL     1      -7.338  -9.363 -10.816  0.00  0.00    +0.039 A 
ATOM     31  C   UNL     1      -7.936  -9.245 -12.061  0.00  0.00    +0.123 A 
ATOM     32  C   UNL     1      -8.736  -8.152 -12.349  0.00  0.00    +0.039 A 
ATOM     33  C   UNL     1      -8.947  -7.178 -11.395  0.00  0.00    +0.014 A 
ATOM     34  F   UNL     1      -7.736 -10.199 -12.997  0.00  0.00    -0.205 F 
ENDBRANCH  25  28
ENDBRANCH  22  23
ENDBRANCH   5  22
TORSDOF 8
