REMARK  Name = ZINC19349115
REMARK  5 active torsions:
REMARK  status: ('A' for Active; 'I' for Inactive)
REMARK    1  A    between atoms: C_4  and  N_15
REMARK    2  A    between atoms: C_5  and  C_7
REMARK    3  A    between atoms: C_7  and  N_8
REMARK    4  A    between atoms: C_16  and  C_18
REMARK    5  A    between atoms: C_18  and  N_19
REMARK                            x       y       z     vdW  Elec       q    Type
REMARK                         _______ _______ _______ _____ _____    ______ ____
ROOT
ATOM      1  N   UNL     1       0.041   0.004   0.233  0.00  0.00    -0.284 N 
ATOM      2  C   UNL     1       0.092   1.168   0.910  0.00  0.00    +0.235 C 
ATOM      3  O   UNL     1      -0.910   1.611   1.431  0.00  0.00    -0.274 OA
ATOM      4  H   UNL     1       0.928  -0.357  -0.308  0.00  0.00    +0.155 HD
ENDROOT
BRANCH   1   8
ATOM      5  C   UNL     1      -3.475  -2.230   0.192  0.00  0.00    +0.000 A 
ATOM      6  C   UNL     1      -3.535  -0.848   0.219  0.00  0.00    +0.002 A 
ATOM      7  C   UNL     1      -2.372  -0.105   0.239  0.00  0.00    +0.023 A 
ATOM      8  C   UNL     1      -1.140  -0.746   0.219  0.00  0.00    +0.035 A 
ATOM      9  C   UNL     1      -1.083  -2.133   0.192  0.00  0.00    -0.043 A 
ATOM     10  C   UNL     1      -2.250  -2.871   0.178  0.00  0.00    +0.003 A 
BRANCH   9  11
ATOM     11  C   UNL     1       0.252  -2.833   0.177  0.00  0.00    -0.041 C 
BRANCH  11  12
ATOM     12  N   UNL     1       0.850  -2.719  -1.159  0.00  0.00    +0.382 N 
ATOM     13  C   UNL     1       0.066  -3.481  -2.158  0.00  0.00    -0.078 C 
ATOM     14  C   UNL     1       0.779  -3.621  -3.475  0.00  0.00    -0.019 C 
ATOM     15  C   UNL     1       1.551  -4.957  -3.475  0.00  0.00    -0.002 C 
ATOM     16  C   UNL     1       2.796  -4.873  -2.719  0.00  0.00    -0.002 C 
ATOM     17  C   UNL     1       2.555  -4.527  -1.235  0.00  0.00    -0.019 C 
ATOM     18  C   UNL     1       2.292  -3.050  -1.125  0.00  0.00    -0.078 C 
ATOM     19  H   UNL     1       0.798  -1.670  -1.484  0.00  0.00    -0.081 HD
ENDBRANCH  11  12
ENDBRANCH   9  11
ENDBRANCH   1   8
BRANCH   2  20
ATOM     20  C   UNL     1       1.392   1.923   1.014  0.00  0.00    +0.214 C 
BRANCH  20  21
ATOM     21  N   UNL     1       1.186   3.146   1.794  0.00  0.00    -0.215 N 
ATOM     22  C   UNL     1       1.326   3.225   3.133  0.00  0.00    +0.247 C 
ATOM     23  O   UNL     1       1.635   2.331   3.892  0.00  0.00    -0.273 OA
ATOM     24  C   UNL     1       1.016   4.661   3.488  0.00  0.00    +0.113 C 
ATOM     25  C   UNL     1       2.231   5.323   4.130  0.00  0.00    +0.035 C 
ATOM     26  C   UNL     1       1.907   6.783   4.456  0.00  0.00    +0.003 C 
ATOM     27  C   UNL     1       0.712   6.838   5.410  0.00  0.00    +0.000 C 
ATOM     28  C   UNL     1      -0.504   6.193   4.743  0.00  0.00    +0.003 C 
ATOM     29  C   UNL     1      -0.190   4.730   4.418  0.00  0.00    +0.035 C 
ATOM     30  N   UNL     1       0.709   5.289   2.197  0.00  0.00    -0.285 N 
ATOM     31  C   UNL     1       0.840   4.326   1.264  0.00  0.00    +0.310 C 
ATOM     32  O   UNL     1       0.661   4.508   0.076  0.00  0.00    -0.252 OA
ATOM     33  H   UNL     1       0.439   6.355   2.154  0.00  0.00    +0.151 HD
ENDBRANCH  20  21
ENDBRANCH   2  20
TORSDOF 5
