REMARK  Name = ZINC39851627
REMARK  15 active torsions:
REMARK  status: ('A' for Active; 'I' for Inactive)
REMARK    1  A    between atoms: C_1  and  C_2
REMARK    2  A    between atoms: C_2  and  C_3
REMARK    3  A    between atoms: C_3  and  N_4
REMARK    4  A    between atoms: C_5  and  N_27
REMARK    5  A    between atoms: C_6  and  C_14
REMARK    6  A    between atoms: C_7  and  C_13
REMARK    7  A    between atoms: C_8  and  C_11
REMARK    8  A    between atoms: N_18  and  C_22
REMARK    9  A    between atoms: C_22  and  C_23
REMARK   10  A    between atoms: C_23  and  C_24
REMARK   11  A    between atoms: C_24  and  O_25
REMARK   12  A    between atoms: O_25  and  C_26
REMARK   13  A    between atoms: N_27  and  C_28
REMARK   14  A    between atoms: C_28  and  C_29
REMARK   15  A    between atoms: C_29  and  C_30
REMARK                            x       y       z     vdW  Elec       q    Type
REMARK                         _______ _______ _______ _____ _____    ______ ____
ROOT
ATOM      1  N   UNL     1      -1.543  -1.935  -0.047  0.00  0.00    -0.295 N 
ATOM      2  C   UNL     1      -1.385  -2.605  -1.217  0.00  0.00    +0.109 A 
ATOM      3  C   UNL     1      -1.679  -3.976  -1.300  0.00  0.00    +0.019 A 
ATOM      4  C   UNL     1      -2.141  -4.653  -0.158  0.00  0.00    -0.017 A 
ATOM      5  C   UNL     1      -2.295  -3.943   1.029  0.00  0.00    +0.120 A 
ATOM      6  C   UNL     1      -1.978  -2.561   1.061  0.00  0.00    +0.270 A 
ATOM      7  O   UNL     1      -2.106  -1.936   2.099  0.00  0.00    -0.266 OA
ATOM      8  C   UNL     1      -2.465  -6.123  -0.219  0.00  0.00    +0.046 C 
ENDROOT
BRANCH   3   9
ATOM      9  C   UNL     1      -1.508  -4.693  -2.564  0.00  0.00    +0.032 C 
ATOM     10  C   UNL     1      -0.556  -5.659  -2.675  0.00  0.00    +0.077 C 
ATOM     11  C   UNL     1       0.369  -6.139  -1.698  0.00  0.00    +0.258 C 
ATOM     12  O   UNL     1       0.387  -5.678  -0.571  0.00  0.00    -0.269 OA
ATOM     13  N   UNL     1       1.205  -7.099  -2.055  0.00  0.00    -0.255 N 
ATOM     14  C   UNL     1       1.185  -7.610  -3.306  0.00  0.00    +0.121 C 
ATOM     15  S   UNL     1       2.166  -8.842  -3.977  0.00  0.00    -0.027 S 
ATOM     16  S   UNL     1      -0.128  -6.679  -4.079  0.00  0.00    -0.061 S 
BRANCH  13  17
ATOM     17  C   UNL     1       2.168  -7.616  -1.079  0.00  0.00    +0.117 C 
BRANCH  17  18
ATOM     18  C   UNL     1       1.544  -8.788  -0.319  0.00  0.00    +0.047 C 
BRANCH  18  19
ATOM     19  C   UNL     1       2.550  -9.328   0.700  0.00  0.00    +0.161 C 
BRANCH  19  20
ATOM     20  O   UNL     1       1.967 -10.422   1.411  0.00  0.00    -0.383 OA
ATOM     21  C   UNL     1       2.828 -11.003   2.392  0.00  0.00    +0.193 C 
ENDBRANCH  19  20
ENDBRANCH  18  19
ENDBRANCH  17  18
ENDBRANCH  13  17
ENDBRANCH   3   9
BRANCH   5  22
ATOM     22  C   UNL     1      -2.763  -4.604   2.210  0.00  0.00    +0.105 C 
ATOM     23  N   UNL     1      -3.135  -5.128   3.147  0.00  0.00    -0.191 NA
ENDBRANCH   5  22
BRANCH   2  24
ATOM     24  N   UNL     1      -0.936  -1.941  -2.321  0.00  0.00    -0.330 N 
ATOM     25  H   UNL     1       0.016  -1.812  -2.456  0.00  0.00    +0.147 HD
BRANCH  24  26
ATOM     26  C   UNL     1      -1.892  -1.425  -3.304  0.00  0.00    +0.107 C 
BRANCH  26  27
ATOM     27  C   UNL     1      -1.132  -0.839  -4.496  0.00  0.00    +0.054 C 
BRANCH  27  28
ATOM     28  C   UNL     1      -2.115  -0.307  -5.506  0.00  0.00    -0.046 A 
ATOM     29  C   UNL     1      -2.593  -1.133  -6.506  0.00  0.00    +0.004 A 
ATOM     30  C   UNL     1      -3.495  -0.645  -7.433  0.00  0.00    +0.000 A 
ATOM     31  C   UNL     1      -3.919   0.668  -7.360  0.00  0.00    +0.000 A 
ATOM     32  C   UNL     1      -3.442   1.494  -6.360  0.00  0.00    +0.000 A 
ATOM     33  C   UNL     1      -2.543   1.005  -5.430  0.00  0.00    +0.004 A 
ENDBRANCH  27  28
ENDBRANCH  26  27
ENDBRANCH  24  26
ENDBRANCH   2  24
BRANCH   1  34
ATOM     34  C   UNL     1      -1.228  -0.505   0.012  0.00  0.00    +0.126 C 
BRANCH  34  36
ATOM     35  C   UNL     1       0.618   1.166   0.211  0.00  0.00    +0.005 C 
ATOM     36  C   UNL     1       0.268  -0.322   0.273  0.00  0.00    +0.018 C 
ENDBRANCH  34  36
ENDBRANCH   1  34
TORSDOF 12
