REMARK  Name = ZINC39727402
REMARK  6 active torsions:
REMARK  status: ('A' for Active; 'I' for Inactive)
REMARK    1  A    between atoms: C_1  and  N_2
REMARK    2  A    between atoms: N_2  and  C_3
REMARK    3  A    between atoms: N_2  and  C_15
REMARK    4  A    between atoms: C_3  and  C_4
REMARK    5  A    between atoms: C_9  and  N_10
REMARK    6  A    between atoms: C_15  and  C_16
REMARK                            x       y       z     vdW  Elec       q    Type
REMARK                         _______ _______ _______ _____ _____    ______ ____
ROOT
ATOM      1  C   UNL     1      -1.798  -1.084   0.909  0.00  0.00    +0.019 C 
ENDROOT
BRANCH   1   2
ATOM      2  C   UNL     1      -2.887  -0.576  -0.001  0.00  0.00    +0.201 C 
ATOM      3  O   UNL     1      -2.647   0.303  -0.801  0.00  0.00    -0.278 OA
ATOM      4  N   UNL     1      -4.127  -1.100   0.073  0.00  0.00    -0.286 N 
ATOM      5  C   UNL     1      -4.694  -1.608  -1.003  0.00  0.00    +0.050 C 
ATOM      6  C   UNL     1      -3.923  -1.726  -2.259  0.00  0.00    +0.054 C 
ATOM      7  C   UNL     1      -4.516  -2.251  -3.361  0.00  0.00    +0.097 C 
ATOM      8  N   UNL     1      -4.112  -2.498  -4.641  0.00  0.00    -0.190 NA
ATOM      9  C   UNL     1      -5.122  -3.026  -5.293  0.00  0.00    +0.369 C 
ATOM     10  O   UNL     1      -5.077  -3.399  -6.595  0.00  0.00    -0.243 OA
ATOM     11  N   UNL     1      -6.205  -3.151  -4.508  0.00  0.00    -0.190 NA
ATOM     12  C   UNL     1      -5.922  -2.698  -3.301  0.00  0.00    +0.096 C 
ATOM     13  C   UNL     1      -6.679  -2.576  -2.052  0.00  0.00    +0.047 C 
ATOM     14  C   UNL     1      -6.091  -2.061  -0.954  0.00  0.00    +0.041 C 
ATOM     15 BR   UNL     1      -7.072  -1.915   0.657  0.00  0.00    -0.048 Br
ATOM     16  H   UNL     1      -4.602  -1.104   0.919  0.00  0.00    +0.155 HD
ENDBRANCH   1   2
BRANCH   1  18
ATOM     17  C   UNL     1      -0.722   1.059   0.984  0.00  0.00    -0.095 C 
ATOM     18  N   UNL     1      -0.551  -0.358   0.634  0.00  0.00    +0.386 N 
ATOM     19  H   UNL     1      -0.326  -0.438  -0.346  0.00  0.00    -0.081 HD
BRANCH  18  20
ATOM     20  C   UNL     1       0.537  -0.933   1.435  0.00  0.00    -0.041 C 
BRANCH  20  21
ATOM     21  C   UNL     1       1.843  -0.291   1.042  0.00  0.00    -0.043 A 
ATOM     22  C   UNL     1       2.371   0.728   1.811  0.00  0.00    +0.003 A 
ATOM     23  C   UNL     1       3.569   1.317   1.451  0.00  0.00    +0.000 A 
ATOM     24  C   UNL     1       4.242   0.889   0.321  0.00  0.00    +0.002 A 
ATOM     25  C   UNL     1       3.720  -0.129  -0.451  0.00  0.00    +0.023 A 
ATOM     26  C   UNL     1       2.519  -0.728  -0.089  0.00  0.00    +0.031 A 
BRANCH  26  27
ATOM     27  N   UNL     1       1.991  -1.761  -0.866  0.00  0.00    -0.330 N 
ATOM     28  C   UNL     1       1.203  -1.593  -2.095  0.00  0.00    +0.105 C 
ATOM     29  C   UNL     1       0.815  -3.003  -2.588  0.00  0.00    +0.020 C 
ATOM     30  C   UNL     1       0.926  -3.863  -1.301  0.00  0.00    +0.020 C 
ATOM     31  C   UNL     1       2.136  -3.203  -0.591  0.00  0.00    +0.105 C 
ENDBRANCH  26  27
ENDBRANCH  20  21
ENDBRANCH  18  20
ENDBRANCH   1  18
TORSDOF 5
