REMARK  Name = ZINC48289947
REMARK  6 active torsions:
REMARK  status: ('A' for Active; 'I' for Inactive)
REMARK    1  A    between atoms: C_1  and  C_2
REMARK    2  A    between atoms: C_8  and  C_25
REMARK    3  A    between atoms: C_8  and  C_26
REMARK    4  A    between atoms: C_10  and  N_12
REMARK    5  A    between atoms: C_18  and  C_21
REMARK    6  A    between atoms: N_23  and  C_24
REMARK                            x       y       z     vdW  Elec       q    Type
REMARK                         _______ _______ _______ _____ _____    ______ ____
ROOT
ATOM      1  N   UNL     1      -2.504  -3.297  -0.964  0.00  0.00    -0.292 N 
ATOM      2  C   UNL     1      -3.667  -2.732  -0.582  0.00  0.00    +0.303 C 
ATOM      3  O   UNL     1      -3.829  -2.398   0.575  0.00  0.00    -0.253 OA
ATOM      4  N   UNL     1      -4.650  -2.539  -1.484  0.00  0.00    -0.286 N 
ATOM      5  C   UNL     1      -4.516  -3.042  -2.858  0.00  0.00    +0.110 C 
ATOM      6  C   UNL     1      -4.754  -1.884  -3.832  0.00  0.00    +0.032 C 
ATOM      7  C   UNL     1      -6.108  -1.238  -3.529  0.00  0.00    +0.078 C 
ATOM      8  C   UNL     1      -6.100  -0.677  -2.105  0.00  0.00    +0.032 C 
ATOM      9  C   UNL     1      -5.879  -1.826  -1.109  0.00  0.00    +0.110 C 
ATOM     10  H   UNL     1      -2.401  -3.631  -1.869  0.00  0.00    +0.151 HD
ENDROOT
BRANCH   1  20
ATOM     11  C   UNL     1      -0.022   1.507   0.003  0.00  0.00    +0.086 C 
ATOM     12  C   UNL     1      -0.000   0.001  -0.004  0.00  0.00    +0.103 A 
ATOM     13  C   UNL     1      -1.082  -0.803  -0.001  0.00  0.00    +0.050 A 
ATOM     14  C   UNL     1      -0.602  -2.125  -0.009  0.00  0.00    +0.014 A 
ATOM     15  C   UNL     1       0.745  -2.059  -0.015  0.00  0.00    +0.111 A 
ATOM     16  O   UNL     1       1.103  -0.769  -0.018  0.00  0.00    -0.464 OA
ATOM     17  C   UNL     1       1.647  -3.269  -0.022  0.00  0.00    +0.081 C 
ATOM     18  C   UNL     1       0.821  -4.492   0.397  0.00  0.00    -0.026 C 
ATOM     19  C   UNL     1      -0.464  -4.550  -0.434  0.00  0.00    +0.034 C 
ATOM     20  C   UNL     1      -1.395  -3.406  -0.013  0.00  0.00    +0.109 C 
ATOM     21  C   UNL     1       1.638  -5.764   0.162  0.00  0.00    +0.011 C 
ATOM     22  C   UNL     1       0.465  -4.382   1.881  0.00  0.00    +0.011 C 
ENDBRANCH   1  20
BRANCH   7  23
ATOM     23  C   UNL     1      -6.361  -0.120  -4.507  0.00  0.00    +0.216 C 
ATOM     24  O   UNL     1      -5.540   0.135  -5.363  0.00  0.00    -0.276 OA
ATOM     25  N   UNL     1      -7.500   0.597  -4.432  0.00  0.00    -0.318 N 
ATOM     26  C   UNL     1      -7.747   1.683  -5.383  0.00  0.00    +0.128 C 
ATOM     27  H   UNL     1      -8.157   0.393  -3.748  0.00  0.00    +0.148 HD
ENDBRANCH   7  23
TORSDOF 2
