REMARK  Name = ZINC15222797
REMARK  9 active torsions:
REMARK  status: ('A' for Active; 'I' for Inactive)
REMARK    1  A    between atoms: C_1  and  C_2
REMARK    2  A    between atoms: C_2  and  C_3
REMARK    3  A    between atoms: C_2  and  C_4
REMARK    4  A    between atoms: C_9  and  N_10
REMARK    5  A    between atoms: C_20  and  S_21
REMARK    6  A    between atoms: S_21  and  C_22
REMARK    7  A    between atoms: C_22  and  C_23
REMARK    8  A    between atoms: N_25  and  C_26
REMARK    9  A    between atoms: C_31  and  C_32
REMARK                            x       y       z     vdW  Elec       q    Type
REMARK                         _______ _______ _______ _____ _____    ______ ____
ROOT
ATOM      1  N   UNL     1       0.037  -2.769   0.029  0.00  0.00    -0.255 N 
ATOM      2  C   UNL     1       1.239  -2.149   0.031  0.00  0.00    +0.267 A 
ATOM      3  O   UNL     1       2.277  -2.784   0.023  0.00  0.00    -0.267 OA
ATOM      4  C   UNL     1       1.246  -0.680   0.041  0.00  0.00    +0.065 A 
ATOM      5  C   UNL     1       2.433   0.051   0.044  0.00  0.00    +0.015 A 
ATOM      6  C   UNL     1       2.382   1.418   0.054  0.00  0.00    +0.001 A 
ATOM      7  C   UNL     1       1.163   2.083   0.062  0.00  0.00    +0.002 A 
ATOM      8  C   UNL     1      -0.016   1.391   0.060  0.00  0.00    +0.028 A 
ATOM      9  C   UNL     1       0.003  -0.006   0.049  0.00  0.00    +0.079 A 
ATOM     10  N   UNL     1      -1.140  -0.731   0.047  0.00  0.00    -0.223 NA
ATOM     11  C   UNL     1      -1.121  -2.041   0.038  0.00  0.00    +0.177 A 
ENDROOT
BRANCH   1  17
ATOM     12  C   UNL     1      -0.056  -4.856  -1.187  0.00  0.00    -0.021 A 
ATOM     13  C   UNL     1      -0.114  -6.236  -1.193  0.00  0.00    +0.006 A 
ATOM     14  C   UNL     1      -0.140  -6.933   0.000  0.00  0.00    +0.000 A 
ATOM     15  C   UNL     1      -0.107  -6.253   1.204  0.00  0.00    +0.002 A 
ATOM     16  C   UNL     1      -0.044  -4.873   1.216  0.00  0.00    +0.026 A 
ATOM     17  C   UNL     1      -0.023  -4.169   0.019  0.00  0.00    +0.055 A 
BRANCH  12  19
ATOM     18  C   UNL     1       1.203  -4.514  -3.296  0.00  0.00    +0.012 C 
ATOM     19  C   UNL     1      -0.027  -4.096  -2.488  0.00  0.00    +0.015 C 
ATOM     20  C   UNL     1      -1.293  -4.408  -3.289  0.00  0.00    +0.012 C 
ENDBRANCH  12  19
ENDBRANCH   1  17
BRANCH  11  21
ATOM     21  S   UNL     1      -2.657  -2.904   0.037  0.00  0.00    -0.078 S 
BRANCH  21  22
ATOM     22  C   UNL     1      -3.804  -1.504   0.050  0.00  0.00    +0.173 C 
BRANCH  22  23
ATOM     23  C   UNL     1      -5.222  -2.017   0.051  0.00  0.00    +0.227 C 
ATOM     24  O   UNL     1      -5.435  -3.210   0.044  0.00  0.00    -0.275 OA
ATOM     25  N   UNL     1      -6.252  -1.148   0.060  0.00  0.00    -0.284 N 
ATOM     26  H   UNL     1      -6.083  -0.195   0.132  0.00  0.00    +0.155 HD
BRANCH  25  27
ATOM     27  C   UNL     1      -7.566  -1.620  -0.034  0.00  0.00    +0.045 A 
ATOM     28  C   UNL     1      -7.915  -2.828   0.555  0.00  0.00    +0.024 A 
ATOM     29  C   UNL     1      -9.214  -3.288   0.465  0.00  0.00    +0.002 A 
ATOM     30  C   UNL     1     -10.164  -2.553  -0.221  0.00  0.00    +0.001 A 
ATOM     31  C   UNL     1      -9.818  -1.352  -0.813  0.00  0.00    +0.014 A 
ATOM     32  C   UNL     1      -8.522  -0.884  -0.722  0.00  0.00    +0.076 A 
BRANCH  32  33
ATOM     33  C   UNL     1      -8.145   0.424  -1.369  0.00  0.00    +0.419 C 
ATOM     34  F   UNL     1      -9.268   0.974  -1.996  0.00  0.00    -0.166 F 
ATOM     35  F   UNL     1      -7.676   1.309  -0.392  0.00  0.00    -0.166 F 
ATOM     36  F   UNL     1      -7.142   0.203  -2.318  0.00  0.00    -0.166 F 
ENDBRANCH  32  33
ENDBRANCH  25  27
ENDBRANCH  22  23
ENDBRANCH  21  22
ENDBRANCH  11  21
TORSDOF 7
