REMARK  Name = ZINC46841154
REMARK  13 active torsions:
REMARK  status: ('A' for Active; 'I' for Inactive)
REMARK    1  A    between atoms: C_1  and  C_2
REMARK    2  A    between atoms: C_5  and  S_8
REMARK    3  A    between atoms: S_8  and  N_11
REMARK    4  A    between atoms: N_11  and  C_12
REMARK    5  A    between atoms: C_12  and  C_14
REMARK    6  A    between atoms: C_12  and  C_18
REMARK    7  A    between atoms: C_14  and  C_15
REMARK    8  A    between atoms: C_15  and  C_16
REMARK    9  A    between atoms: C_15  and  C_17
REMARK   10  A    between atoms: N_20  and  C_21
REMARK   11  A    between atoms: C_21  and  C_22
REMARK   12  A    between atoms: C_30  and  C_37
REMARK   13  A    between atoms: C_33  and  C_36
REMARK                            x       y       z     vdW  Elec       q    Type
REMARK                         _______ _______ _______ _____ _____    ______ ____
ROOT
ATOM      1  C   UNL     1       3.586  -3.810   0.270  0.00  0.00    +0.232 C 
ATOM      2  O   UNL     1       3.813  -3.854  -0.920  0.00  0.00    -0.274 OA
ATOM      3  N   UNL     1       4.472  -3.232   1.105  0.00  0.00    -0.310 N 
ATOM      4  H   UNL     1       4.324  -3.259   2.063  0.00  0.00    +0.149 HD
ENDROOT
BRANCH   1   5
ATOM      5  C   UNL     1       2.312  -4.402   0.816  0.00  0.00    +0.162 C 
BRANCH   5   6
ATOM      6  N   UNL     1       1.335  -4.543  -0.268  0.00  0.00    -0.178 NA
ATOM      7  H   UNL     1       1.631  -4.793  -1.157  0.00  0.00    +0.149 HD
BRANCH   6   8
ATOM      8  S   UNL     1      -0.272  -4.276   0.026  0.00  0.00    +0.059 S 
ATOM      9  O   UNL     1      -0.610  -5.049   1.170  0.00  0.00    -0.153 OA
ATOM     10  O   UNL     1      -0.942  -4.424  -1.218  0.00  0.00    -0.153 OA
BRANCH   8  15
ATOM     11  C   UNL     1      -0.859   1.513   1.623  0.00  0.00    +0.044 C 
ATOM     12  C   UNL     1      -0.712   0.067   1.224  0.00  0.00    -0.050 A 
ATOM     13  C   UNL     1      -0.804  -0.295  -0.107  0.00  0.00    +0.005 A 
ATOM     14  C   UNL     1      -0.669  -1.622  -0.472  0.00  0.00    +0.029 A 
ATOM     15  C   UNL     1      -0.443  -2.585   0.492  0.00  0.00    +0.105 A 
ATOM     16  C   UNL     1      -0.350  -2.223   1.823  0.00  0.00    +0.029 A 
ATOM     17  C   UNL     1      -0.480  -0.896   2.189  0.00  0.00    +0.005 A 
ENDBRANCH   8  15
ENDBRANCH   6   8
ENDBRANCH   5   6
BRANCH   5  18
ATOM     18  C   UNL     1       2.605  -5.776   1.420  0.00  0.00    +0.032 C 
BRANCH  18  19
ATOM     19  C   UNL     1       3.518  -5.613   2.638  0.00  0.00    -0.015 C 
ATOM     20  C   UNL     1       2.761  -4.881   3.748  0.00  0.00    +0.007 C 
ATOM     21  C   UNL     1       3.949  -6.993   3.140  0.00  0.00    +0.007 C 
ENDBRANCH  18  19
ENDBRANCH   5  18
ENDBRANCH   1   5
BRANCH   3  22
ATOM     22  C   UNL     1       5.658  -2.563   0.565  0.00  0.00    +0.141 C 
BRANCH  22  23
ATOM     23  C   UNL     1       6.479  -2.004   1.698  0.00  0.00    -0.014 A 
ATOM     24  C   UNL     1       6.247  -0.717   2.164  0.00  0.00    +0.010 A 
ATOM     25  C   UNL     1       7.023  -0.242   3.206  0.00  0.00    +0.042 A 
ATOM     26  C   UNL     1       8.005  -1.066   3.748  0.00  0.00    +0.099 A 
ATOM     27  N   UNL     1       8.195  -2.288   3.276  0.00  0.00    -0.349 N 
ATOM     28  C   UNL     1       7.466  -2.769   2.287  0.00  0.00    +0.089 A 
ATOM     29  N   UNL     1       8.792  -0.602   4.796  0.00  0.00    -0.312 N 
ATOM     30  C   UNL     1       9.928  -1.392   5.297  0.00  0.00    +0.137 C 
ATOM     31  C   UNL     1      11.163  -0.484   5.348  0.00  0.00    +0.133 C 
ATOM     32  O   UNL     1      10.844   0.703   6.078  0.00  0.00    -0.371 OA
ATOM     33  C   UNL     1       9.818   1.500   5.480  0.00  0.00    +0.133 C 
ATOM     34  C   UNL     1       8.518   0.697   5.432  0.00  0.00    +0.137 C 
ATOM     35  C   UNL     1       9.608   2.768   6.309  0.00  0.00    +0.039 C 
ATOM     36  C   UNL     1      11.584  -0.113   3.925  0.00  0.00    +0.039 C 
ATOM     37  H   UNL     1       8.885  -2.845   3.669  0.00  0.00    +0.167 HD
ENDBRANCH  22  23
ENDBRANCH   3  22
TORSDOF 8
