REMARK  Name = ZINC35853580
REMARK  8 active torsions:
REMARK  status: ('A' for Active; 'I' for Inactive)
REMARK    1  A    between atoms: C_4  and  C_7
REMARK    2  A    between atoms: C_7  and  C_8
REMARK    3  A    between atoms: C_7  and  N_14
REMARK    4  A    between atoms: N_17  and  C_20
REMARK    5  A    between atoms: C_20  and  C_21
REMARK    6  A    between atoms: C_23  and  C_26
REMARK    7  A    between atoms: N_28  and  C_29
REMARK    8  A    between atoms: C_29  and  C_30
REMARK                            x       y       z     vdW  Elec       q    Type
REMARK                         _______ _______ _______ _____ _____    ______ ____
ROOT
ATOM      1  N   UNL     1       3.538  -1.965  -0.776  0.00  0.00    -0.295 NA
ATOM      2  C   UNL     1       2.517  -2.811  -0.143  0.00  0.00    +0.067 C 
ATOM      3  C   UNL     1       2.324  -4.082  -0.974  0.00  0.00    -0.063 C 
ATOM      4  N   UNL     1       3.599  -4.806  -1.063  0.00  0.00    +0.387 N 
ATOM      5  C   UNL     1       4.602  -3.957  -1.720  0.00  0.00    -0.063 C 
ATOM      6  C   UNL     1       4.813  -2.686  -0.895  0.00  0.00    +0.067 C 
ATOM      7  H   UNL     1       3.916  -5.045  -0.136  0.00  0.00    -0.081 HD
ENDROOT
BRANCH   1   8
ATOM      8  C   UNL     1       3.711  -0.707  -0.038  0.00  0.00    +0.117 C 
BRANCH   8  12
ATOM      9  C   UNL     1       6.585   1.736  -2.043  0.00  0.00    +0.000 A 
ATOM     10  C   UNL     1       6.641   1.588  -0.669  0.00  0.00    +0.000 A 
ATOM     11  C   UNL     1       5.711   0.798  -0.021  0.00  0.00    +0.005 A 
ATOM     12  C   UNL     1       4.725   0.155  -0.745  0.00  0.00    -0.026 A 
ATOM     13  C   UNL     1       4.668   0.304  -2.118  0.00  0.00    +0.005 A 
ATOM     14  C   UNL     1       5.599   1.093  -2.767  0.00  0.00    +0.000 A 
ENDBRANCH   8  12
BRANCH   8  15
ATOM     15  C   UNL     1       2.393   0.021   0.032  0.00  0.00    -0.026 A 
ATOM     16  C   UNL     1       1.600   0.122  -1.096  0.00  0.00    +0.005 A 
ATOM     17  C   UNL     1       0.391   0.789  -1.032  0.00  0.00    +0.000 A 
ATOM     18  C   UNL     1      -0.025   1.355   0.159  0.00  0.00    +0.000 A 
ATOM     19  C   UNL     1       0.768   1.253   1.286  0.00  0.00    +0.000 A 
ATOM     20  C   UNL     1       1.975   0.582   1.224  0.00  0.00    +0.005 A 
ENDBRANCH   8  15
ENDBRANCH   1   8
BRANCH   4  21
ATOM     21  C   UNL     1       3.410  -6.035  -1.846  0.00  0.00    +0.019 C 
BRANCH  21  22
ATOM     22  C   UNL     1       4.684  -6.839  -1.835  0.00  0.00    +0.179 A 
ATOM     23  N   UNL     1       4.992  -7.749  -0.960  0.00  0.00    -0.210 NA
ATOM     24  C   UNL     1       6.215  -8.255  -1.276  0.00  0.00    +0.163 A 
ATOM     25  C   UNL     1       6.641  -7.604  -2.392  0.00  0.00    +0.230 A 
ATOM     26  O   UNL     1       5.677  -6.732  -2.729  0.00  0.00    -0.449 OA
BRANCH  24  27
ATOM     27  C   UNL     1       6.943  -9.308  -0.545  0.00  0.00    +0.266 C 
ATOM     28  O   UNL     1       8.036  -9.673  -0.933  0.00  0.00    -0.268 OA
ATOM     29  N   UNL     1       6.396  -9.867   0.553  0.00  0.00    -0.303 N 
ATOM     30  H   UNL     1       5.524  -9.576   0.862  0.00  0.00    +0.150 HD
BRANCH  29  31
ATOM     31  C   UNL     1       7.119 -10.914   1.279  0.00  0.00    +0.179 C 
BRANCH  31  32
ATOM     32  C   UNL     1       6.296 -11.368   2.458  0.00  0.00    +0.122 A 
ATOM     33  C   UNL     1       5.396 -12.367   2.451  0.00  0.00    +0.046 A 
ATOM     34  C   UNL     1       4.864 -12.448   3.758  0.00  0.00    +0.041 A 
ATOM     35  C   UNL     1       5.471 -11.493   4.486  0.00  0.00    +0.195 A 
ATOM     36  O   UNL     1       6.341 -10.846   3.694  0.00  0.00    -0.466 OA
ENDBRANCH  31  32
ENDBRANCH  29  31
ENDBRANCH  24  27
ENDBRANCH  21  22
ENDBRANCH   4  21
TORSDOF 8
