REMARK  Name = ZINC08815959
REMARK  9 active torsions:
REMARK  status: ('A' for Active; 'I' for Inactive)
REMARK    1  A    between atoms: C_1  and  C_2
REMARK    2  A    between atoms: C_5  and  C_9
REMARK    3  A    between atoms: C_6  and  C_8
REMARK    4  A    between atoms: C_11  and  C_29
REMARK    5  A    between atoms: C_12  and  C_17
REMARK    6  A    between atoms: C_17  and  S_18
REMARK    7  A    between atoms: S_18  and  C_19
REMARK    8  A    between atoms: C_29  and  O_31
REMARK    9  A    between atoms: O_31  and  C_32
REMARK                            x       y       z     vdW  Elec       q    Type
REMARK                         _______ _______ _______ _____ _____    ______ ____
ROOT
ATOM      1  C   UNL     1       2.501   5.846   1.266  0.00  0.00    +0.144 C 
ATOM      2  C   UNL     1       2.479   4.367   0.938  0.00  0.00    +0.079 C 
ATOM      3  C   UNL     1       2.247   4.011  -0.344  0.00  0.00    +0.034 C 
ATOM      4  N   UNL     1       2.044   4.953  -1.312  0.00  0.00    -0.272 N 
ATOM      5  C   UNL     1       2.048   6.271  -1.077  0.00  0.00    +0.304 C 
ATOM      6  O   UNL     1       1.853   7.034  -2.003  0.00  0.00    -0.252 OA
ATOM      7  N   UNL     1       2.266   6.780   0.152  0.00  0.00    -0.288 N 
ATOM      8  H   UNL     1       1.885   4.650  -2.219  0.00  0.00    +0.156 HD
ATOM      9  H   UNL     1       2.268   7.739   0.299  0.00  0.00    +0.151 HD
ENDROOT
BRANCH   1  14
ATOM     10  C   UNL     1       7.656   7.083   3.566  0.00  0.00    +0.044 C 
ATOM     11  C   UNL     1       6.312   6.761   2.966  0.00  0.00    -0.050 A 
ATOM     12  C   UNL     1       6.116   6.881   1.603  0.00  0.00    +0.004 A 
ATOM     13  C   UNL     1       4.883   6.585   1.052  0.00  0.00    +0.006 A 
ATOM     14  C   UNL     1       3.846   6.168   1.865  0.00  0.00    -0.020 A 
ATOM     15  C   UNL     1       4.040   6.053   3.229  0.00  0.00    -0.045 A 
ATOM     16  C   UNL     1       5.274   6.346   3.779  0.00  0.00    +0.007 A 
ATOM     17  C   UNL     1       2.906   5.605   4.116  0.00  0.00    +0.044 C 
ENDBRANCH   1  14
BRANCH   2  18
ATOM     18  C   UNL     1       2.694   3.392   1.940  0.00  0.00    +0.339 C 
ATOM     19  O   UNL     1       1.783   3.069   2.680  0.00  0.00    -0.245 OA
BRANCH  18  20
ATOM     20  O   UNL     1       3.908   2.821   2.077  0.00  0.00    -0.465 OA
ATOM     21  C   UNL     1       4.034   1.791   3.059  0.00  0.00    +0.280 C 
ENDBRANCH  18  20
ENDBRANCH   2  18
BRANCH   3  22
ATOM     22  C   UNL     1       2.216   2.550  -0.714  0.00  0.00    +0.128 C 
BRANCH  22  23
ATOM     23  S   UNL     1       0.502   2.026  -0.962  0.00  0.00    -0.082 S 
BRANCH  23  24
ATOM     24  C   UNL     1       0.756   0.331  -1.371  0.00  0.00    +0.168 A 
ATOM     25  N   UNL     1      -0.235  -0.565  -1.658  0.00  0.00    -0.333 N 
ATOM     26  H   UNL     1      -1.217  -0.379  -1.671  0.00  0.00    +0.168 HD
ATOM     27  C   UNL     1       0.375  -1.779  -1.928  0.00  0.00    +0.067 A 
ATOM     28  C   UNL     1      -0.097  -3.035  -2.277  0.00  0.00    +0.028 A 
ATOM     29  C   UNL     1       0.791  -4.072  -2.477  0.00  0.00    +0.002 A 
ATOM     30  C   UNL     1       2.155  -3.866  -2.332  0.00  0.00    +0.002 A 
ATOM     31  C   UNL     1       2.642  -2.625  -1.986  0.00  0.00    +0.030 A 
ATOM     32  C   UNL     1       1.755  -1.565  -1.780  0.00  0.00    +0.090 A 
ATOM     33  N   UNL     1       1.924  -0.260  -1.440  0.00  0.00    -0.222 NA
ENDBRANCH  23  24
ENDBRANCH  22  23
ENDBRANCH   3  22
TORSDOF 6
