REMARK  Name = ZINC36028094
REMARK  9 active torsions:
REMARK  status: ('A' for Active; 'I' for Inactive)
REMARK    1  A    between atoms: C_1  and  C_2
REMARK    2  A    between atoms: C_2  and  C_3
REMARK    3  A    between atoms: C_3  and  C_5
REMARK    4  A    between atoms: C_3  and  C_6
REMARK    5  A    between atoms: N_10  and  C_27
REMARK    6  A    between atoms: N_15  and  S_18
REMARK    7  A    between atoms: S_18  and  C_21
REMARK    8  A    between atoms: C_27  and  C_28
REMARK    9  A    between atoms: C_32  and  C_34
REMARK                            x       y       z     vdW  Elec       q    Type
REMARK                         _______ _______ _______ _____ _____    ______ ____
ROOT
ATOM      1  C   UNL     1      -0.851  -2.830  -0.919  0.00  0.00    +0.022 C 
ATOM      2  C   UNL     1      -1.687  -3.716  -0.021  0.00  0.00    +0.201 C 
ATOM      3  O   UNL     1      -2.733  -4.248  -0.325  0.00  0.00    -0.277 OA
ATOM      4  N   UNL     1      -1.070  -3.816   1.175  0.00  0.00    -0.309 N 
ATOM      5  C   UNL     1       0.172  -3.039   1.152  0.00  0.00    +0.006 C 
ATOM      6  N   UNL     1       0.068  -2.116  -0.000  0.00  0.00    +0.401 N 
ATOM      7  C   UNL     1       0.319  -2.238   2.444  0.00  0.00    +0.023 C 
ATOM      8  C   UNL     1       0.389  -3.201   3.634  0.00  0.00    +0.109 C 
ATOM      9  N   UNL     1       1.462  -4.175   3.391  0.00  0.00    -0.177 NA
ATOM     10  C   UNL     1       1.450  -4.943   2.138  0.00  0.00    +0.109 C 
ATOM     11  C   UNL     1       1.372  -3.965   0.962  0.00  0.00    +0.023 C 
ATOM     12  H   UNL     1       0.970  -1.980  -0.433  0.00  0.00    -0.082 HD
ATOM     13  H   UNL     1      -0.328  -1.233   0.286  0.00  0.00    -0.082 HD
ENDROOT
BRANCH   9  14
ATOM     14  S   UNL     1       2.664  -4.402   4.508  0.00  0.00    +0.061 S 
ATOM     15  O   UNL     1       3.817  -4.811   3.786  0.00  0.00    -0.153 OA
ATOM     16  O   UNL     1       2.658  -3.256   5.349  0.00  0.00    -0.153 OA
BRANCH  14  17
ATOM     17  C   UNL     1       2.188  -5.768   5.514  0.00  0.00    +0.105 A 
ATOM     18  C   UNL     1       1.358  -5.570   6.601  0.00  0.00    +0.028 A 
ATOM     19  C   UNL     1       0.985  -6.641   7.391  0.00  0.00    +0.002 A 
ATOM     20  C   UNL     1       1.442  -7.912   7.092  0.00  0.00    +0.000 A 
ATOM     21  C   UNL     1       2.272  -8.110   6.004  0.00  0.00    +0.002 A 
ATOM     22  C   UNL     1       2.641  -7.039   5.213  0.00  0.00    +0.028 A 
ENDBRANCH  14  17
ENDBRANCH   9  14
BRANCH   1  23
ATOM     23  C   UNL     1      -1.743  -1.833  -1.662  0.00  0.00    -0.020 C 
ATOM     24  C   UNL     1      -2.540  -1.008  -0.649  0.00  0.00    +0.006 C 
BRANCH  23  26
ATOM     25  C   UNL     1      -3.514  -1.595  -3.408  0.00  0.00    +0.004 C 
ATOM     26  C   UNL     1      -2.708  -2.593  -2.573  0.00  0.00    -0.001 C 
ENDBRANCH  23  26
ENDBRANCH   1  23
BRANCH   4  27
ATOM     27  C   UNL     1      -1.566  -4.584   2.321  0.00  0.00    +0.141 C 
BRANCH  27  28
ATOM     28  C   UNL     1      -2.665  -3.812   3.004  0.00  0.00    -0.030 A 
ATOM     29  C   UNL     1      -2.750  -3.806   4.384  0.00  0.00    +0.005 A 
ATOM     30  C   UNL     1      -3.759  -3.099   5.011  0.00  0.00    +0.001 A 
ATOM     31  C   UNL     1      -4.681  -2.396   4.258  0.00  0.00    +0.012 A 
ATOM     32  C   UNL     1      -4.595  -2.401   2.879  0.00  0.00    +0.055 A 
ATOM     33  C   UNL     1      -3.584  -3.105   2.252  0.00  0.00    +0.017 A 
BRANCH  32  34
ATOM     34  C   UNL     1      -5.601  -1.635   2.059  0.00  0.00    +0.417 C 
ATOM     35  F   UNL     1      -6.432  -0.898   2.909  0.00  0.00    -0.166 F 
ATOM     36  F   UNL     1      -4.931  -0.766   1.192  0.00  0.00    -0.166 F 
ATOM     37  F   UNL     1      -6.374  -2.532   1.313  0.00  0.00    -0.166 F 
ENDBRANCH  32  34
ENDBRANCH  27  28
ENDBRANCH   4  27
TORSDOF 7
