REMARK  Name = ZINC08593198
REMARK  8 active torsions:
REMARK  status: ('A' for Active; 'I' for Inactive)
REMARK    1  A    between atoms: C_1  and  C_2
REMARK    2  A    between atoms: C_7  and  N_8
REMARK    3  A    between atoms: C_9  and  C_11
REMARK    4  A    between atoms: C_11  and  N_12
REMARK    5  A    between atoms: C_15  and  C_19
REMARK    6  A    between atoms: C_16  and  C_18
REMARK    7  A    between atoms: N_22  and  C_25
REMARK    8  A    between atoms: C_25  and  C_26
REMARK                            x       y       z     vdW  Elec       q    Type
REMARK                         _______ _______ _______ _____ _____    ______ ____
ROOT
ATOM      1  N   UNL     1      -0.241  -0.905   5.988  0.00  0.00    -0.278 N 
ATOM      2  C   UNL     1      -1.463  -1.369   6.405  0.00  0.00    +0.097 A 
ATOM      3  C   UNL     1      -1.566  -2.280   7.455  0.00  0.00    +0.074 A 
ATOM      4  C   UNL     1      -2.925  -2.683   7.786  0.00  0.00    -0.026 A 
ATOM      5  C   UNL     1      -3.908  -2.137   7.053  0.00  0.00    -0.008 A 
ATOM      6  S   UNL     1      -3.034  -1.083   5.915  0.00  0.00    -0.075 S 
ATOM      7  C   UNL     1      -5.394  -2.363   7.165  0.00  0.00    +0.052 C 
ATOM      8  C   UNL     1      -3.214  -3.662   8.895  0.00  0.00    +0.045 C 
ATOM      9  C   UNL     1      -0.290  -2.701   8.073  0.00  0.00    +0.265 A 
ATOM     10  O   UNL     1      -0.285  -3.495   8.996  0.00  0.00    -0.267 OA
ATOM     11  N   UNL     1       0.865  -2.197   7.603  0.00  0.00    -0.256 N 
ATOM     12  C   UNL     1       0.891  -1.325   6.582  0.00  0.00    +0.334 A 
ATOM     13  O   UNL     1       1.961  -0.901   6.189  0.00  0.00    -0.246 OA
ENDROOT
BRANCH   1  14
ATOM     14  C   UNL     1      -0.168   0.052   4.882  0.00  0.00    +0.223 C 
BRANCH  14  16
ATOM     15  N   UNL     1       0.025  -0.015   2.417  0.00  0.00    -0.284 N 
ATOM     16  C   UNL     1      -0.056  -0.694   3.578  0.00  0.00    +0.237 C 
ATOM     17  O   UNL     1      -0.040  -1.907   3.573  0.00  0.00    -0.274 OA
ATOM     18  H   UNL     1       0.078   0.954   2.425  0.00  0.00    +0.155 HD
BRANCH  15  25
ATOM     19  C   UNL     1      -1.264   1.184   0.181  0.00  0.00    +0.045 C 
ATOM     20  C   UNL     1      -0.584  -0.158   0.084  0.00  0.00    -0.029 A 
ATOM     21  C   UNL     1      -0.568  -0.840  -1.117  0.00  0.00    +0.005 A 
ATOM     22  C   UNL     1       0.055  -2.071  -1.206  0.00  0.00    +0.000 A 
ATOM     23  C   UNL     1       0.666  -2.622  -0.095  0.00  0.00    +0.002 A 
ATOM     24  C   UNL     1       0.655  -1.945   1.108  0.00  0.00    +0.023 A 
ATOM     25  C   UNL     1       0.034  -0.706   1.201  0.00  0.00    +0.036 A 
ENDBRANCH  15  25
ENDBRANCH  14  16
ENDBRANCH   1  14
BRANCH  11  26
ATOM     26  C   UNL     1       2.128  -2.615   8.218  0.00  0.00    +0.165 C 
BRANCH  26  27
ATOM     27  C   UNL     1       2.654  -3.833   7.504  0.00  0.00    -0.028 A 
ATOM     28  C   UNL     1       2.289  -5.096   7.932  0.00  0.00    +0.005 A 
ATOM     29  C   UNL     1       2.772  -6.214   7.278  0.00  0.00    +0.000 A 
ATOM     30  C   UNL     1       3.620  -6.069   6.196  0.00  0.00    +0.000 A 
ATOM     31  C   UNL     1       3.984  -4.806   5.767  0.00  0.00    +0.000 A 
ATOM     32  C   UNL     1       3.498  -3.688   6.419  0.00  0.00    +0.005 A 
ENDBRANCH  26  27
ENDBRANCH  11  26
TORSDOF 5
