REMARK  Name = ZINC12591441
REMARK  7 active torsions:
REMARK  status: ('A' for Active; 'I' for Inactive)
REMARK    1  A    between atoms: C_1  and  N_60
REMARK    2  A    between atoms: C_2  and  C_3
REMARK    3  A    between atoms: C_2  and  N_60
REMARK    4  A    between atoms: C_8  and  N_9
REMARK    5  A    between atoms: C_15  and  C_16
REMARK    6  A    between atoms: C_15  and  N_60
REMARK    7  A    between atoms: C_23  and  C_27
REMARK                            x       y       z     vdW  Elec       q    Type
REMARK                         _______ _______ _______ _____ _____    ______ ____
ROOT
ATOM      1  C   UNL     1      -4.742   4.403   0.186  0.00  0.00    -0.003 C 
ENDROOT
BRANCH   1   2
ATOM      2  C   UNL     1      -3.564   3.492  -0.049  0.00  0.00    +0.094 A 
ATOM      3  N   UNL     1      -3.713   2.153   0.118  0.00  0.00    -0.312 N 
ATOM      4  H   UNL     1      -4.576   1.801   0.386  0.00  0.00    +0.170 HD
ATOM      5  C   UNL     1      -2.688   1.304  -0.080  0.00  0.00    +0.260 A 
ATOM      6  O   UNL     1      -2.840   0.104   0.075  0.00  0.00    -0.267 OA
ATOM      7  C   UNL     1      -1.414   1.832  -0.476  0.00  0.00    +0.073 A 
ATOM      8  C   UNL     1      -0.217   1.145  -0.736  0.00  0.00    +0.031 A 
ATOM      9  C   UNL     1       0.891   1.835  -1.109  0.00  0.00    +0.022 A 
ATOM     10  S   UNL     1       0.322   3.526  -1.112  0.00  0.00    -0.068 S 
ATOM     11  C   UNL     1      -1.358   3.233  -0.618  0.00  0.00    +0.116 A 
ATOM     12  N   UNL     1      -2.415   4.006  -0.400  0.00  0.00    -0.229 NA
BRANCH   9  13
ATOM     13  C   UNL     1       2.236   1.314  -1.431  0.00  0.00    -0.011 A 
ATOM     14  C   UNL     1       2.492  -0.057  -1.365  0.00  0.00    +0.009 A 
ATOM     15  C   UNL     1       3.748  -0.537  -1.672  0.00  0.00    +0.001 A 
ATOM     16  C   UNL     1       4.757   0.338  -2.035  0.00  0.00    +0.000 A 
ATOM     17  C   UNL     1       4.512   1.698  -2.097  0.00  0.00    +0.001 A 
ATOM     18  C   UNL     1       3.258   2.191  -1.798  0.00  0.00    +0.009 A 
ENDBRANCH   9  13
ENDBRANCH   1   2
BRANCH   1  20
ATOM     19  C   UNL     1      -4.008   6.010  -1.470  0.00  0.00    -0.095 C 
ATOM     20  N   UNL     1      -4.316   5.800  -0.040  0.00  0.00    +0.385 N 
ATOM     21  H   UNL     1      -3.472   5.985   0.514  0.00  0.00    -0.081 HD
BRANCH  20  22
ATOM     22  C   UNL     1      -5.384   6.729   0.389  0.00  0.00    -0.041 C 
BRANCH  22  23
ATOM     23  C   UNL     1      -4.805   8.116   0.495  0.00  0.00    -0.043 A 
ATOM     24  C   UNL     1      -5.079   9.056  -0.479  0.00  0.00    +0.003 A 
ATOM     25  C   UNL     1      -4.552  10.331  -0.380  0.00  0.00    +0.000 A 
ATOM     26  C   UNL     1      -3.741  10.666   0.688  0.00  0.00    +0.002 A 
ATOM     27  C   UNL     1      -3.458   9.729   1.663  0.00  0.00    +0.023 A 
ATOM     28  C   UNL     1      -3.990   8.449   1.569  0.00  0.00    +0.031 A 
BRANCH  28  29
ATOM     29  N   UNL     1      -3.706   7.499   2.553  0.00  0.00    -0.330 N 
ATOM     30  C   UNL     1      -4.205   7.934   3.864  0.00  0.00    +0.105 C 
ATOM     31  C   UNL     1      -4.007   6.811   4.884  0.00  0.00    +0.019 C 
ATOM     32  C   UNL     1      -2.518   6.465   4.973  0.00  0.00    +0.003 C 
ATOM     33  C   UNL     1      -2.012   6.062   3.586  0.00  0.00    +0.019 C 
ATOM     34  C   UNL     1      -2.268   7.207   2.603  0.00  0.00    +0.105 C 
ENDBRANCH  28  29
ENDBRANCH  22  23
ENDBRANCH  20  22
ENDBRANCH   1  20
TORSDOF 6
