REMARK  Name = ZINC63375943
REMARK  8 active torsions:
REMARK  status: ('A' for Active; 'I' for Inactive)
REMARK    1  A    between atoms: C_1  and  C_2
REMARK    2  A    between atoms: C_2  and  C_3
REMARK    3  A    between atoms: C_2  and  C_4
REMARK    4  A    between atoms: C_7  and  C_10
REMARK    5  A    between atoms: N_28  and  C_31
REMARK    6  A    between atoms: C_36  and  C_37
REMARK    7  A    between atoms: N_39  and  C_40
REMARK    8  A    between atoms: C_40  and  C_41
REMARK                            x       y       z     vdW  Elec       q    Type
REMARK                         _______ _______ _______ _____ _____    ______ ____
ROOT
ATOM      1  C   UNL     1      -5.419  -2.005   0.043  0.00  0.00    +0.135 C 
ATOM      2  C   UNL     1      -6.322  -1.093  -0.801  0.00  0.00    +0.131 C 
ATOM      3  C   UNL     1      -7.612  -1.859  -1.060  0.00  0.00    -0.034 C 
ATOM      4  C   UNL     1      -8.598  -1.097  -0.598  0.00  0.00    -0.001 A 
ATOM      5  C   UNL     1     -10.059  -1.270  -0.618  0.00  0.00    +0.010 A 
ATOM      6  C   UNL     1     -10.788  -0.281  -0.035  0.00  0.00    +0.001 A 
ATOM      7  C   UNL     1     -10.216   0.848   0.558  0.00  0.00    +0.002 A 
ATOM      8  C   UNL     1      -8.882   1.090   0.619  0.00  0.00    +0.026 A 
ATOM      9  C   UNL     1      -8.013   0.123   0.036  0.00  0.00    +0.043 A 
ATOM     10  N   UNL     1      -6.696   0.117  -0.066  0.00  0.00    -0.375 N 
ATOM     11  C   UNL     1      -7.647  -3.244  -1.664  0.00  0.00    +0.065 C 
ATOM     12  C   UNL     1      -6.699  -4.114  -0.820  0.00  0.00    +0.169 C 
ATOM     13  N   UNL     1      -5.466  -3.339  -0.569  0.00  0.00    -0.264 N 
ATOM     14  C   UNL     1      -4.446  -4.077  -1.025  0.00  0.00    +0.317 C 
ATOM     15  O   UNL     1      -3.276  -3.785  -0.871  0.00  0.00    -0.252 OA
ATOM     16  N   UNL     1      -4.864  -5.174  -1.671  0.00  0.00    -0.192 N 
ATOM     17  C   UNL     1      -6.228  -5.301  -1.632  0.00  0.00    +0.248 C 
ATOM     18  O   UNL     1      -6.916  -6.164  -2.132  0.00  0.00    -0.273 OA
ATOM     19  H   UNL     1      -6.081   0.782   0.282  0.00  0.00    +0.160 HD
ENDROOT
BRANCH   1  23
ATOM     20  C   UNL     1      -1.412  -0.526   0.012  0.00  0.00    -0.045 A 
ATOM     21  C   UNL     1      -2.073  -0.705   1.212  0.00  0.00    +0.004 A 
ATOM     22  C   UNL     1      -3.370  -1.184   1.223  0.00  0.00    +0.006 A 
ATOM     23  C   UNL     1      -4.006  -1.482   0.032  0.00  0.00    -0.025 A 
ATOM     24  C   UNL     1      -3.345  -1.302  -1.169  0.00  0.00    +0.006 A 
ATOM     25  C   UNL     1      -2.049  -0.820  -1.179  0.00  0.00    +0.004 A 
BRANCH  20  27
ATOM     26  C   UNL     1       0.042   1.375   0.660  0.00  0.00    +0.012 C 
ATOM     27  C   UNL     1       0.002  -0.004   0.001  0.00  0.00    +0.013 C 
ATOM     28  C   UNL     1       0.906  -0.966   0.774  0.00  0.00    +0.012 C 
ENDBRANCH  20  27
ENDBRANCH   1  23
BRANCH  16  29
ATOM     29  C   UNL     1      -4.015  -6.085  -2.303  0.00  0.00    +0.058 A 
ATOM     30  C   UNL     1      -3.514  -7.173  -1.602  0.00  0.00    +0.025 A 
ATOM     31  C   UNL     1      -2.675  -8.072  -2.229  0.00  0.00    +0.002 A 
ATOM     32  C   UNL     1      -2.326  -7.897  -3.558  0.00  0.00    +0.001 A 
ATOM     33  C   UNL     1      -2.813  -6.821  -4.269  0.00  0.00    +0.015 A 
ATOM     34  C   UNL     1      -3.668  -5.907  -3.650  0.00  0.00    +0.059 A 
BRANCH  34  35
ATOM     35  C   UNL     1      -4.198  -4.756  -4.407  0.00  0.00    +0.246 C 
ATOM     36  O   UNL     1      -4.938  -3.960  -3.863  0.00  0.00    -0.270 OA
ATOM     37  N   UNL     1      -3.863  -4.589  -5.701  0.00  0.00    -0.308 N 
ATOM     38  H   UNL     1      -3.272  -5.225  -6.135  0.00  0.00    +0.149 HD
BRANCH  37  39
ATOM     39  C   UNL     1      -4.389  -3.447  -6.453  0.00  0.00    +0.131 C 
BRANCH  39  40
ATOM     40  C   UNL     1      -3.866  -3.492  -7.866  0.00  0.00    -0.016 C 
ATOM     41  C   UNL     1      -4.702  -3.474  -8.874  0.00  0.00    +0.005 C 
ENDBRANCH  39  40
ENDBRANCH  37  39
ENDBRANCH  34  35
ENDBRANCH  16  29
TORSDOF 6
