REMARK  Name = ZINC31167296
REMARK  13 active torsions:
REMARK  status: ('A' for Active; 'I' for Inactive)
REMARK    1  A    between atoms: C_1  and  O_2
REMARK    2  A    between atoms: O_2  and  C_3
REMARK    3  A    between atoms: C_5  and  C_10
REMARK    4  A    between atoms: C_8  and  O_9
REMARK    5  A    between atoms: C_11  and  C_12
REMARK    6  A    between atoms: C_14  and  O_40
REMARK    7  A    between atoms: C_19  and  C_31
REMARK    8  A    between atoms: C_21  and  C_23
REMARK    9  A    between atoms: C_25  and  O_30
REMARK   10  A    between atoms: C_27  and  O_29
REMARK   11  A    between atoms: C_34  and  O_39
REMARK   12  A    between atoms: C_35  and  O_37
REMARK   13  A    between atoms: O_37  and  C_38
REMARK                            x       y       z     vdW  Elec       q    Type
REMARK                         _______ _______ _______ _____ _____    ______ ____
ROOT
ATOM      1  C   UNL     1       4.915   1.052  -0.038  0.00  0.00    -0.018 A 
ATOM      2  C   UNL     1       4.938  -0.345  -0.040  0.00  0.00    +0.053 A 
ATOM      3  C   UNL     1       6.153  -1.008  -0.057  0.00  0.00    +0.125 A 
ATOM      4  C   UNL     1       7.336  -0.289  -0.061  0.00  0.00    +0.047 A 
ATOM      5  C   UNL     1       7.329   1.100  -0.059  0.00  0.00    +0.129 A 
ATOM      6  C   UNL     1       6.111   1.770  -0.046  0.00  0.00    +0.054 A 
ATOM      7  O   UNL     1       8.596   1.599  -0.079  0.00  0.00    -0.483 OA
ATOM      8  C   UNL     1       9.515   0.578   0.345  0.00  0.00    +0.216 C 
ATOM      9  C   UNL     1       8.789  -0.726  -0.062  0.00  0.00    +0.101 C 
ENDROOT
BRANCH   9  10
ATOM     10  C   UNL     1       9.216  -1.175  -1.435  0.00  0.00    -0.029 A 
ATOM     11  C   UNL     1       9.006  -0.352  -2.526  0.00  0.00    +0.050 A 
ATOM     12  C   UNL     1       9.404  -0.760  -3.791  0.00  0.00    +0.121 A 
ATOM     13  C   UNL     1      10.003  -1.999  -3.962  0.00  0.00    +0.090 A 
ATOM     14  C   UNL     1      10.207  -2.825  -2.868  0.00  0.00    +0.121 A 
ATOM     15  C   UNL     1       9.812  -2.410  -1.603  0.00  0.00    +0.050 A 
BRANCH  14  16
ATOM     16  O   UNL     1      10.794  -4.039  -3.032  0.00  0.00    -0.507 OA
ATOM     17  H   UNL     1      10.956  -4.694  -2.163  0.00  0.00    +0.292 HD
ENDBRANCH  14  16
BRANCH  12  18
ATOM     18  O   UNL     1       9.202   0.051  -4.862  0.00  0.00    -0.507 OA
ATOM     19  H   UNL     1       9.517  -0.273  -5.865  0.00  0.00    +0.292 HD
ENDBRANCH  12  18
ENDBRANCH   9  10
BRANCH   8  20
ATOM     20  C   UNL     1       9.721   0.631   1.837  0.00  0.00    -0.003 A 
ATOM     21  C   UNL     1       8.655   0.912   2.671  0.00  0.00    +0.011 A 
ATOM     22  C   UNL     1       8.838   0.957   4.041  0.00  0.00    +0.049 A 
ATOM     23  C   UNL     1      10.095   0.730   4.579  0.00  0.00    +0.158 A 
ATOM     24  C   UNL     1      11.169   0.452   3.739  0.00  0.00    +0.162 A 
ATOM     25  C   UNL     1      10.977   0.404   2.368  0.00  0.00    +0.056 A 
BRANCH  24  26
ATOM     26  O   UNL     1      12.404   0.228   4.263  0.00  0.00    -0.491 OA
ATOM     27  C   UNL     1      13.459  -0.051   3.341  0.00  0.00    +0.277 C 
ENDBRANCH  24  26
BRANCH  23  28
ATOM     28  O   UNL     1      10.277   0.778   5.926  0.00  0.00    -0.503 OA
ATOM     29  H   UNL     1      11.275   0.598   6.352  0.00  0.00    +0.292 HD
ENDBRANCH  23  28
ENDBRANCH   8  20
BRANCH   1  31
ATOM     30  C   UNL     1       2.475   1.077  -0.015  0.00  0.00    +0.008 C 
ATOM     31  C   UNL     1       3.627   1.768  -0.023  0.00  0.00    +0.009 C 
BRANCH  30  34
ATOM     32  C   UNL     1      -1.218   1.752   0.017  0.00  0.00    +0.162 A 
ATOM     33  C   UNL     1      -0.013   1.076   0.008  0.00  0.00    +0.057 A 
ATOM     34  C   UNL     1       1.187   1.793   0.000  0.00  0.00    -0.021 A 
ATOM     35  C   UNL     1       1.162   3.190   0.008  0.00  0.00    +0.012 A 
ATOM     36  C   UNL     1      -0.044   3.858   0.023  0.00  0.00    +0.050 A 
ATOM     37  C   UNL     1      -1.235   3.145   0.031  0.00  0.00    +0.158 A 
BRANCH  32  39
ATOM     38  C   UNL     1      -2.295  -0.368   0.011  0.00  0.00    +0.277 C 
ATOM     39  O   UNL     1      -2.387   1.058   0.019  0.00  0.00    -0.491 OA
ENDBRANCH  32  39
BRANCH  37  40
ATOM     40  O   UNL     1      -2.422   3.809   0.045  0.00  0.00    -0.503 OA
ATOM     41  H   UNL     1      -2.437   4.908   0.056  0.00  0.00    +0.292 HD
ENDBRANCH  37  40
ENDBRANCH  30  34
ENDBRANCH   1  31
BRANCH   3  42
ATOM     42  O   UNL     1       6.185  -2.367  -0.065  0.00  0.00    -0.506 OA
ATOM     43  H   UNL     1       7.150  -2.895  -0.079  0.00  0.00    +0.292 HD
ENDBRANCH   3  42
TORSDOF 11
