REMARK  Name = ZINC22194202
REMARK  14 active torsions:
REMARK  status: ('A' for Active; 'I' for Inactive)
REMARK    1  A    between atoms: C_1  and  C_2
REMARK    2  A    between atoms: C_3  and  C_16
REMARK    3  A    between atoms: C_4  and  C_15
REMARK    4  A    between atoms: N_5  and  C_7
REMARK    5  A    between atoms: C_7  and  C_8
REMARK    6  A    between atoms: C_16  and  N_17
REMARK    7  A    between atoms: N_17  and  C_18
REMARK    8  A    between atoms: N_17  and  C_19
REMARK    9  A    between atoms: C_19  and  N_20
REMARK   10  A    between atoms: N_23  and  C_29
REMARK   11  A    between atoms: C_24  and  C_26
REMARK   12  A    between atoms: C_26  and  C_27
REMARK   13  A    between atoms: C_26  and  C_28
REMARK   14  A    between atoms: C_29  and  C_30
REMARK                            x       y       z     vdW  Elec       q    Type
REMARK                         _______ _______ _______ _____ _____    ______ ____
ROOT
ATOM      1  N   UNL     1      -2.714   5.425  -4.332  0.00  0.00    +0.394 N 
ATOM      2  C   UNL     1      -4.064   4.875  -4.513  0.00  0.00    -0.093 C 
ATOM      3  H   UNL     1      -2.657   5.858  -3.323  0.00  0.00    -0.079 HD
ENDROOT
BRANCH   1   4
ATOM      4  C   UNL     1      -2.449   6.498  -5.300  0.00  0.00    -0.037 C 
BRANCH   4   7
ATOM      5  C   UNL     1      -1.798   8.927  -3.370  0.00  0.00    +0.068 C 
ATOM      6  C   UNL     1      -3.067   8.741  -4.161  0.00  0.00    +0.062 A 
ATOM      7  C   UNL     1      -3.354   7.669  -5.012  0.00  0.00    -0.021 A 
ATOM      8  C   UNL     1      -4.585   7.870  -5.536  0.00  0.00    +0.038 A 
ATOM      9  N   UNL     1      -5.064   9.025  -5.028  0.00  0.00    -0.264 N 
ATOM     10  N   UNL     1      -4.092   9.555  -4.170  0.00  0.00    -0.176 NA
ATOM     11  C   UNL     1      -5.295   6.966  -6.510  0.00  0.00    +0.065 C 
BRANCH   9  12
ATOM     12  C   UNL     1      -6.368   9.622  -5.325  0.00  0.00    +0.180 C 
BRANCH  12  13
ATOM     13  C   UNL     1      -6.242  10.538  -6.516  0.00  0.00    -0.008 A 
ATOM     14  C   UNL     1      -6.634  10.103  -7.768  0.00  0.00    +0.007 A 
ATOM     15  C   UNL     1      -6.518  10.943  -8.859  0.00  0.00    +0.000 A 
ATOM     16  C   UNL     1      -6.010  12.218  -8.700  0.00  0.00    +0.001 A 
ATOM     17  C   UNL     1      -5.617  12.655  -7.449  0.00  0.00    +0.020 A 
ATOM     18  C   UNL     1      -5.738  11.816  -6.354  0.00  0.00    +0.046 A 
ATOM     19 CL   UNL     1      -5.252  12.366  -4.781  0.00  0.00    -0.083 Cl
ENDBRANCH  12  13
ENDBRANCH   9  12
ENDBRANCH   4   7
ENDBRANCH   1   4
BRANCH   1  20
ATOM     20  C   UNL     1      -1.698   4.368  -4.427  0.00  0.00    +0.072 C 
BRANCH  20  21
ATOM     21  N   UNL     1      -1.850   3.442  -3.303  0.00  0.00    -0.257 N 
ATOM     22  C   UNL     1      -1.254   3.544  -2.096  0.00  0.00    +0.177 A 
ATOM     23  S   UNL     1      -0.180   4.780  -1.597  0.00  0.00    -0.011 S 
ATOM     24  N   UNL     1      -1.657   2.491  -1.357  0.00  0.00    -0.299 N 
ATOM     25  C   UNL     1      -2.520   1.736  -2.115  0.00  0.00    +0.135 A 
ATOM     26  N   UNL     1      -2.647   2.289  -3.278  0.00  0.00    -0.157 NA
BRANCH  25  27
ATOM     27  C   UNL     1      -3.205   0.472  -1.665  0.00  0.00    +0.051 C 
ATOM     28  C   UNL     1      -4.722   0.663  -1.730  0.00  0.00    +0.015 C 
ATOM     29  C   UNL     1      -2.797  -0.683  -2.581  0.00  0.00    +0.015 C 
ENDBRANCH  25  27
BRANCH  24  30
ATOM     30  C   UNL     1      -1.250   2.203   0.020  0.00  0.00    +0.199 C 
BRANCH  30  31
ATOM     31  C   UNL     1      -0.016   1.339   0.009  0.00  0.00    +0.125 A 
ATOM     32  C   UNL     1       1.254   1.781  -0.000  0.00  0.00    +0.046 A 
ATOM     33  C   UNL     1       2.086   0.638  -0.014  0.00  0.00    +0.041 A 
ATOM     34  C   UNL     1       1.274  -0.435  -0.012  0.00  0.00    +0.195 A 
ATOM     35  O   UNL     1       0.002  -0.004   0.002  0.00  0.00    -0.466 OA
ENDBRANCH  30  31
ENDBRANCH  24  30
ENDBRANCH  20  21
ENDBRANCH   1  20
TORSDOF 9
