REMARK  Name = ZINC33683332
REMARK  7 active torsions:
REMARK  status: ('A' for Active; 'I' for Inactive)
REMARK    1  A    between atoms: C_1  and  C_2
REMARK    2  A    between atoms: C_5  and  C_8
REMARK    3  A    between atoms: C_11  and  C_14
REMARK    4  A    between atoms: C_14  and  N_15
REMARK    5  A    between atoms: N_15  and  C_16
REMARK    6  A    between atoms: C_16  and  C_17
REMARK    7  A    between atoms: N_27  and  C_28
REMARK                            x       y       z     vdW  Elec       q    Type
REMARK                         _______ _______ _______ _____ _____    ______ ____
ROOT
ATOM      1  N   UNL     1      -2.865  -2.306   0.017  0.00  0.00    -0.278 N 
ATOM      2  C   UNL     1      -1.601  -1.839   0.007  0.00  0.00    +0.303 C 
ATOM      3  O   UNL     1      -0.666  -2.617  -0.006  0.00  0.00    -0.253 OA
ATOM      4  N   UNL     1      -1.372  -0.511   0.012  0.00  0.00    -0.294 N 
ATOM      5  H   UNL     1      -2.218   0.192   0.024  0.00  0.00    +0.151 HD
ENDROOT
BRANCH   4   6
ATOM      6  C   UNL     1       0.002  -0.004   0.002  0.00  0.00    +0.037 C 
ATOM      7  C   UNL     1      -0.019   1.526   0.010  0.00  0.00    +0.029 C 
ATOM      8  C   UNL     1       1.417   2.055  -0.000  0.00  0.00    -0.008 C 
ATOM      9  C   UNL     1       2.157   1.548   1.239  0.00  0.00    +0.007 C 
ATOM     10  C   UNL     1       2.178   0.019   1.231  0.00  0.00    -0.008 C 
ATOM     11  C   UNL     1       0.742  -0.511   1.242  0.00  0.00    +0.029 C 
ATOM     12  C   UNL     1       2.894  -0.475  -0.028  0.00  0.00    +0.007 C 
ATOM     13  C   UNL     1       2.154   0.032  -1.268  0.00  0.00    -0.008 C 
ATOM     14  C   UNL     1       2.133   1.562  -1.259  0.00  0.00    +0.007 C 
ATOM     15  C   UNL     1       0.718  -0.497  -1.257  0.00  0.00    +0.029 C 
ENDBRANCH   4   6
BRANCH   1  16
ATOM     16  C   UNL     1      -3.113  -3.750   0.012  0.00  0.00    +0.157 C 
BRANCH  16  20
ATOM     17  C   UNL     1      -4.272  -6.021   2.650  0.00  0.00    +0.091 C 
ATOM     18  N   UNL     1      -4.837  -4.895   2.930  0.00  0.00    -0.089 NA
ATOM     19  O   UNL     1      -4.411  -3.842   2.087  0.00  0.00    -0.388 OA
ATOM     20  C   UNL     1      -3.186  -4.260   1.452  0.00  0.00    +0.227 C 
ATOM     21  C   UNL     1      -3.322  -5.801   1.488  0.00  0.00    +0.108 C 
BRANCH  17  26
ATOM     22  C   UNL     1      -5.202 -11.019   5.343  0.00  0.00    +0.044 C 
ATOM     23  C   UNL     1      -4.958  -9.709   4.638  0.00  0.00    -0.050 A 
ATOM     24  C   UNL     1      -5.634  -8.572   5.043  0.00  0.00    +0.004 A 
ATOM     25  C   UNL     1      -5.416  -7.371   4.402  0.00  0.00    +0.010 A 
ATOM     26  C   UNL     1      -4.511  -7.304   3.341  0.00  0.00    -0.000 A 
ATOM     27  C   UNL     1      -3.836  -8.456   2.934  0.00  0.00    +0.010 A 
ATOM     28  C   UNL     1      -4.059  -9.650   3.587  0.00  0.00    +0.004 A 
ENDBRANCH  17  26
ENDBRANCH  16  20
ENDBRANCH   1  16
BRANCH   1  29
ATOM     29  C   UNL     1      -3.991  -1.369   0.033  0.00  0.00    +0.147 C 
BRANCH  29  30
ATOM     30  C   UNL     1      -4.391  -1.040  -1.383  0.00  0.00    +0.005 A 
ATOM     31  C   UNL     1      -3.975   0.144  -1.960  0.00  0.00    +0.011 A 
ATOM     32  C   UNL     1      -4.337   0.445  -3.260  0.00  0.00    +0.039 A 
ATOM     33  C   UNL     1      -5.126  -0.436  -3.981  0.00  0.00    +0.126 A 
ATOM     34  C   UNL     1      -5.547  -1.620  -3.402  0.00  0.00    +0.077 A 
ATOM     35  C   UNL     1      -5.179  -1.923  -2.102  0.00  0.00    +0.131 A 
ATOM     36  F   UNL     1      -5.590  -3.078  -1.535  0.00  0.00    -0.205 F 
ATOM     37  F   UNL     1      -5.483  -0.140  -5.250  0.00  0.00    -0.205 F 
ENDBRANCH  29  30
ENDBRANCH   1  29
TORSDOF 6
