REMARK  Name = ZINC36586771
REMARK  19 active torsions:
REMARK  status: ('A' for Active; 'I' for Inactive)
REMARK    1  A    between atoms: C_1  and  C_2
REMARK    2  A    between atoms: C_2  and  C_3
REMARK    3  A    between atoms: C_2  and  C_4
REMARK    4  A    between atoms: C_2  and  C_5
REMARK    5  A    between atoms: C_5  and  C_6
REMARK    6  A    between atoms: C_6  and  C_7
REMARK    7  A    between atoms: C_6  and  C_8
REMARK    8  A    between atoms: C_6  and  N_9
REMARK    9  A    between atoms: C_10  and  C_12
REMARK   10  A    between atoms: C_12  and  C_14
REMARK   11  A    between atoms: C_12  and  N_23
REMARK   12  A    between atoms: C_17  and  N_20
REMARK   13  A    between atoms: N_23  and  C_34
REMARK   14  A    between atoms: C_24  and  C_26
REMARK   15  A    between atoms: C_27  and  O_33
REMARK   16  A    between atoms: C_31  and  O_32
REMARK   17  A    between atoms: C_34  and  C_35
REMARK   18  A    between atoms: C_34  and  C_36
REMARK   19  A    between atoms: C_34  and  C_37
REMARK                            x       y       z     vdW  Elec       q    Type
REMARK                         _______ _______ _______ _____ _____    ______ ____
ROOT
ATOM      1  C   UNL     1       4.739  -0.403  -4.999  0.00  0.00    +0.193 C 
ENDROOT
BRANCH   1   2
ATOM      2  C   UNL     1       4.207   0.273  -6.237  0.00  0.00    -0.018 A 
ATOM      3  C   UNL     1       4.609   1.558  -6.549  0.00  0.00    +0.008 A 
ATOM      4  C   UNL     1       4.121   2.178  -7.685  0.00  0.00    +0.033 A 
ATOM      5  C   UNL     1       3.233   1.512  -8.508  0.00  0.00    +0.126 A 
ATOM      6  C   UNL     1       2.832   0.226  -8.196  0.00  0.00    +0.033 A 
ATOM      7  C   UNL     1       3.323  -0.395  -7.063  0.00  0.00    +0.008 A 
BRANCH   5   8
ATOM      8  N   UNL     1       2.710   2.175  -9.723  0.00  0.00    +0.056 N 
ATOM      9  O   UNL     1       3.060   3.300  -9.996  0.00  0.00    -0.126 OA
ATOM     10  O   UNL     1       1.933   1.593 -10.444  0.00  0.00    -0.126 OA
ENDBRANCH   5   8
ENDBRANCH   1   2
BRANCH   1  12
ATOM     11  N   UNL     1       2.554  -0.547  -3.848  0.00  0.00    -0.308 N 
ATOM     12  C   UNL     1       3.828  -0.107  -3.835  0.00  0.00    +0.239 C 
ATOM     13  O   UNL     1       4.241   0.526  -2.887  0.00  0.00    -0.273 OA
ATOM     14  H   UNL     1       2.223  -1.053  -4.606  0.00  0.00    +0.149 HD
BRANCH  11  15
ATOM     15  C   UNL     1       1.668  -0.259  -2.717  0.00  0.00    +0.030 C 
ATOM     16  C   UNL     1       1.805   1.213  -2.323  0.00  0.00    +0.031 C 
ATOM     17  C   UNL     1       2.056  -1.143  -1.529  0.00  0.00    +0.031 C 
BRANCH  15  18
ATOM     18  C   UNL     1       0.220  -0.548  -3.116  0.00  0.00    +0.031 C 
BRANCH  18  20
ATOM     19  C   UNL     1       0.468  -0.906  -5.577  0.00  0.00    +0.010 C 
ATOM     20  C   UNL     1      -0.056   0.046  -4.499  0.00  0.00    -0.036 C 
ATOM     21  C   UNL     1       0.652   1.397  -4.624  0.00  0.00    +0.010 C 
ATOM     22  C   UNL     1      -1.562   0.241  -4.679  0.00  0.00    +0.010 C 
ENDBRANCH  18  20
ENDBRANCH  15  18
ENDBRANCH  11  15
ENDBRANCH   1  12
BRANCH   1  23
ATOM     23  N   UNL     1       6.083   0.101  -4.707  0.00  0.00    -0.277 N 
ATOM     24  C   UNL     1       6.244   1.344  -4.211  0.00  0.00    +0.255 C 
ATOM     25  O   UNL     1       5.273   2.000  -3.887  0.00  0.00    -0.270 OA
BRANCH  24  26
ATOM     26  C   UNL     1       7.596   1.907  -4.061  0.00  0.00    +0.119 A 
ATOM     27  C   UNL     1       8.202   2.584  -5.129  0.00  0.00    +0.133 A 
ATOM     28  C   UNL     1       9.474   3.111  -4.977  0.00  0.00    +0.046 A 
ATOM     29  C   UNL     1      10.147   2.970  -3.778  0.00  0.00    +0.007 A 
ATOM     30  C   UNL     1       9.560   2.304  -2.718  0.00  0.00    +0.046 A 
ATOM     31  C   UNL     1       8.286   1.775  -2.847  0.00  0.00    +0.133 A 
BRANCH  31  32
ATOM     32  O   UNL     1       7.709   1.127  -1.803  0.00  0.00    -0.506 OA
ATOM     33  H   UNL     1       7.891   0.178  -1.781  0.00  0.00    +0.292 HD
ENDBRANCH  31  32
BRANCH  27  34
ATOM     34  O   UNL     1       7.544   2.723  -6.308  0.00  0.00    -0.506 OA
ATOM     35  H   UNL     1       7.005   3.523  -6.365  0.00  0.00    +0.292 HD
ENDBRANCH  27  34
ENDBRANCH  24  26
BRANCH  23  36
ATOM     36  C   UNL     1       7.252  -0.747  -4.954  0.00  0.00    +0.030 C 
ATOM     37  C   UNL     1       6.790  -2.144  -5.370  0.00  0.00    +0.031 C 
ATOM     38  C   UNL     1       8.099  -0.135  -6.072  0.00  0.00    +0.031 C 
ATOM     39  C   UNL     1       8.089  -0.846  -3.676  0.00  0.00    +0.031 C 
ENDBRANCH  23  36
ENDBRANCH   1  23
TORSDOF 11
