REMARK  Name = ZINC29468169
REMARK  17 active torsions:
REMARK  status: ('A' for Active; 'I' for Inactive)
REMARK    1  A    between atoms: C_1  and  C_2
REMARK    2  A    between atoms: C_4  and  C_39
REMARK    3  A    between atoms: C_6  and  C_8
REMARK    4  A    between atoms: C_9  and  C_26
REMARK    5  A    between atoms: C_12  and  C_18
REMARK    6  A    between atoms: C_18  and  C_19
REMARK    7  A    between atoms: C_18  and  C_20
REMARK    8  A    between atoms: C_18  and  C_21
REMARK    9  A    between atoms: N_23  and  C_24
REMARK   10  A    between atoms: N_23  and  C_25
REMARK   11  A    between atoms: C_26  and  C_27
REMARK   12  A    between atoms: C_27  and  N_28
REMARK   13  A    between atoms: N_28  and  C_29
REMARK   14  A    between atoms: C_29  and  C_30
REMARK   15  A    between atoms: C_30  and  C_31
REMARK   16  A    between atoms: C_31  and  C_32
REMARK   17  A    between atoms: C_32  and  C_33
REMARK                            x       y       z     vdW  Elec       q    Type
REMARK                         _______ _______ _______ _____ _____    ______ ____
ROOT
ATOM      1  C   UNL     1       1.687   1.959   1.203  0.00  0.00    +0.051 A 
ATOM      2  C   UNL     1       0.418   2.432   1.127  0.00  0.00    -0.016 A 
ATOM      3  C   UNL     1       0.508   3.830   0.711  0.00  0.00    +0.004 A 
ATOM      4  C   UNL     1      -0.437   4.830   0.465  0.00  0.00    +0.015 A 
ATOM      5  C   UNL     1      -0.025   6.071   0.071  0.00  0.00    -0.032 A 
ATOM      6  C   UNL     1       1.326   6.349  -0.087  0.00  0.00    +0.007 A 
ATOM      7  C   UNL     1       2.276   5.379   0.150  0.00  0.00    +0.026 A 
ATOM      8  C   UNL     1       1.880   4.107   0.552  0.00  0.00    +0.047 A 
ATOM      9  N   UNL     1       2.571   2.955   0.857  0.00  0.00    -0.354 N 
ATOM     10  H   UNL     1       3.653   2.755   0.856  0.00  0.00    +0.166 HD
ENDROOT
BRANCH   1  16
ATOM     11  C   UNL     1       0.983  -2.969   0.862  0.00  0.00    +0.044 C 
ATOM     12  C   UNL     1       1.728  -1.790   1.431  0.00  0.00    -0.050 A 
ATOM     13  C   UNL     1       2.767  -1.994   2.321  0.00  0.00    +0.006 A 
ATOM     14  C   UNL     1       3.456  -0.917   2.849  0.00  0.00    -0.050 A 
ATOM     15  C   UNL     1       3.111   0.370   2.490  0.00  0.00    +0.013 A 
ATOM     16  C   UNL     1       2.063   0.583   1.593  0.00  0.00    -0.001 A 
ATOM     17  C   UNL     1       1.368  -0.508   1.069  0.00  0.00    +0.013 A 
ATOM     18  C   UNL     1       4.587  -1.149   3.818  0.00  0.00    +0.044 C 
ENDBRANCH   1  16
BRANCH   5  19
ATOM     19  C   UNL     1      -1.045   7.148  -0.194  0.00  0.00    +0.066 C 
ATOM     20  C   UNL     1      -1.525   7.051  -1.643  0.00  0.00    +0.025 C 
ATOM     21  C   UNL     1      -2.235   6.967   0.751  0.00  0.00    +0.025 C 
BRANCH  19  22
ATOM     22  C   UNL     1      -0.421   8.500   0.039  0.00  0.00    +0.225 C 
ATOM     23  O   UNL     1      -0.475   9.350  -0.825  0.00  0.00    -0.275 OA
ATOM     24  N   UNL     1       0.199   8.764   1.206  0.00  0.00    -0.307 N 
ATOM     25  C   UNL     1       0.708  10.111   1.477  0.00  0.00    +0.131 C 
ATOM     26  C   UNL     1       0.363   7.704   2.204  0.00  0.00    +0.131 C 
ENDBRANCH  19  22
ENDBRANCH   5  19
BRANCH   2  27
ATOM     27  C   UNL     1      -0.844   1.662   1.419  0.00  0.00    +0.019 C 
BRANCH  27  28
ATOM     28  C   UNL     1      -1.202   1.812   2.899  0.00  0.00    -0.078 C 
BRANCH  28  29
ATOM     29  N   UNL     1      -2.433   1.062   3.184  0.00  0.00    +0.379 N 
ATOM     30  H   UNL     1      -3.253   1.456   2.566  0.00  0.00    -0.086 HD
ATOM     31  H   UNL     1      -2.276  -0.001   2.950  0.00  0.00    -0.086 HD
BRANCH  29  32
ATOM     32  C   UNL     1      -2.808   1.184   4.599  0.00  0.00    -0.083 C 
BRANCH  32  33
ATOM     33  C   UNL     1      -4.091   0.391   4.856  0.00  0.00    -0.019 C 
BRANCH  33  34
ATOM     34  C   UNL     1      -4.482   0.518   6.330  0.00  0.00    +0.003 C 
BRANCH  34  35
ATOM     35  C   UNL     1      -5.765  -0.275   6.587  0.00  0.00    +0.035 C 
BRANCH  35  36
ATOM     36  C   UNL     1      -6.150  -0.150   8.039  0.00  0.00    -0.045 A 
ATOM     37  C   UNL     1      -5.688  -1.062   8.976  0.00  0.00    +0.023 A 
ATOM     38  C   UNL     1      -6.058  -0.913  10.299  0.00  0.00    +0.111 A 
ATOM     39  N   UNL     1      -6.849   0.075  10.672  0.00  0.00    -0.263 NA
ATOM     40  C   UNL     1      -7.311   0.957   9.807  0.00  0.00    +0.111 A 
ATOM     41  C   UNL     1      -6.979   0.875   8.468  0.00  0.00    +0.023 A 
ENDBRANCH  35  36
ENDBRANCH  34  35
ENDBRANCH  33  34
ENDBRANCH  32  33
ENDBRANCH  29  32
ENDBRANCH  28  29
ENDBRANCH  27  28
ENDBRANCH   2  27
TORSDOF 11
