REMARK  Name = ZINC06693411
REMARK  6 active torsions:
REMARK  status: ('A' for Active; 'I' for Inactive)
REMARK    1  A    between atoms: C_1  and  C_2
REMARK    2  A    between atoms: C_2  and  C_31
REMARK    3  A    between atoms: C_6  and  C_19
REMARK    4  A    between atoms: C_22  and  N_25
REMARK    5  A    between atoms: N_25  and  C_26
REMARK    6  A    between atoms: N_25  and  C_27
REMARK                            x       y       z     vdW  Elec       q    Type
REMARK                         _______ _______ _______ _____ _____    ______ ____
ROOT
ATOM      1  C   UNL     1      -1.959   1.130  -2.171  0.00  0.00    +0.011 C 
ATOM      2  C   UNL     1      -2.375   1.337  -0.713  0.00  0.00    -0.023 C 
ATOM      3  C   UNL     1      -1.294   2.132   0.025  0.00  0.00    +0.058 C 
ATOM      4  C   UNL     1       0.002   1.359   0.007  0.00  0.00    +0.017 C 
ATOM      5  C   UNL     1       0.005   0.009  -0.003  0.00  0.00    +0.024 C 
ATOM      6  C   UNL     1       1.301  -0.762  -0.016  0.00  0.00    +0.092 C 
ATOM      7  C   UNL     1       2.453   0.102   0.405  0.00  0.00    +0.067 A 
ATOM      8  C   UNL     1       2.349   1.461   0.396  0.00  0.00    +0.111 A 
ATOM      9  N   UNL     1       3.424   2.226   0.778  0.00  0.00    -0.323 N 
ATOM     10  H   UNL     1       3.354   3.193   0.772  0.00  0.00    +0.169 HD
ATOM     11  C   UNL     1       4.573   1.640   1.163  0.00  0.00    +0.159 A 
ATOM     12  S   UNL     1       5.900   2.613   1.635  0.00  0.00    -0.013 S 
ATOM     13  N   UNL     1       4.694   0.300   1.183  0.00  0.00    -0.302 N 
ATOM     14  H   UNL     1       5.529  -0.103   1.466  0.00  0.00    +0.171 HD
ATOM     15  C   UNL     1       3.664  -0.487   0.814  0.00  0.00    +0.258 A 
ATOM     16  O   UNL     1       3.780  -1.700   0.834  0.00  0.00    -0.267 OA
ATOM     17  N   UNL     1       1.178   2.060   0.007  0.00  0.00    -0.304 N 
ATOM     18  C   UNL     1      -1.198  -0.719  -0.008  0.00  0.00    +0.162 C 
ATOM     19  O   UNL     1      -1.159  -1.933   0.002  0.00  0.00    -0.292 OA
ATOM     20  C   UNL     1      -2.531  -0.023  -0.024  0.00  0.00    +0.086 C 
ATOM     21  C   UNL     1      -3.703   2.095  -0.661  0.00  0.00    +0.011 C 
ATOM     22  H   UNL     1       1.183   2.989  -0.271  0.00  0.00    +0.153 HD
ENDROOT
BRANCH   6  23
ATOM     23  C   UNL     1       1.555  -1.278  -1.409  0.00  0.00    -0.035 A 
ATOM     24  C   UNL     1       1.672  -0.390  -2.462  0.00  0.00    +0.006 A 
ATOM     25  C   UNL     1       1.910  -0.860  -3.739  0.00  0.00    +0.023 A 
ATOM     26  C   UNL     1       2.021  -2.226  -3.966  0.00  0.00    +0.029 A 
ATOM     27  C   UNL     1       1.897  -3.115  -2.906  0.00  0.00    +0.023 A 
ATOM     28  C   UNL     1       1.664  -2.639  -1.631  0.00  0.00    +0.006 A 
BRANCH  26  29
ATOM     29  N   UNL     1       2.256  -2.704  -5.257  0.00  0.00    -0.336 N 
ATOM     30  C   UNL     1       2.496  -4.132  -5.477  0.00  0.00    +0.129 C 
ATOM     31  C   UNL     1       2.261  -1.777  -6.392  0.00  0.00    +0.129 C 
ENDBRANCH  26  29
ENDBRANCH   6  23
TORSDOF 2
