REMARK  Name = ZINC40779925
REMARK  3 active torsions:
REMARK  status: ('A' for Active; 'I' for Inactive)
REMARK    1  A    between atoms: C_1  and  C_2
REMARK    2  A    between atoms: C_10  and  N_23
REMARK    3  A    between atoms: C_11  and  N_15
REMARK                            x       y       z     vdW  Elec       q    Type
REMARK                         _______ _______ _______ _____ _____    ______ ____
ROOT
ATOM      1  C   UNL     1      -0.141   1.492  -0.171  0.00  0.00    +0.045 C 
ATOM      2  C   UNL     1      -0.084  -0.009  -0.055  0.00  0.00    -0.032 A 
ATOM      3  C   UNL     1      -0.045  -0.615   1.194  0.00  0.00    +0.008 A 
ATOM      4  C   UNL     1       0.006  -1.996   1.257  0.00  0.00    +0.044 A 
ATOM      5  C   UNL     1       0.016  -2.727   0.073  0.00  0.00    +0.124 A 
ATOM      6  N   UNL     1      -0.022  -2.112  -1.099  0.00  0.00    -0.240 NA
ATOM      7  C   UNL     1      -0.077  -0.796  -1.189  0.00  0.00    +0.116 A 
ATOM      8  N   UNL     1       0.067  -4.116   0.121  0.00  0.00    -0.284 N 
ATOM      9  C   UNL     1      -0.035  -4.857  -1.052  0.00  0.00    +0.127 A 
ATOM     10  C   UNL     1      -0.129  -6.250  -1.005  0.00  0.00    +0.104 A 
ATOM     11  C   UNL     1      -0.229  -6.944  -2.212  0.00  0.00    +0.150 A 
ATOM     12  N   UNL     1      -0.232  -6.258  -3.352  0.00  0.00    -0.221 NA
ATOM     13  C   UNL     1      -0.142  -4.944  -3.352  0.00  0.00    +0.200 A 
ATOM     14  N   UNL     1      -0.051  -4.249  -2.236  0.00  0.00    -0.333 N 
ATOM     15  H   UNL     1       0.174  -4.569   0.973  0.00  0.00    +0.155 HD
ATOM     16  H   UNL     1       0.009  -3.282  -2.277  0.00  0.00    +0.168 HD
ENDROOT
BRANCH  11  17
ATOM     17  N   UNL     1      -0.325  -8.332  -2.223  0.00  0.00    -0.283 N 
ATOM     18  C   UNL     1      -0.317  -9.021  -3.432  0.00  0.00    +0.124 A 
ATOM     19  C   UNL     1      -0.306 -10.412  -3.432  0.00  0.00    +0.045 A 
ATOM     20  C   UNL     1      -0.299 -11.084  -4.641  0.00  0.00    +0.020 A 
ATOM     21  C   UNL     1      -0.305 -10.339  -5.814  0.00  0.00    +0.036 A 
ATOM     22  C   UNL     1      -0.316  -8.960  -5.739  0.00  0.00    +0.128 A 
ATOM     23  N   UNL     1      -0.327  -8.346  -4.571  0.00  0.00    -0.239 NA
ATOM     24 BR   UNL     1      -0.296 -11.205  -7.495  0.00  0.00    -0.049 Br
ATOM     25  H   UNL     1      -0.396  -8.819  -1.387  0.00  0.00    +0.155 HD
ENDBRANCH  11  17
BRANCH  10  26
ATOM     26  N   UNL     1      -0.122  -6.932   0.221  0.00  0.00    -0.353 N 
ATOM     27  H   UNL     1      -0.051  -6.436   1.052  0.00  0.00    +0.143 HD
ATOM     28  H   UNL     1      -0.187  -7.900   0.238  0.00  0.00    +0.143 HD
ENDBRANCH  10  26
TORSDOF 2
