REMARK  Name = ZINC00103165
REMARK  7 active torsions:
REMARK  status: ('A' for Active; 'I' for Inactive)
REMARK    1  A    between atoms: C_1  and  C_2
REMARK    2  A    between atoms: C_5  and  N_9
REMARK    3  A    between atoms: C_6  and  C_8
REMARK    4  A    between atoms: C_10  and  C_12
REMARK    5  A    between atoms: C_12  and  C_13
REMARK    6  A    between atoms: C_20  and  C_26
REMARK    7  A    between atoms: C_21  and  C_25
REMARK                            x       y       z     vdW  Elec       q    Type
REMARK                         _______ _______ _______ _____ _____    ______ ____
ROOT
ATOM      1  C   UNL     1      -0.236  -6.847  -2.628  0.00  0.00    +0.166 C 
ATOM      2  C   UNL     1      -0.211  -8.355  -2.638  0.00  0.00    +0.238 C 
ATOM      3  O   UNL     1       0.849  -8.936  -2.741  0.00  0.00    -0.273 OA
ATOM      4  N   UNL     1      -1.351  -9.062  -2.533  0.00  0.00    -0.282 N 
ATOM      5  C   UNL     1      -2.596  -8.424  -2.555  0.00  0.00    +0.055 A 
ATOM      6  C   UNL     1      -3.753  -9.123  -2.247  0.00  0.00    +0.028 A 
ATOM      7  C   UNL     1      -4.974  -8.476  -2.265  0.00  0.00    -0.046 A 
ATOM      8  C   UNL     1      -5.050  -7.133  -2.589  0.00  0.00    -0.046 A 
ATOM      9  C   UNL     1      -3.901  -6.428  -2.901  0.00  0.00    +0.028 A 
ATOM     10  C   UNL     1      -2.676  -7.071  -2.889  0.00  0.00    +0.049 A 
ATOM     11  N   UNL     1      -1.498  -6.383  -3.223  0.00  0.00    -0.331 N 
ATOM     12  C   UNL     1      -6.386  -6.437  -2.602  0.00  0.00    +0.044 C 
ATOM     13  C   UNL     1      -6.231  -9.237  -1.930  0.00  0.00    +0.044 C 
ATOM     14  H   UNL     1      -1.309 -10.027  -2.441  0.00  0.00    +0.155 HD
ATOM     15  H   UNL     1      -1.516  -5.626  -3.829  0.00  0.00    +0.147 HD
ENDROOT
BRANCH   1  16
ATOM     16  C   UNL     1      -0.134  -6.343  -1.187  0.00  0.00    +0.127 C 
BRANCH  16  18
ATOM     17  N   UNL     1       0.059  -4.170  -0.021  0.00  0.00    -0.285 N 
ATOM     18  C   UNL     1      -0.040  -4.839  -1.187  0.00  0.00    +0.219 C 
ATOM     19  O   UNL     1      -0.054  -4.230  -2.236  0.00  0.00    -0.275 OA
ATOM     20  H   UNL     1       0.135  -4.658   0.814  0.00  0.00    +0.155 HD
BRANCH  17  25
ATOM     21  C   UNL     1       0.025   1.503   0.005  0.00  0.00    +0.044 C 
ATOM     22  C   UNL     1       0.034  -0.004  -0.002  0.00  0.00    -0.050 A 
ATOM     23  C   UNL     1       0.632  -0.685  -1.046  0.00  0.00    +0.005 A 
ATOM     24  C   UNL     1       0.641  -2.066  -1.055  0.00  0.00    +0.024 A 
ATOM     25  C   UNL     1       0.051  -2.771  -0.014  0.00  0.00    +0.036 A 
ATOM     26  C   UNL     1      -0.548  -2.083   1.033  0.00  0.00    -0.029 A 
ATOM     27  C   UNL     1      -0.550  -0.702   1.039  0.00  0.00    +0.008 A 
ATOM     28  C   UNL     1      -1.190  -2.843   2.165  0.00  0.00    +0.045 C 
ENDBRANCH  17  25
ENDBRANCH  16  18
ENDBRANCH   1  16
TORSDOF 3
