REMARK  Name = ZINC39530240
REMARK  8 active torsions:
REMARK  status: ('A' for Active; 'I' for Inactive)
REMARK    1  A    between atoms: C_4  and  C_7
REMARK    2  A    between atoms: C_7  and  C_8
REMARK    3  A    between atoms: N_11  and  C_15
REMARK    4  A    between atoms: C_18  and  S_28
REMARK    5  A    between atoms: C_20  and  C_21
REMARK    6  A    between atoms: C_26  and  O_27
REMARK    7  A    between atoms: S_28  and  O_31
REMARK    8  A    between atoms: O_31  and  C_32
REMARK                            x       y       z     vdW  Elec       q    Type
REMARK                         _______ _______ _______ _____ _____    ______ ____
ROOT
ATOM      1  C   UNL     1       6.235  -3.212   3.263  0.00  0.00    +0.038 A 
ATOM      2  C   UNL     1       7.489  -3.767   3.054  0.00  0.00    +0.026 A 
ATOM      3  C   UNL     1       7.814  -4.979   3.631  0.00  0.00    +0.032 A 
ATOM      4  C   UNL     1       6.893  -5.647   4.419  0.00  0.00    +0.129 A 
ATOM      5  C   UNL     1       5.641  -5.108   4.636  0.00  0.00    +0.041 A 
ATOM      6  C   UNL     1       5.303  -3.883   4.064  0.00  0.00    +0.009 A 
ENDROOT
BRANCH   1   9
ATOM      7  C   UNL     1       6.814   0.273   2.606  0.00  0.00    -0.050 C 
ATOM      8  C   UNL     1       6.018  -0.734   3.443  0.00  0.00    +0.089 C 
ATOM      9  N   UNL     1       5.905  -1.987   2.682  0.00  0.00    -0.333 N 
ATOM     10  C   UNL     1       5.434  -1.913   1.290  0.00  0.00    +0.086 C 
ATOM     11  C   UNL     1       6.258  -0.851   0.555  0.00  0.00    -0.063 C 
ATOM     12  N   UNL     1       6.184   0.419   1.288  0.00  0.00    +0.383 N 
ATOM     13  H   UNL     1       5.217   0.682   1.406  0.00  0.00    -0.085 HD
ATOM     14  H   UNL     1       6.664   1.136   0.765  0.00  0.00    -0.085 HD
BRANCH   7  15
ATOM     15  C   UNL     1       6.831   1.627   3.317  0.00  0.00    +0.021 C 
BRANCH  15  19
ATOM     16  C   UNL     1       9.336   4.337   1.164  0.00  0.00    +0.000 A 
ATOM     17  C   UNL     1       7.990   4.250   0.861  0.00  0.00    +0.000 A 
ATOM     18  C   UNL     1       7.179   3.373   1.557  0.00  0.00    +0.003 A 
ATOM     19  C   UNL     1       7.715   2.583   2.557  0.00  0.00    -0.049 A 
ATOM     20  C   UNL     1       9.061   2.668   2.859  0.00  0.00    +0.003 A 
ATOM     21  C   UNL     1       9.871   3.546   2.163  0.00  0.00    +0.000 A 
ENDBRANCH  15  19
ENDBRANCH   7  15
ENDBRANCH   1   9
BRANCH   6  22
ATOM     22  C   UNL     1       3.962  -3.297   4.299  0.00  0.00    +0.025 A 
ATOM     23  C   UNL     1       3.609  -2.842   5.568  0.00  0.00    +0.012 A 
ATOM     24  C   UNL     1       2.360  -2.297   5.781  0.00  0.00    +0.001 A 
ATOM     25  C   UNL     1       1.455  -2.199   4.738  0.00  0.00    +0.004 A 
ATOM     26  C   UNL     1       1.794  -2.647   3.476  0.00  0.00    +0.046 A 
ATOM     27  C   UNL     1       3.048  -3.192   3.246  0.00  0.00    +0.125 A 
BRANCH  27  28
ATOM     28  O   UNL     1       3.385  -3.627   2.004  0.00  0.00    -0.506 OA
ATOM     29  H   UNL     1       3.166  -4.554   1.839  0.00  0.00    +0.292 HD
ENDBRANCH  27  28
ENDBRANCH   6  22
BRANCH   4  30
ATOM     30  S   UNL     1       7.320  -7.194   5.148  0.00  0.00    +0.151 S 
ATOM     31  O   UNL     1       6.099  -7.878   5.392  0.00  0.00    -0.131 OA
ATOM     32  O   UNL     1       8.357  -7.747   4.349  0.00  0.00    -0.131 OA
BRANCH  30  33
ATOM     33  O   UNL     1       7.932  -6.896   6.510  0.00  0.00    -0.342 OA
BRANCH  33  34
ATOM     34  C   UNL     1       7.025  -6.536   7.456  0.00  0.00    +0.157 A 
ATOM     35  C   UNL     1       6.689  -5.201   7.625  0.00  0.00    +0.048 A 
ATOM     36  C   UNL     1       5.767  -4.838   8.587  0.00  0.00    +0.004 A 
ATOM     37  C   UNL     1       5.179  -5.805   9.382  0.00  0.00    +0.000 A 
ATOM     38  C   UNL     1       5.513  -7.136   9.216  0.00  0.00    +0.004 A 
ATOM     39  C   UNL     1       6.430  -7.505   8.251  0.00  0.00    +0.048 A 
ENDBRANCH  33  34
ENDBRANCH  30  33
ENDBRANCH   4  30
TORSDOF 8
