REMARK  Name = ZINC39782336
REMARK  9 active torsions:
REMARK  status: ('A' for Active; 'I' for Inactive)
REMARK    1  A    between atoms: C_1  and  C_2
REMARK    2  A    between atoms: C_4  and  C_12
REMARK    3  A    between atoms: C_12  and  C_14
REMARK    4  A    between atoms: C_14  and  C_16
REMARK    5  A    between atoms: C_14  and  S_17
REMARK    6  A    between atoms: S_17  and  C_18
REMARK    7  A    between atoms: C_22  and  C_24
REMARK    8  A    between atoms: C_24  and  O_25
REMARK    9  A    between atoms: O_25  and  C_26
REMARK                            x       y       z     vdW  Elec       q    Type
REMARK                         _______ _______ _______ _____ _____    ______ ____
ROOT
ATOM      1  S   UNL     1       0.344  -0.885  -5.225  0.00  0.00    -0.085 S 
ENDROOT
BRANCH   1   2
ATOM      2  C   UNL     1       1.516  -1.619  -6.398  0.00  0.00    +0.339 C 
ATOM      3  N   UNL     1       1.989  -2.926  -5.907  0.00  0.00    -0.219 N 
ATOM      4  N   UNL     1       3.376  -2.782  -5.750  0.00  0.00    -0.146 NA
ATOM      5  C   UNL     1       3.744  -1.599  -6.078  0.00  0.00    +0.246 C 
ATOM      6  O   UNL     1       2.708  -0.824  -6.482  0.00  0.00    -0.444 OA
ATOM      7  H   UNL     1       1.456  -3.716  -5.729  0.00  0.00    +0.173 HD
BRANCH   5   8
ATOM      8  C   UNL     1       5.173  -1.123  -6.022  0.00  0.00    +0.325 C 
BRANCH   8   9
ATOM      9  O   UNL     1       6.011  -2.182  -5.557  0.00  0.00    -0.481 OA
BRANCH   9  10
ATOM     10  C   UNL     1       7.339  -1.916  -5.448  0.00  0.00    +0.139 A 
ATOM     11  C   UNL     1       7.825  -0.659  -5.776  0.00  0.00    +0.047 A 
ATOM     12  C   UNL     1       9.175  -0.390  -5.664  0.00  0.00    +0.004 A 
ATOM     13  C   UNL     1      10.043  -1.373  -5.225  0.00  0.00    +0.002 A 
ATOM     14  C   UNL     1       9.562  -2.627  -4.897  0.00  0.00    +0.023 A 
ATOM     15  C   UNL     1       8.211  -2.900  -5.002  0.00  0.00    +0.083 A 
ATOM     16 CL   UNL     1       7.606  -4.472  -4.583  0.00  0.00    -0.080 Cl
ENDBRANCH   9  10
ENDBRANCH   8   9
ENDBRANCH   5   8
ENDBRANCH   1   2
BRANCH   1  17
ATOM     17  C   UNL     1       1.283  -0.772  -3.678  0.00  0.00    +0.119 C 
ATOM     18  C   UNL     1       2.444   0.209  -3.856  0.00  0.00    +0.027 C 
BRANCH  17  19
ATOM     19  C   UNL     1       0.379  -0.286  -2.575  0.00  0.00    +0.174 C 
ATOM     20  O   UNL     1      -0.603   0.377  -2.843  0.00  0.00    -0.291 OA
BRANCH  19  23
ATOM     21  C   UNL     1      -0.379   1.207   0.131  0.00  0.00    +0.035 C 
ATOM     22  C   UNL     1      -0.178  -0.303  -0.015  0.00  0.00    +0.111 C 
ATOM     23  C   UNL     1       0.673  -0.599  -1.231  0.00  0.00    +0.027 C 
ATOM     24  C   UNL     1       1.798  -1.243  -0.749  0.00  0.00    +0.006 A 
ATOM     25  C   UNL     1       2.951  -1.768  -1.380  0.00  0.00    +0.010 A 
ATOM     26  C   UNL     1       3.919  -2.361  -0.646  0.00  0.00    +0.001 A 
ATOM     27  C   UNL     1       3.837  -2.485   0.750  0.00  0.00    +0.002 A 
ATOM     28  C   UNL     1       2.779  -2.018   1.448  0.00  0.00    +0.026 A 
ATOM     29  C   UNL     1       1.679  -1.358   0.725  0.00  0.00    +0.043 A 
ATOM     30  N   UNL     1       0.562  -0.827   1.137  0.00  0.00    -0.377 N 
ATOM     31  H   UNL     1       0.267  -0.785   2.060  0.00  0.00    +0.160 HD
ENDBRANCH  19  23
ENDBRANCH  17  19
ENDBRANCH   1  17
TORSDOF 7
