REMARK  Name = ZINC06684253
REMARK  5 active torsions:
REMARK  status: ('A' for Active; 'I' for Inactive)
REMARK    1  A    between atoms: C_1  and  C_2
REMARK    2  A    between atoms: C_2  and  C_16
REMARK    3  A    between atoms: N_3  and  N_4
REMARK    4  A    between atoms: C_5  and  C_7
REMARK    5  A    between atoms: C_21  and  O_22
REMARK                            x       y       z     vdW  Elec       q    Type
REMARK                         _______ _______ _______ _____ _____    ______ ____
ROOT
ATOM      1  N   UNL     1       0.024   0.035   2.340  0.00  0.00    -0.203 N 
ATOM      2  C   UNL     1       0.044  -0.645   3.503  0.00  0.00    +0.263 C 
ATOM      3  O   UNL     1       0.060  -1.861   3.497  0.00  0.00    -0.268 OA
ATOM      4  H   UNL     1       0.011   1.005   2.345  0.00  0.00    +0.178 HD
ENDROOT
BRANCH   2   5
ATOM      5  C   UNL     1       0.046   0.086   4.785  0.00  0.00    +0.042 A 
ATOM      6  C   UNL     1       0.021   1.483   4.795  0.00  0.00    +0.017 A 
ATOM      7  C   UNL     1       0.023   2.163   5.993  0.00  0.00    +0.050 A 
ATOM      8  C   UNL     1       0.049   1.465   7.193  0.00  0.00    +0.166 A 
ATOM      9  C   UNL     1       0.074   0.070   7.190  0.00  0.00    +0.167 A 
ATOM     10  C   UNL     1       0.067  -0.618   5.992  0.00  0.00    +0.062 A 
ATOM     11  O   UNL     1       0.097  -0.367   8.483  0.00  0.00    -0.453 OA
ATOM     12  C   UNL     1       0.499   0.772   9.267  0.00  0.00    +0.466 C 
ATOM     13  O   UNL     1       0.056   1.898   8.486  0.00  0.00    -0.453 OA
ENDBRANCH   2   5
BRANCH   1  16
ATOM     14  C   UNL     1      -0.018   1.503   0.010  0.00  0.00    +0.068 C 
ATOM     15  C   UNL     1       0.002  -0.004   0.002  0.00  0.00    +0.067 C 
ATOM     16  N   UNL     1       0.022  -0.659   1.123  0.00  0.00    -0.184 NA
BRANCH  15  17
ATOM     17  C   UNL     1      -0.000  -0.734  -1.278  0.00  0.00    +0.042 A 
ATOM     18  C   UNL     1      -0.015  -0.033  -2.486  0.00  0.00    +0.051 A 
ATOM     19  C   UNL     1      -0.017  -0.723  -3.682  0.00  0.00    +0.124 A 
ATOM     20  C   UNL     1      -0.004  -2.109  -3.688  0.00  0.00    +0.042 A 
ATOM     21  C   UNL     1       0.011  -2.813  -2.498  0.00  0.00    +0.049 A 
ATOM     22  C   UNL     1       0.019  -2.135  -1.290  0.00  0.00    +0.126 A 
ATOM     23  F   UNL     1      -0.033  -0.045  -4.851  0.00  0.00    -0.205 F 
BRANCH  22  24
ATOM     24  O   UNL     1       0.040  -2.826  -0.121  0.00  0.00    -0.506 OA
ATOM     25  H   UNL     1      -0.837  -3.039   0.226  0.00  0.00    +0.292 HD
ENDBRANCH  22  24
ENDBRANCH  15  17
ENDBRANCH   1  16
TORSDOF 4
