REMARK  Name = ZINC50075765
REMARK  12 active torsions:
REMARK  status: ('A' for Active; 'I' for Inactive)
REMARK    1  A    between atoms: C_1  and  C_2
REMARK    2  A    between atoms: C_2  and  N_3
REMARK    3  A    between atoms: N_3  and  C_4
REMARK    4  A    between atoms: N_3  and  C_6
REMARK    5  A    between atoms: C_4  and  C_5
REMARK    6  A    between atoms: C_6  and  C_7
REMARK    7  A    between atoms: C_7  and  O_8
REMARK    8  A    between atoms: O_8  and  C_9
REMARK    9  A    between atoms: C_9  and  C_11
REMARK   10  A    between atoms: N_20  and  C_21
REMARK   11  A    between atoms: C_21  and  C_23
REMARK   12  A    between atoms: C_26  and  N_29
REMARK                            x       y       z     vdW  Elec       q    Type
REMARK                         _______ _______ _______ _____ _____    ______ ____
ROOT
ATOM      1  C   UNL     1      -5.301  -2.611  -1.876  0.00  0.00    +0.060 A 
ATOM      2  C   UNL     1      -4.506  -2.114  -2.915  0.00  0.00    +0.017 A 
ATOM      3  C   UNL     1      -5.015  -1.928  -4.164  0.00  0.00    +0.027 A 
ATOM      4  C   UNL     1      -6.357  -2.229  -4.450  0.00  0.00    +0.055 A 
ATOM      5  C   UNL     1      -7.142  -2.728  -3.397  0.00  0.00    +0.039 A 
ATOM      6  C   UNL     1      -6.640  -2.924  -2.136  0.00  0.00    +0.032 A 
ATOM      7  S   UNL     1      -8.726  -2.972  -4.156  0.00  0.00    -0.052 S 
ATOM      8  C   UNL     1      -8.350  -2.457  -5.711  0.00  0.00    +0.164 A 
ATOM      9  N   UNL     1      -7.038  -2.107  -5.641  0.00  0.00    -0.335 N 
ATOM     10  N   UNL     1      -9.152  -2.404  -6.769  0.00  0.00    -0.152 NA
ATOM     11  H   UNL     1      -6.582  -1.771  -6.429  0.00  0.00    +0.168 HD
ENDROOT
BRANCH   1  12
ATOM     12  C   UNL     1      -4.735  -2.806  -0.528  0.00  0.00    +0.339 C 
ATOM     13  O   UNL     1      -5.404  -3.328   0.342  0.00  0.00    -0.245 OA
BRANCH  12  14
ATOM     14  O   UNL     1      -3.476  -2.406  -0.262  0.00  0.00    -0.463 OA
BRANCH  14  15
ATOM     15  C   UNL     1      -2.953  -2.726   1.029  0.00  0.00    +0.214 C 
BRANCH  15  16
ATOM     16  C   UNL     1      -1.571  -2.090   1.191  0.00  0.00    -0.037 C 
BRANCH  16  17
ATOM     17  N   UNL     1      -1.693  -0.628   1.115  0.00  0.00    +0.382 N 
ATOM     18  H   UNL     1      -2.145  -0.373   0.250  0.00  0.00    -0.082 HD
BRANCH  17  20
ATOM     19  C   UNL     1      -2.725   1.361   2.102  0.00  0.00    -0.017 C 
ATOM     20  C   UNL     1      -2.493  -0.144   2.248  0.00  0.00    -0.082 C 
ENDBRANCH  17  20
BRANCH  17  21
ATOM     21  C   UNL     1      -0.355  -0.023   1.167  0.00  0.00    -0.082 C 
ATOM     22  C   UNL     1       0.437  -0.429  -0.077  0.00  0.00    -0.017 C 
ENDBRANCH  17  21
ENDBRANCH  16  17
ENDBRANCH  15  16
ENDBRANCH  14  15
ENDBRANCH  12  14
ENDBRANCH   1  12
BRANCH  10  23
ATOM     23  C   UNL     1      -8.656  -2.082  -7.968  0.00  0.00    +0.269 C 
ATOM     24  O   UNL     1      -7.456  -1.923  -8.109  0.00  0.00    -0.268 OA
BRANCH  23  25
ATOM     25  C   UNL     1      -9.566  -1.919  -9.126  0.00  0.00    +0.039 A 
ATOM     26  C   UNL     1     -10.940  -2.094  -8.966  0.00  0.00    +0.015 A 
ATOM     27  C   UNL     1     -11.783  -1.940 -10.048  0.00  0.00    +0.033 A 
ATOM     28  C   UNL     1     -11.266  -1.613 -11.289  0.00  0.00    +0.126 A 
ATOM     29  C   UNL     1      -9.904  -1.438 -11.454  0.00  0.00    +0.033 A 
ATOM     30  C   UNL     1      -9.052  -1.583 -10.378  0.00  0.00    +0.015 A 
BRANCH  28  31
ATOM     31  N   UNL     1     -12.175  -1.450 -12.446  0.00  0.00    +0.056 N 
ATOM     32  O   UNL     1     -13.366  -1.603 -12.305  0.00  0.00    -0.126 OA
ATOM     33  O   UNL     1     -11.727  -1.164 -13.532  0.00  0.00    -0.126 OA
ENDBRANCH  28  31
ENDBRANCH  23  25
ENDBRANCH  10  23
TORSDOF 10
