REMARK  Name = ZINC02862905
REMARK  7 active torsions:
REMARK  status: ('A' for Active; 'I' for Inactive)
REMARK    1  A    between atoms: C_1  and  C_2
REMARK    2  A    between atoms: C_2  and  C_4
REMARK    3  A    between atoms: C_2  and  N_10
REMARK    4  A    between atoms: C_11  and  C_13
REMARK    5  A    between atoms: C_18  and  O_19
REMARK    6  A    between atoms: O_19  and  C_20
REMARK    7  A    between atoms: C_20  and  C_21
REMARK                            x       y       z     vdW  Elec       q    Type
REMARK                         _______ _______ _______ _____ _____    ______ ____
ROOT
ATOM      1  O   UNL     1      -3.892   3.580  -3.212  0.00  0.00    -0.482 OA
ENDROOT
BRANCH   1   7
ATOM      2  C   UNL     1      -4.703   3.237  -5.434  0.00  0.00    +0.078 A 
ATOM      3  C   UNL     1      -4.541   2.648  -6.690  0.00  0.00    +0.017 A 
ATOM      4  C   UNL     1      -3.443   1.853  -6.940  0.00  0.00    +0.001 A 
ATOM      5  C   UNL     1      -2.498   1.635  -5.950  0.00  0.00    +0.004 A 
ATOM      6  C   UNL     1      -2.643   2.216  -4.706  0.00  0.00    +0.046 A 
ATOM      7  C   UNL     1      -3.745   3.014  -4.436  0.00  0.00    +0.133 A 
BRANCH   2   9
ATOM      8  N   UNL     1      -6.794   4.301  -6.123  0.00  0.00    -0.305 N 
ATOM      9  C   UNL     1      -5.876   4.089  -5.160  0.00  0.00    +0.248 C 
ATOM     10  O   UNL     1      -6.013   4.600  -4.066  0.00  0.00    -0.270 OA
ATOM     11  H   UNL     1      -6.685   3.893  -6.996  0.00  0.00    +0.150 HD
BRANCH   8  13
ATOM     12  C   UNL     1      -9.056   4.309  -5.193  0.00  0.00    +0.033 C 
ATOM     13  C   UNL     1      -7.959   5.147  -5.851  0.00  0.00    +0.100 C 
BRANCH  13  14
ATOM     14  C   UNL     1      -8.474   5.723  -7.145  0.00  0.00    -0.027 A 
ATOM     15  C   UNL     1      -8.506   4.942  -8.285  0.00  0.00    +0.005 A 
ATOM     16  C   UNL     1      -8.983   5.470  -9.471  0.00  0.00    +0.000 A 
ATOM     17  C   UNL     1      -9.420   6.780  -9.518  0.00  0.00    +0.000 A 
ATOM     18  C   UNL     1      -9.383   7.563  -8.379  0.00  0.00    +0.000 A 
ATOM     19  C   UNL     1      -8.910   7.034  -7.193  0.00  0.00    +0.005 A 
ENDBRANCH  13  14
ENDBRANCH   8  13
ENDBRANCH   2   9
ENDBRANCH   1   7
BRANCH   1  20
ATOM     20  C   UNL     1      -2.876   3.308  -2.245  0.00  0.00    +0.325 C 
BRANCH  20  21
ATOM     21  C   UNL     1      -3.206   4.016  -0.956  0.00  0.00    +0.262 C 
ATOM     22  O   UNL     1      -4.213   4.688  -0.874  0.00  0.00    -0.271 OA
ATOM     23  N   UNL     1      -2.383   3.903   0.105  0.00  0.00    -0.237 N 
ATOM     24  C   UNL     1      -1.214   3.131   0.035  0.00  0.00    +0.045 A 
ATOM     25  C   UNL     1      -1.224   1.748   0.017  0.00  0.00    +0.024 A 
ATOM     26  C   UNL     1      -0.013   1.076   0.008  0.00  0.00    +0.002 A 
ATOM     27  C   UNL     1       1.178   1.779   0.000  0.00  0.00    +0.000 A 
ATOM     28  C   UNL     1       1.175   3.167  -0.006  0.00  0.00    +0.005 A 
ATOM     29  C   UNL     1      -0.033   3.826   0.007  0.00  0.00    -0.025 A 
ATOM     30  C   UNL     1      -0.145   5.328  -0.042  0.00  0.00    +0.042 C 
ATOM     31  C   UNL     1      -0.448   5.904   1.329  0.00  0.00    +0.042 C 
ATOM     32  C   UNL     1      -1.768   5.431   1.895  0.00  0.00    -0.025 A 
ATOM     33  C   UNL     1      -2.669   4.553   1.315  0.00  0.00    +0.045 A 
ATOM     34  C   UNL     1      -3.873   4.250   1.942  0.00  0.00    +0.024 A 
ATOM     35  C   UNL     1      -4.179   4.795   3.172  0.00  0.00    +0.002 A 
ATOM     36  C   UNL     1      -3.275   5.650   3.774  0.00  0.00    +0.000 A 
ATOM     37  C   UNL     1      -2.092   5.964   3.145  0.00  0.00    +0.005 A 
ENDBRANCH  20  21
ENDBRANCH   1  20
TORSDOF 6
