REMARK  Name = ZINC63907395
REMARK  8 active torsions:
REMARK  status: ('A' for Active; 'I' for Inactive)
REMARK    1  A    between atoms: C_1  and  C_2
REMARK    2  A    between atoms: C_2  and  C_3
REMARK    3  A    between atoms: C_2  and  N_4
REMARK    4  A    between atoms: N_4  and  C_5
REMARK    5  A    between atoms: C_11  and  C_13
REMARK    6  A    between atoms: C_13  and  N_14
REMARK    7  A    between atoms: C_17  and  C_22
REMARK    8  A    between atoms: C_22  and  C_23
REMARK                            x       y       z     vdW  Elec       q    Type
REMARK                         _______ _______ _______ _____ _____    ______ ____
ROOT
ATOM      1  N   UNL     1      -3.025   0.646   2.919  0.00  0.00    -0.216 N 
ATOM      2  C   UNL     1      -4.054   1.513   2.845  0.00  0.00    +0.244 C 
ATOM      3  O   UNL     1      -4.212   2.394   2.027  0.00  0.00    -0.273 OA
ATOM      4  C   UNL     1      -4.974   1.157   3.996  0.00  0.00    +0.165 C 
ATOM      5  N   UNL     1      -4.292   0.025   4.646  0.00  0.00    -0.287 N 
ATOM      6  C   UNL     1      -3.168  -0.202   3.943  0.00  0.00    +0.310 C 
ATOM      7  O   UNL     1      -2.369  -1.078   4.212  0.00  0.00    -0.252 OA
ATOM      8  H   UNL     1      -4.596  -0.464   5.427  0.00  0.00    +0.151 HD
ENDROOT
BRANCH   1   9
ATOM      9  C   UNL     1      -1.893   0.631   1.989  0.00  0.00    +0.214 C 
BRANCH   9  11
ATOM     10  N   UNL     1      -1.273  -0.521  -0.110  0.00  0.00    -0.268 N 
ATOM     11  C   UNL     1      -2.210  -0.275   0.827  0.00  0.00    +0.238 C 
ATOM     12  O   UNL     1      -3.308  -0.781   0.735  0.00  0.00    -0.273 OA
BRANCH  10  13
ATOM     13  C   UNL     1      -1.597  -1.276  -1.242  0.00  0.00    +0.037 A 
ATOM     14  C   UNL     1      -0.681  -1.407  -2.277  0.00  0.00    +0.023 A 
ATOM     15  C   UNL     1      -1.005  -2.154  -3.394  0.00  0.00    +0.002 A 
ATOM     16  C   UNL     1      -2.239  -2.770  -3.481  0.00  0.00    +0.000 A 
ATOM     17  C   UNL     1      -3.154  -2.642  -2.452  0.00  0.00    +0.002 A 
ATOM     18  C   UNL     1      -2.835  -1.901  -1.331  0.00  0.00    +0.023 A 
ENDBRANCH  10  13
BRANCH  10  20
ATOM     19  C   UNL     1       1.090  -1.149  -0.045  0.00  0.00    +0.028 C 
ATOM     20  C   UNL     1       0.086   0.001   0.058  0.00  0.00    +0.075 C 
ATOM     21  C   UNL     1       0.375   1.030  -1.037  0.00  0.00    +0.028 C 
ENDBRANCH  10  20
ENDBRANCH   9  11
ENDBRANCH   1   9
BRANCH   4  22
ATOM     22  C   UNL     1      -5.108   2.336   4.962  0.00  0.00    +0.065 C 
BRANCH  22  23
ATOM     23  C   UNL     1      -6.120   2.000   6.027  0.00  0.00    -0.039 C 
ATOM     24  C   UNL     1      -5.869   1.495   7.256  0.00  0.00    -0.001 A 
ATOM     25  C   UNL     1      -4.627   1.120   7.943  0.00  0.00    +0.010 A 
ATOM     26  C   UNL     1      -4.696   0.629   9.201  0.00  0.00    +0.001 A 
ATOM     27  C   UNL     1      -5.921   0.469   9.864  0.00  0.00    +0.002 A 
ATOM     28  C   UNL     1      -7.103   0.791   9.299  0.00  0.00    +0.026 A 
ATOM     29  C   UNL     1      -7.149   1.317   7.978  0.00  0.00    +0.043 A 
ATOM     30  N   UNL     1      -8.152   1.697   7.225  0.00  0.00    -0.380 N 
ATOM     31  C   UNL     1      -7.620   2.166   5.940  0.00  0.00    +0.144 C 
ATOM     32  H   UNL     1      -9.089   1.676   7.476  0.00  0.00    +0.160 HD
ENDBRANCH  22  23
ENDBRANCH   4  22
TORSDOF 6
