REMARK  Name = ZINC38617815
REMARK  4 active torsions:
REMARK  status: ('A' for Active; 'I' for Inactive)
REMARK    1  A    between atoms: C_4  and  C_7
REMARK    2  A    between atoms: C_10  and  C_19
REMARK    3  A    between atoms: N_12  and  C_13
REMARK    4  A    between atoms: C_21  and  C_32
REMARK                            x       y       z     vdW  Elec       q    Type
REMARK                         _______ _______ _______ _____ _____    ______ ____
ROOT
ATOM      1  C   UNL     1       4.391  -3.770   2.307  0.00  0.00    +0.152 C 
ATOM      2  C   UNL     1       4.147  -5.135   1.691  0.00  0.00    -0.014 C 
ATOM      3  C   UNL     1       5.230  -6.018   1.656  0.00  0.00    +0.002 A 
ATOM      4  C   UNL     1       5.090  -7.307   1.101  0.00  0.00    +0.025 A 
ATOM      5  C   UNL     1       6.161  -8.147   1.078  0.00  0.00    +0.019 A 
ATOM      6  C   UNL     1       7.396  -7.759   1.595  0.00  0.00    +0.017 A 
ATOM      7  C   UNL     1       7.591  -6.528   2.143  0.00  0.00    +0.025 A 
ATOM      8  C   UNL     1       6.529  -5.608   2.200  0.00  0.00    +0.041 A 
ATOM      9  N   UNL     1       6.723  -4.400   2.739  0.00  0.00    -0.284 N 
ATOM     10  C   UNL     1       5.780  -3.483   2.828  0.00  0.00    +0.230 C 
ATOM     11  O   UNL     1       6.030  -2.403   3.331  0.00  0.00    -0.274 OA
ATOM     12 BR   UNL     1       5.969  -9.874   0.333  0.00  0.00    -0.050 Br
ATOM     13  H   UNL     1       7.604  -4.187   3.083  0.00  0.00    +0.155 HD
ENDROOT
BRANCH   2  14
ATOM     14  C   UNL     1       2.877  -5.498   1.175  0.00  0.00    -0.020 A 
ATOM     15  C   UNL     1       2.730  -5.805  -0.188  0.00  0.00    +0.008 A 
ATOM     16  C   UNL     1       1.492  -6.158  -0.679  0.00  0.00    +0.001 A 
ATOM     17  C   UNL     1       0.396  -6.210   0.166  0.00  0.00    +0.000 A 
ATOM     18  C   UNL     1       0.530  -5.909   1.512  0.00  0.00    +0.001 A 
ATOM     19  C   UNL     1       1.760  -5.559   2.024  0.00  0.00    +0.008 A 
ENDBRANCH   2  14
BRANCH   1  22
ATOM     20  C   UNL     1       3.620  -0.649   0.146  0.00  0.00    +0.134 C 
ATOM     21  C   UNL     1       3.985  -1.240   1.523  0.00  0.00    +0.082 C 
ATOM     22  C   UNL     1       4.061  -2.729   1.269  0.00  0.00    +0.055 C 
ATOM     23  N   UNL     1       3.807  -2.969   0.048  0.00  0.00    -0.187 NA
ATOM     24  N   UNL     1       3.533  -1.835  -0.722  0.00  0.00    -0.217 N 
BRANCH  20  28
ATOM     25  C   UNL     1      -0.140   1.371   0.319  0.00  0.00    +0.000 A 
ATOM     26  C   UNL     1       1.036   2.097   0.326  0.00  0.00    +0.000 A 
ATOM     27  C   UNL     1       2.252   1.444   0.271  0.00  0.00    +0.005 A 
ATOM     28  C   UNL     1       2.293   0.063   0.208  0.00  0.00    -0.025 A 
ATOM     29  C   UNL     1       1.117  -0.663   0.201  0.00  0.00    +0.005 A 
ATOM     30  C   UNL     1      -0.099  -0.010   0.256  0.00  0.00    +0.000 A 
ENDBRANCH  20  28
BRANCH  24  31
ATOM     31  C   UNL     1       3.226  -1.827  -2.083  0.00  0.00    +0.052 A 
ATOM     32  C   UNL     1       2.977  -0.624  -2.733  0.00  0.00    +0.025 A 
ATOM     33  C   UNL     1       2.674  -0.619  -4.081  0.00  0.00    +0.002 A 
ATOM     34  C   UNL     1       2.618  -1.809  -4.783  0.00  0.00    +0.000 A 
ATOM     35  C   UNL     1       2.865  -3.007  -4.139  0.00  0.00    +0.002 A 
ATOM     36  C   UNL     1       3.175  -3.020  -2.794  0.00  0.00    +0.025 A 
ENDBRANCH  24  31
ENDBRANCH   1  22
TORSDOF 4
