REMARK  Name = ZINC60318923
REMARK  8 active torsions:
REMARK  status: ('A' for Active; 'I' for Inactive)
REMARK    1  A    between atoms: C_4  and  N_22
REMARK    2  A    between atoms: C_5  and  N_7
REMARK    3  A    between atoms: C_8  and  C_10
REMARK    4  A    between atoms: C_10  and  O_11
REMARK    5  A    between atoms: O_11  and  C_12
REMARK    6  A    between atoms: C_15  and  C_18
REMARK    7  A    between atoms: C_18  and  C_19
REMARK    8  A    between atoms: N_22  and  C_23
REMARK                            x       y       z     vdW  Elec       q    Type
REMARK                         _______ _______ _______ _____ _____    ______ ____
ROOT
ATOM      1  C   UNL     1      -0.033   1.336  -0.325  0.00  0.00    +0.002 A 
ATOM      2  C   UNL     1       1.149   2.050  -0.399  0.00  0.00    +0.002 A 
ATOM      3  C   UNL     1       2.363   1.398  -0.287  0.00  0.00    +0.025 A 
ATOM      4  C   UNL     1       2.397   0.024  -0.099  0.00  0.00    +0.049 A 
ATOM      5  C   UNL     1       1.205  -0.696  -0.024  0.00  0.00    +0.055 A 
ATOM      6  C   UNL     1      -0.008  -0.033  -0.137  0.00  0.00    +0.025 A 
ENDROOT
BRANCH   5   7
ATOM      7  N   UNL     1       1.232  -2.084   0.166  0.00  0.00    -0.281 N 
ATOM      8  C   UNL     1       0.290  -2.861  -0.404  0.00  0.00    +0.255 C 
ATOM      9  O   UNL     1      -0.521  -2.373  -1.164  0.00  0.00    -0.272 OA
ATOM     10  H   UNL     1       1.930  -2.486   0.707  0.00  0.00    +0.155 HD
BRANCH   8  11
ATOM     11  C   UNL     1       0.243  -4.336  -0.099  0.00  0.00    +0.324 C 
BRANCH  11  12
ATOM     12  O   UNL     1      -0.836  -4.937  -0.818  0.00  0.00    -0.483 OA
BRANCH  12  13
ATOM     13  C   UNL     1      -1.018  -6.273  -0.652  0.00  0.00    +0.121 A 
ATOM     14  C   UNL     1      -0.181  -6.990   0.190  0.00  0.00    +0.046 A 
ATOM     15  C   UNL     1      -0.369  -8.348   0.357  0.00  0.00    +0.007 A 
ATOM     16  C   UNL     1      -1.391  -8.994  -0.315  0.00  0.00    -0.038 A 
ATOM     17  C   UNL     1      -2.227  -8.282  -1.155  0.00  0.00    +0.007 A 
ATOM     18  C   UNL     1      -2.047  -6.922  -1.320  0.00  0.00    +0.046 A 
BRANCH  16  19
ATOM     19  C   UNL     1      -1.593 -10.476  -0.131  0.00  0.00    +0.130 C 
BRANCH  19  20
ATOM     20  C   UNL     1      -2.537 -10.715   1.019  0.00  0.00    +0.215 C 
ATOM     21  O   UNL     1      -3.000  -9.775   1.630  0.00  0.00    -0.276 OA
ATOM     22  N   UNL     1      -2.867 -11.974   1.369  0.00  0.00    -0.329 N 
ATOM     23  H   UNL     1      -2.497 -12.726   0.881  0.00  0.00    +0.145 HD
ATOM     24  H   UNL     1      -3.475 -12.128   2.110  0.00  0.00    +0.145 HD
ENDBRANCH  19  20
ENDBRANCH  16  19
ENDBRANCH  12  13
ENDBRANCH  11  12
ENDBRANCH   8  11
ENDBRANCH   5   7
BRANCH   4  25
ATOM     25  N   UNL     1       3.624  -0.638   0.014  0.00  0.00    -0.337 N 
ATOM     26  H   UNL     1       3.646  -1.598   0.154  0.00  0.00    +0.147 HD
BRANCH  25  27
ATOM     27  C   UNL     1       4.876   0.117  -0.078  0.00  0.00    +0.033 C 
ATOM     28  C   UNL     1       4.925   1.161   1.039  0.00  0.00    +0.029 C 
ATOM     29  C   UNL     1       6.232   1.951   0.942  0.00  0.00    -0.008 C 
ATOM     30  C   UNL     1       7.418   0.994   1.085  0.00  0.00    +0.007 C 
ATOM     31  C   UNL     1       7.368  -0.050  -0.032  0.00  0.00    -0.008 C 
ATOM     32  C   UNL     1       6.061  -0.839   0.065  0.00  0.00    +0.029 C 
ATOM     33  C   UNL     1       7.440   0.652  -1.390  0.00  0.00    +0.007 C 
ATOM     34  C   UNL     1       6.255   1.609  -1.533  0.00  0.00    -0.008 C 
ATOM     35  C   UNL     1       6.304   2.653  -0.415  0.00  0.00    +0.007 C 
ATOM     36  C   UNL     1       4.948   0.820  -1.436  0.00  0.00    +0.029 C 
ENDBRANCH  25  27
ENDBRANCH   4  25
TORSDOF 8
