REMARK  Name = ZINC09010180
REMARK  15 active torsions:
REMARK  status: ('A' for Active; 'I' for Inactive)
REMARK    1  A    between atoms: C_1  and  C_2
REMARK    2  A    between atoms: C_3  and  C_33
REMARK    3  A    between atoms: C_4  and  C_23
REMARK    4  A    between atoms: C_10  and  C_15
REMARK    5  A    between atoms: C_18  and  O_21
REMARK    6  A    between atoms: O_21  and  C_22
REMARK    7  A    between atoms: C_26  and  O_31
REMARK    8  A    between atoms: C_27  and  O_29
REMARK    9  A    between atoms: O_29  and  C_30
REMARK   10  A    between atoms: O_31  and  C_32
REMARK   11  A    between atoms: C_33  and  O_35
REMARK   12  A    between atoms: O_35  and  C_36
REMARK   13  A    between atoms: C_36  and  C_37
REMARK   14  A    between atoms: C_37  and  C_38
REMARK   15  A    between atoms: C_37  and  C_39
REMARK                            x       y       z     vdW  Elec       q    Type
REMARK                         _______ _______ _______ _____ _____    ______ ____
ROOT
ATOM      1  C   UNL     1      -9.711  -3.316  -3.781  0.00  0.00    +0.061 C 
ATOM      2  C   UNL     1      -9.046  -3.413  -2.432  0.00  0.00    +0.031 C 
ATOM      3  C   UNL     1      -9.783  -3.697  -1.344  0.00  0.00    +0.154 C 
ATOM      4  C   UNL     1      -9.155  -3.807   0.013  0.00  0.00    +0.073 C 
ATOM      5  C   UNL     1      -7.791  -3.164   0.035  0.00  0.00    +0.025 C 
ATOM      6  C   UNL     1      -7.135  -2.901  -1.115  0.00  0.00    +0.049 C 
ATOM      7  N   UNL     1      -7.699  -3.212  -2.324  0.00  0.00    -0.260 NA
ATOM      8  C   UNL     1      -5.771  -2.258  -1.102  0.00  0.00    +0.064 C 
ATOM      9  C   UNL     1      -5.024  -2.658   0.170  0.00  0.00    +0.032 C 
ATOM     10  C   UNL     1      -5.856  -2.231   1.384  0.00  0.00    +0.088 C 
ATOM     11  C   UNL     1      -7.224  -2.849   1.282  0.00  0.00    +0.162 C 
ATOM     12  O   UNL     1      -7.848  -3.084   2.298  0.00  0.00    -0.292 OA
ENDROOT
BRANCH   9  13
ATOM     13  C   UNL     1      -3.683  -1.972   0.208  0.00  0.00    -0.043 A 
ATOM     14  C   UNL     1      -2.524  -2.725   0.253  0.00  0.00    +0.007 A 
ATOM     15  C   UNL     1      -1.293  -2.099   0.288  0.00  0.00    +0.046 A 
ATOM     16  C   UNL     1      -1.220  -0.714   0.278  0.00  0.00    +0.120 A 
ATOM     17  C   UNL     1      -2.385   0.040   0.239  0.00  0.00    +0.046 A 
ATOM     18  C   UNL     1      -3.613  -0.592   0.198  0.00  0.00    +0.007 A 
BRANCH  16  19
ATOM     19  O   UNL     1      -0.011  -0.095   0.313  0.00  0.00    -0.495 OA
ATOM     20  C   UNL     1      -0.012   1.334   0.300  0.00  0.00    +0.277 C 
ENDBRANCH  16  19
ENDBRANCH   9  13
BRANCH   4  21
ATOM     21  C   UNL     1      -9.022  -5.264   0.373  0.00  0.00    -0.035 A 
ATOM     22  C   UNL     1      -8.242  -6.098  -0.406  0.00  0.00    +0.008 A 
ATOM     23  C   UNL     1      -8.116  -7.436  -0.080  0.00  0.00    +0.050 A 
ATOM     24  C   UNL     1      -8.772  -7.943   1.030  0.00  0.00    +0.162 A 
ATOM     25  C   UNL     1      -9.557  -7.103   1.815  0.00  0.00    +0.162 A 
ATOM     26  C   UNL     1      -9.675  -5.762   1.485  0.00  0.00    +0.053 A 
BRANCH  25  27
ATOM     27  O   UNL     1     -10.203  -7.596   2.905  0.00  0.00    -0.491 OA
ATOM     28  C   UNL     1     -10.990  -6.676   3.664  0.00  0.00    +0.277 C 
ENDBRANCH  25  27
BRANCH  24  29
ATOM     29  O   UNL     1      -8.650  -9.258   1.352  0.00  0.00    -0.491 OA
ATOM     30  C   UNL     1      -7.828 -10.061   0.501  0.00  0.00    +0.277 C 
ENDBRANCH  24  29
ENDBRANCH   4  21
BRANCH   3  31
ATOM     31  C   UNL     1     -11.177  -3.893  -1.481  0.00  0.00    +0.317 C 
ATOM     32  O   UNL     1     -11.716  -3.698  -2.554  0.00  0.00    -0.250 OA
BRANCH  31  33
ATOM     33  O   UNL     1     -11.909  -4.297  -0.422  0.00  0.00    -0.464 OA
BRANCH  33  34
ATOM     34  C   UNL     1     -13.311  -4.475  -0.632  0.00  0.00    +0.235 C 
BRANCH  34  35
ATOM     35  C   UNL     1     -13.968  -4.932   0.672  0.00  0.00    +0.020 C 
ATOM     36  C   UNL     1     -15.485  -5.002   0.481  0.00  0.00    +0.010 C 
ATOM     37  C   UNL     1     -13.437  -6.315   1.054  0.00  0.00    +0.010 C 
ENDBRANCH  34  35
ENDBRANCH  33  34
ENDBRANCH  31  33
ENDBRANCH   3  31
TORSDOF 9
