REMARK  Name = ZINC15390883
REMARK  7 active torsions:
REMARK  status: ('A' for Active; 'I' for Inactive)
REMARK    1  A    between atoms: C_1  and  C_2
REMARK    2  A    between atoms: C_5  and  S_8
REMARK    3  A    between atoms: S_8  and  N_11
REMARK    4  A    between atoms: C_16  and  C_18
REMARK    5  A    between atoms: C_18  and  C_19
REMARK    6  A    between atoms: N_21  and  C_22
REMARK    7  A    between atoms: C_26  and  C_28
REMARK                            x       y       z     vdW  Elec       q    Type
REMARK                         _______ _______ _______ _____ _____    ______ ____
ROOT
ATOM      1  N   UNL     1       0.013   2.316   0.692  0.00  0.00    -0.173 NA
ATOM      2  C   UNL     1       0.793   2.946   1.766  0.00  0.00    +0.110 C 
ATOM      3  C   UNL     1       1.727   3.992   1.149  0.00  0.00    +0.017 C 
ATOM      4  C   UNL     1       2.576   3.333   0.060  0.00  0.00    +0.003 C 
ATOM      5  C   UNL     1       1.663   2.791  -1.042  0.00  0.00    +0.021 C 
ATOM      6  C   UNL     1       0.729   1.731  -0.450  0.00  0.00    +0.089 C 
ENDROOT
BRANCH   1   7
ATOM      7  S   UNL     1      -1.640   2.266   0.767  0.00  0.00    +0.061 S 
ATOM      8  O   UNL     1      -2.031   3.220   1.745  0.00  0.00    -0.153 OA
ATOM      9  O   UNL     1      -2.109   2.312  -0.573  0.00  0.00    -0.153 OA
BRANCH   7  14
ATOM     10  C   UNL     1      -3.163  -3.153   2.940  0.00  0.00    +0.044 C 
ATOM     11  C   UNL     1      -2.783  -1.799   2.398  0.00  0.00    -0.050 A 
ATOM     12  C   UNL     1      -2.429  -0.782   3.264  0.00  0.00    +0.005 A 
ATOM     13  C   UNL     1      -2.080   0.459   2.766  0.00  0.00    +0.029 A 
ATOM     14  C   UNL     1      -2.085   0.683   1.402  0.00  0.00    +0.106 A 
ATOM     15  C   UNL     1      -2.445  -0.332   0.536  0.00  0.00    +0.029 A 
ATOM     16  C   UNL     1      -2.790  -1.575   1.034  0.00  0.00    +0.005 A 
ENDBRANCH   7  14
ENDBRANCH   1   7
BRANCH   6  17
ATOM     17  C   UNL     1      -0.276   1.282  -1.513  0.00  0.00    +0.116 C 
BRANCH  17  18
ATOM     18  C   UNL     1       0.433   0.465  -2.562  0.00  0.00    +0.219 C 
ATOM     19  O   UNL     1       1.598   0.161  -2.409  0.00  0.00    -0.275 OA
ATOM     20  N   UNL     1      -0.226   0.073  -3.670  0.00  0.00    -0.285 N 
ATOM     21  H   UNL     1      -1.125   0.395  -3.840  0.00  0.00    +0.155 HD
BRANCH  20  22
ATOM     22  C   UNL     1       0.388  -0.799  -4.577  0.00  0.00    +0.034 A 
ATOM     23  C   UNL     1       1.229  -1.804  -4.117  0.00  0.00    +0.024 A 
ATOM     24  C   UNL     1       1.829  -2.666  -5.013  0.00  0.00    +0.017 A 
ATOM     25  C   UNL     1       1.601  -2.523  -6.371  0.00  0.00    +0.021 A 
ATOM     26  C   UNL     1       0.768  -1.520  -6.833  0.00  0.00    -0.035 A 
ATOM     27  C   UNL     1       0.161  -0.658  -5.940  0.00  0.00    +0.027 A 
ATOM     28  C   UNL     1       0.521  -1.367  -8.312  0.00  0.00    +0.045 C 
ATOM     29 BR   UNL     1       2.429  -3.701  -7.596  0.00  0.00    -0.050 Br
ENDBRANCH  20  22
ENDBRANCH  17  18
ENDBRANCH   6  17
TORSDOF 5
