REMARK  Name = ZINC12506726
REMARK  5 active torsions:
REMARK  status: ('A' for Active; 'I' for Inactive)
REMARK    1  A    between atoms: C_8  and  C_13
REMARK    2  A    between atoms: N_9  and  C_10
REMARK    3  A    between atoms: C_16  and  N_19
REMARK    4  A    between atoms: N_19  and  S_20
REMARK    5  A    between atoms: S_20  and  C_23
REMARK                            x       y       z     vdW  Elec       q    Type
REMARK                         _______ _______ _______ _____ _____    ______ ____
ROOT
ATOM      1  C   UNL     1      -0.296   0.356   0.241  0.00  0.00    +0.018 A 
ATOM      2  C   UNL     1      -1.554  -0.207   0.017  0.00  0.00    +0.013 A 
ATOM      3  C   UNL     1      -1.800  -1.510   0.391  0.00  0.00    +0.025 A 
ATOM      4  C   UNL     1      -0.801  -2.260   1.001  0.00  0.00    +0.048 A 
ATOM      5  C   UNL     1       0.451  -1.700   1.232  0.00  0.00    +0.025 A 
ATOM      6  C   UNL     1       0.705  -0.399   0.855  0.00  0.00    +0.013 A 
ENDROOT
BRANCH   1  14
ATOM      7  C   UNL     1       1.287   6.028  -0.805  0.00  0.00    +0.002 A 
ATOM      8  C   UNL     1       0.390   5.938  -1.860  0.00  0.00    +0.002 A 
ATOM      9  C   UNL     1      -0.301   4.767  -2.092  0.00  0.00    +0.028 A 
ATOM     10  C   UNL     1      -0.098   3.672  -1.264  0.00  0.00    +0.074 A 
ATOM     11  C   UNL     1       0.812   3.763  -0.195  0.00  0.00    +0.090 A 
ATOM     12  C   UNL     1       1.501   4.961   0.020  0.00  0.00    +0.030 A 
ATOM     13  N   UNL     1       0.810   2.563   0.436  0.00  0.00    -0.227 NA
ATOM     14  C   UNL     1      -0.027   1.752  -0.164  0.00  0.00    +0.146 A 
ATOM     15  N   UNL     1      -0.610   2.389  -1.226  0.00  0.00    -0.267 N 
BRANCH  15  16
ATOM     16  C   UNL     1      -1.595   1.819  -2.149  0.00  0.00    +0.450 C 
ATOM     17  F   UNL     1      -2.847   2.395  -1.907  0.00  0.00    -0.185 F 
ATOM     18  F   UNL     1      -1.207   2.083  -3.467  0.00  0.00    -0.185 F 
ENDBRANCH  15  16
ENDBRANCH   1  14
BRANCH   4  19
ATOM     19  N   UNL     1      -1.054  -3.576   1.383  0.00  0.00    -0.216 N 
ATOM     20  H   UNL     1      -0.413  -4.274   1.176  0.00  0.00    +0.174 HD
BRANCH  19  21
ATOM     21  S   UNL     1      -2.451  -3.950   2.191  0.00  0.00    +0.072 S 
ATOM     22  O   UNL     1      -3.518  -3.393   1.435  0.00  0.00    -0.150 OA
ATOM     23  O   UNL     1      -2.381  -5.333   2.505  0.00  0.00    -0.150 OA
BRANCH  21  24
ATOM     24  C   UNL     1      -2.414  -3.082   3.724  0.00  0.00    +0.112 A 
ATOM     25  C   UNL     1      -2.883  -1.781   3.791  0.00  0.00    +0.031 A 
ATOM     26  C   UNL     1      -2.858  -1.095   4.989  0.00  0.00    +0.031 A 
ATOM     27  C   UNL     1      -2.362  -1.712   6.127  0.00  0.00    +0.087 A 
ATOM     28  C   UNL     1      -1.890  -3.023   6.061  0.00  0.00    +0.159 A 
ATOM     29  C   UNL     1      -1.924  -3.705   4.855  0.00  0.00    +0.077 A 
ATOM     30  O   UNL     1      -1.472  -3.364   7.304  0.00  0.00    -0.408 OA
ATOM     31  C   UNL     1      -1.664  -2.326   8.134  0.00  0.00    +0.419 A 
ATOM     32  O   UNL     1      -1.392  -2.314   9.319  0.00  0.00    -0.223 OA
ATOM     33  N   UNL     1      -2.206  -1.299   7.450  0.00  0.00    -0.288 N 
ATOM     34  H   UNL     1      -2.444  -0.431   7.811  0.00  0.00    +0.172 HD
ENDBRANCH  21  24
ENDBRANCH  19  21
ENDBRANCH   4  19
TORSDOF 5
