REMARK  Name = ZINC44792754
REMARK  3 active torsions:
REMARK  status: ('A' for Active; 'I' for Inactive)
REMARK    1  A    between atoms: C_4  and  C_7
REMARK    2  A    between atoms: C_4  and  C_11
REMARK    3  A    between atoms: N_8  and  O_9
REMARK                            x       y       z     vdW  Elec       q    Type
REMARK                         _______ _______ _______ _____ _____    ______ ____
ROOT
ATOM      1  C   UNL     1      -0.236   1.133   0.024  0.00  0.00    +0.000 C 
ATOM      2  C   UNL     1       1.080   1.910  -0.054  0.00  0.00    +0.001 C 
ATOM      3  C   UNL     1       1.859   1.470  -1.296  0.00  0.00    +0.024 C 
ATOM      4  C   UNL     1       2.155  -0.028  -1.208  0.00  0.00    +0.105 C 
ATOM      5  C   UNL     1       0.839  -0.805  -1.130  0.00  0.00    +0.024 C 
ATOM      6  C   UNL     1       0.061  -0.365   0.112  0.00  0.00    +0.001 C 
ENDROOT
BRANCH   4   7
ATOM      7  C   UNL     1       2.977  -0.307   0.024  0.00  0.00    +0.229 C 
ATOM      8  O   UNL     1       3.331   0.609   0.737  0.00  0.00    -0.275 OA
ATOM      9  N   UNL     1       3.318  -1.573   0.335  0.00  0.00    -0.293 N 
ATOM     10  C   UNL     1       3.002  -2.673  -0.589  0.00  0.00    +0.136 C 
ATOM     11  C   UNL     1       4.286  -3.490  -0.789  0.00  0.00    +0.179 C 
ATOM     12  O   UNL     1       4.767  -3.899   0.491  0.00  0.00    -0.373 OA
ATOM     13  C   UNL     1       5.174  -2.841   1.360  0.00  0.00    +0.139 C 
ATOM     14  C   UNL     1       4.008  -1.862   1.587  0.00  0.00    +0.105 C 
ATOM     15  C   UNL     1       3.079  -2.588   2.573  0.00  0.00    +0.025 C 
ATOM     16  C   UNL     1       3.955  -3.607   3.325  0.00  0.00    +0.004 C 
ATOM     17  C   UNL     1       5.377  -3.454   2.772  0.00  0.00    +0.033 C 
ENDBRANCH   4   7
BRANCH   4  18
ATOM     18  C   UNL     1       2.921  -0.461  -2.431  0.00  0.00    +0.147 C 
ATOM     19  N   UNL     1       4.101   0.015  -2.656  0.00  0.00    -0.076 NA
ATOM     20  N   UNL     1       2.365  -1.365  -3.309  0.00  0.00    -0.343 N 
ATOM     21  H   UNL     1       1.509  -1.773  -3.106  0.00  0.00    +0.144 HD
ATOM     22  H   UNL     1       2.828  -1.592  -4.130  0.00  0.00    +0.144 HD
BRANCH  19  23
ATOM     23  O   UNL     1       4.719   0.858  -1.701  0.00  0.00    -0.408 OA
ATOM     24  H   UNL     1       5.599   1.164  -1.957  0.00  0.00    +0.328 HD
ENDBRANCH  19  23
ENDBRANCH   4  18
TORSDOF 3
