REMARK  Name = ZINC35853234
REMARK  10 active torsions:
REMARK  status: ('A' for Active; 'I' for Inactive)
REMARK    1  A    between atoms: C_1  and  C_2
REMARK    2  A    between atoms: C_7  and  S_8
REMARK    3  A    between atoms: S_8  and  N_11
REMARK    4  A    between atoms: N_11  and  C_12
REMARK    5  A    between atoms: N_11  and  C_19
REMARK    6  A    between atoms: N_22  and  C_25
REMARK    7  A    between atoms: C_25  and  C_26
REMARK    8  A    between atoms: C_29  and  N_32
REMARK    9  A    between atoms: N_32  and  C_33
REMARK   10  A    between atoms: N_32  and  C_34
REMARK                            x       y       z     vdW  Elec       q    Type
REMARK                         _______ _______ _______ _____ _____    ______ ____
ROOT
ATOM      1  N   UNL     1       1.604   1.271   2.571  0.00  0.00    -0.200 N 
ENDROOT
BRANCH   1   2
ATOM      2  C   UNL     1       1.470   2.623   2.240  0.00  0.00    +0.052 A 
ATOM      3  C   UNL     1       2.295   3.188   1.276  0.00  0.00    +0.027 A 
ATOM      4  C   UNL     1       2.161   4.524   0.950  0.00  0.00    +0.040 A 
ATOM      5  C   UNL     1       1.204   5.299   1.583  0.00  0.00    +0.124 A 
ATOM      6  C   UNL     1       0.381   4.738   2.545  0.00  0.00    +0.040 A 
ATOM      7  C   UNL     1       0.508   3.402   2.870  0.00  0.00    +0.027 A 
ATOM      8  F   UNL     1       1.075   6.605   1.264  0.00  0.00    -0.205 F 
ENDBRANCH   1   2
BRANCH   1   9
ATOM      9  C   UNL     1       2.853   0.781   3.159  0.00  0.00    +0.095 C 
ATOM     10  C   UNL     1       4.019   1.093   2.216  0.00  0.00    +0.006 C 
ATOM     11  C   UNL     1       5.329   0.650   2.872  0.00  0.00    -0.077 C 
ATOM     12  N   UNL     1       5.515   1.370   4.137  0.00  0.00    +0.382 N 
ATOM     13  C   UNL     1       4.439   1.021   5.072  0.00  0.00    -0.077 C 
ATOM     14  C   UNL     1       3.095   1.478   4.501  0.00  0.00    +0.006 C 
ATOM     15  H   UNL     1       5.499   2.364   3.963  0.00  0.00    -0.081 HD
BRANCH  12  16
ATOM     16  C   UNL     1       6.810   1.000   4.723  0.00  0.00    -0.043 C 
BRANCH  16  17
ATOM     17  C   UNL     1       7.058   1.829   5.958  0.00  0.00    -0.064 A 
ATOM     18  C   UNL     1       7.708   3.045   5.853  0.00  0.00    +0.003 A 
ATOM     19  C   UNL     1       7.936   3.807   6.982  0.00  0.00    +0.023 A 
ATOM     20  C   UNL     1       7.513   3.350   8.224  0.00  0.00    +0.029 A 
ATOM     21  C   UNL     1       6.860   2.128   8.325  0.00  0.00    +0.023 A 
ATOM     22  C   UNL     1       6.630   1.374   7.191  0.00  0.00    +0.003 A 
BRANCH  20  23
ATOM     23  N   UNL     1       7.743   4.118   9.368  0.00  0.00    -0.336 N 
ATOM     24  C   UNL     1       8.307   5.464   9.245  0.00  0.00    +0.129 C 
ATOM     25  C   UNL     1       7.419   3.577  10.690  0.00  0.00    +0.129 C 
ENDBRANCH  20  23
ENDBRANCH  16  17
ENDBRANCH  12  16
ENDBRANCH   1   9
BRANCH   1  26
ATOM     26  S   UNL     1       0.350   0.224   2.298  0.00  0.00    +0.075 S 
ATOM     27  O   UNL     1      -0.809   1.021   2.099  0.00  0.00    -0.150 OA
ATOM     28  O   UNL     1       0.426  -0.772   3.309  0.00  0.00    -0.150 OA
BRANCH  26  35
ATOM     29  C   UNL     1       0.340   1.605  -0.393  0.00  0.00    +0.046 C 
ATOM     30  C   UNL     1       0.645   0.130  -0.414  0.00  0.00    -0.024 A 
ATOM     31  C   UNL     1       0.904  -0.505  -1.614  0.00  0.00    +0.005 A 
ATOM     32  C   UNL     1       1.185  -1.859  -1.634  0.00  0.00    +0.000 A 
ATOM     33  C   UNL     1       1.207  -2.577  -0.453  0.00  0.00    +0.002 A 
ATOM     34  C   UNL     1       0.949  -1.942   0.748  0.00  0.00    +0.029 A 
ATOM     35  C   UNL     1       0.673  -0.587   0.767  0.00  0.00    +0.112 A 
ENDBRANCH  26  35
ENDBRANCH   1  26
TORSDOF 7
