REMARK  Name = ZINC04574542
REMARK  5 active torsions:
REMARK  status: ('A' for Active; 'I' for Inactive)
REMARK    1  A    between atoms: C_1  and  C_2
REMARK    2  A    between atoms: C_6  and  C_8
REMARK    3  A    between atoms: C_10  and  C_26
REMARK    4  A    between atoms: C_11  and  C_25
REMARK    5  A    between atoms: C_16  and  C_18
REMARK                            x       y       z     vdW  Elec       q    Type
REMARK                         _______ _______ _______ _____ _____    ______ ____
ROOT
ATOM      1  C   UNL     1      -0.070   5.347   0.031  0.00  0.00    +0.177 C 
ATOM      2  C   UNL     1      -0.798   5.846  -1.189  0.00  0.00    +0.060 C 
ATOM      3  C   UNL     1      -2.020   6.396  -1.140  0.00  0.00    +0.018 C 
ATOM      4  N   UNL     1      -2.703   6.557   0.041  0.00  0.00    -0.287 N 
ATOM      5  C   UNL     1      -1.992   6.379   1.220  0.00  0.00    +0.219 A 
ATOM      6  N   UNL     1      -0.755   5.818   1.232  0.00  0.00    -0.220 N 
ATOM      7  N   UNL     1      -0.336   5.802   2.561  0.00  0.00    -0.147 NA
ATOM      8  C   UNL     1      -1.310   6.333   3.272  0.00  0.00    +0.183 A 
ATOM      9  N   UNL     1      -2.313   6.680   2.447  0.00  0.00    -0.193 NA
ATOM     10  C   UNL     1      -2.666   6.851  -2.423  0.00  0.00    +0.061 C 
ATOM     11  H   UNL     1      -3.645   6.787   0.051  0.00  0.00    +0.155 HD
ENDROOT
BRANCH   1  17
ATOM     12  C   UNL     1       2.490   1.048  -0.016  0.00  0.00    +0.044 C 
ATOM     13  C   UNL     1       1.175   1.783   0.000  0.00  0.00    -0.050 A 
ATOM     14  C   UNL     1      -0.013   1.076   0.008  0.00  0.00    +0.003 A 
ATOM     15  C   UNL     1      -1.219   1.750   0.017  0.00  0.00    +0.001 A 
ATOM     16  C   UNL     1      -1.238   3.133   0.029  0.00  0.00    +0.006 A 
ATOM     17  C   UNL     1      -0.050   3.840   0.022  0.00  0.00    -0.018 A 
ATOM     18  C   UNL     1       1.157   3.165   0.008  0.00  0.00    +0.009 A 
ENDBRANCH   1  17
BRANCH   8  19
ATOM     19  C   UNL     1      -1.302   6.518   4.744  0.00  0.00    +0.022 A 
ATOM     20  C   UNL     1      -2.398   7.095   5.383  0.00  0.00    +0.012 A 
ATOM     21  C   UNL     1      -2.385   7.264   6.753  0.00  0.00    +0.002 A 
ATOM     22  C   UNL     1      -1.287   6.863   7.492  0.00  0.00    +0.020 A 
ATOM     23  C   UNL     1      -0.196   6.289   6.863  0.00  0.00    +0.042 A 
ATOM     24  C   UNL     1      -0.200   6.110   5.494  0.00  0.00    +0.031 A 
ATOM     25 CL   UNL     1       1.179   5.789   7.798  0.00  0.00    -0.084 Cl
ENDBRANCH   8  19
BRANCH   2  26
ATOM     26  C   UNL     1      -0.162   5.729  -2.448  0.00  0.00    +0.241 C 
ATOM     27  O   UNL     1      -0.725   6.123  -3.454  0.00  0.00    -0.271 OA
ATOM     28  N   UNL     1       1.067   5.181  -2.534  0.00  0.00    -0.325 N 
ATOM     29  H   UNL     1       1.515   4.867  -1.733  0.00  0.00    +0.145 HD
ATOM     30  H   UNL     1       1.502   5.101  -3.397  0.00  0.00    +0.145 HD
ENDBRANCH   2  26
TORSDOF 3
