REMARK  Name = ZINC40069804
REMARK  3 active torsions:
REMARK  status: ('A' for Active; 'I' for Inactive)
REMARK    1  A    between atoms: C_1  and  C_2
REMARK    2  A    between atoms: C_5  and  C_25
REMARK    3  A    between atoms: C_14  and  C_16
REMARK                            x       y       z     vdW  Elec       q    Type
REMARK                         _______ _______ _______ _____ _____    ______ ____
ROOT
ATOM      1  C   UNL     1      -0.179   2.309   1.631  0.00  0.00    +0.028 C 
ATOM      2  C   UNL     1      -0.183   1.003   0.835  0.00  0.00    +0.080 C 
ATOM      3  C   UNL     1       0.456   1.232  -0.541  0.00  0.00    +0.040 C 
ATOM      4  C   UNL     1       1.863   1.796  -0.346  0.00  0.00    +0.108 C 
ATOM      5  C   UNL     1       2.646   0.939   0.614  0.00  0.00    -0.014 A 
ATOM      6  C   UNL     1       4.029   1.008   0.599  0.00  0.00    +0.006 A 
ATOM      7  C   UNL     1       4.775   0.237   1.468  0.00  0.00    +0.000 A 
ATOM      8  C   UNL     1       4.144  -0.611   2.360  0.00  0.00    +0.002 A 
ATOM      9  C   UNL     1       2.766  -0.688   2.381  0.00  0.00    +0.024 A 
ATOM     10  C   UNL     1       2.013   0.087   1.506  0.00  0.00    +0.041 A 
ATOM     11  N   UNL     1       0.615  -0.011   1.538  0.00  0.00    -0.264 N 
ATOM     12  C   UNL     1       0.012  -1.018   2.201  0.00  0.00    +0.253 C 
ATOM     13  O   UNL     1       0.675  -1.790   2.867  0.00  0.00    -0.270 OA
ENDROOT
BRANCH  12  14
ATOM     14  C   UNL     1      -1.453  -1.183   2.120  0.00  0.00    +0.058 A 
ATOM     15  C   UNL     1      -2.126  -0.898   0.930  0.00  0.00    +0.054 A 
ATOM     16  C   UNL     1      -3.495  -1.055   0.860  0.00  0.00    +0.142 A 
ATOM     17  C   UNL     1      -4.203  -1.495   1.970  0.00  0.00    +0.077 A 
ATOM     18  C   UNL     1      -3.542  -1.778   3.152  0.00  0.00    +0.043 A 
ATOM     19  C   UNL     1      -2.171  -1.631   3.232  0.00  0.00    +0.055 A 
ATOM     20 CL   UNL     1      -1.343  -1.994   4.713  0.00  0.00    -0.083 Cl
ATOM     21 CL   UNL     1      -5.926  -1.689   1.875  0.00  0.00    -0.081 Cl
ATOM     22  F   UNL     1      -4.148  -0.780  -0.290  0.00  0.00    -0.204 F 
ENDBRANCH  12  14
BRANCH   4  23
ATOM     23  C   UNL     1       2.574   1.832  -1.674  0.00  0.00    +0.218 C 
ATOM     24  O   UNL     1       2.386   0.950  -2.486  0.00  0.00    -0.275 OA
ATOM     25  N   UNL     1       3.417   2.843  -1.960  0.00  0.00    -0.329 N 
ATOM     26  H   UNL     1       3.513   3.584  -1.341  0.00  0.00    +0.145 HD
ATOM     27  H   UNL     1       3.929   2.830  -2.783  0.00  0.00    +0.145 HD
ENDBRANCH   4  23
TORSDOF 2
