REMARK  Name = ZINC15016687
REMARK  9 active torsions:
REMARK  status: ('A' for Active; 'I' for Inactive)
REMARK    1  A    between atoms: C_1  and  C_2
REMARK    2  A    between atoms: N_7  and  C_8
REMARK    3  A    between atoms: C_8  and  C_10
REMARK    4  A    between atoms: C_8  and  C_20
REMARK    5  A    between atoms: C_14  and  O_16
REMARK    6  A    between atoms: O_16  and  C_17
REMARK    7  A    between atoms: C_17  and  C_18
REMARK    8  A    between atoms: C_26  and  C_31
REMARK    9  A    between atoms: C_29  and  O_30
REMARK                            x       y       z     vdW  Elec       q    Type
REMARK                         _______ _______ _______ _____ _____    ______ ____
ROOT
ATOM      1  C   UNL     1      -0.535   2.826   5.822  0.00  0.00    +0.136 C 
ENDROOT
BRANCH   1   2
ATOM      2  C   UNL     1      -1.657   1.884   6.176  0.00  0.00    +0.021 A 
ATOM      3  C   UNL     1      -2.214   1.080   5.185  0.00  0.00    +0.010 A 
ATOM      4  C   UNL     1      -3.225   0.215   5.473  0.00  0.00    +0.010 A 
ATOM      5  C   UNL     1      -3.724   0.137   6.784  0.00  0.00    +0.004 A 
ATOM      6  C   UNL     1      -4.772  -0.741   7.118  0.00  0.00    +0.012 A 
ATOM      7  C   UNL     1      -5.206  -0.762   8.413  0.00  0.00    +0.023 A 
ATOM      8  C   UNL     1      -4.613   0.071   9.359  0.00  0.00    +0.039 A 
ATOM      9  N   UNL     1      -3.637   0.887   9.043  0.00  0.00    -0.248 NA
ATOM     10  C   UNL     1      -3.166   0.957   7.795  0.00  0.00    +0.113 A 
ATOM     11  C   UNL     1      -2.115   1.837   7.461  0.00  0.00    +0.148 A 
ATOM     12  C   UNL     1      -5.106   0.032  10.783  0.00  0.00    +0.065 C 
BRANCH  11  13
ATOM     13  O   UNL     1      -1.562   2.633   8.413  0.00  0.00    -0.504 OA
ATOM     14  H   UNL     1      -1.991   3.495   8.502  0.00  0.00    +0.292 HD
ENDBRANCH  11  13
ENDBRANCH   1   2
BRANCH   1  21
ATOM     15  C   UNL     1       3.285  -0.745   2.649  0.00  0.00    +0.063 C 
ATOM     16  C   UNL     1       2.651  -0.166   3.888  0.00  0.00    +0.014 A 
ATOM     17  C   UNL     1       3.033  -0.632   5.130  0.00  0.00    +0.021 A 
ATOM     18  C   UNL     1       2.449  -0.092   6.268  0.00  0.00    +0.005 A 
ATOM     19  C   UNL     1       1.492   0.895   6.114  0.00  0.00    +0.041 A 
ATOM     20  C   UNL     1       1.153   1.314   4.832  0.00  0.00    +0.097 A 
ATOM     21  N   UNL     1       0.193   2.305   4.662  0.00  0.00    -0.320 N 
ATOM     22  H   UNL     1       0.005   2.652   3.776  0.00  0.00    +0.148 HD
ATOM     23  N   UNL     1       1.715   0.802   3.699  0.00  0.00    -0.347 N 
ATOM     24  H   UNL     1       1.448   1.128   2.762  0.00  0.00    +0.167 HD
ENDBRANCH   1  21
BRANCH   1  25
ATOM     25  C   UNL     1      -1.103   4.182   5.491  0.00  0.00    -0.019 A 
ATOM     26  C   UNL     1      -1.760   4.382   4.291  0.00  0.00    +0.006 A 
ATOM     27  C   UNL     1      -2.283   5.625   3.985  0.00  0.00    +0.004 A 
ATOM     28  C   UNL     1      -2.150   6.670   4.878  0.00  0.00    +0.045 A 
ATOM     29  C   UNL     1      -1.491   6.473   6.082  0.00  0.00    +0.121 A 
ATOM     30  C   UNL     1      -0.971   5.223   6.389  0.00  0.00    +0.051 A 
BRANCH  29  31
ATOM     31  O   UNL     1      -1.359   7.500   6.962  0.00  0.00    -0.488 OA
BRANCH  31  32
ATOM     32  C   UNL     1      -1.923   8.757   6.582  0.00  0.00    +0.256 C 
BRANCH  32  33
ATOM     33  C   UNL     1      -1.680   9.767   7.674  0.00  0.00    +0.006 C 
ATOM     34  C   UNL     1      -1.262  10.971   7.371  0.00  0.00    +0.007 C 
ENDBRANCH  32  33
ENDBRANCH  31  32
ENDBRANCH  29  31
ENDBRANCH   1  25
TORSDOF 7
