REMARK  Name = ZINC35496970
REMARK  8 active torsions:
REMARK  status: ('A' for Active; 'I' for Inactive)
REMARK    1  A    between atoms: C_1  and  C_2
REMARK    2  A    between atoms: C_3  and  C_15
REMARK    3  A    between atoms: N_6  and  C_9
REMARK    4  A    between atoms: N_7  and  C_8
REMARK    5  A    between atoms: C_15  and  N_16
REMARK    6  A    between atoms: N_16  and  C_17
REMARK    7  A    between atoms: C_28  and  C_30
REMARK    8  A    between atoms: C_30  and  C_31
REMARK                            x       y       z     vdW  Elec       q    Type
REMARK                         _______ _______ _______ _____ _____    ______ ____
ROOT
ATOM      1  N   UNL     1      -3.446  -0.257  -0.382  0.00  0.00    -0.290 N 
ATOM      2  C   UNL     1      -3.341   0.574  -1.437  0.00  0.00    +0.220 C 
ATOM      3  O   UNL     1      -2.715   1.608  -1.335  0.00  0.00    -0.275 OA
ENDROOT
BRANCH   1   4
ATOM      4  C   UNL     1      -4.308  -1.439  -0.463  0.00  0.00    +0.107 C 
ATOM      5  C   UNL     1      -5.766  -0.995  -0.544  0.00  0.00    +0.027 C 
ATOM      6  C   UNL     1      -6.631  -2.224  -0.847  0.00  0.00    +0.007 C 
ATOM      7  C   UNL     1      -6.351  -2.668  -2.281  0.00  0.00    +0.035 C 
ATOM      8  C   UNL     1      -4.870  -2.812  -2.512  0.00  0.00    -0.042 A 
ATOM      9  C   UNL     1      -3.932  -2.244  -1.679  0.00  0.00    -0.024 A 
ATOM     10  C   UNL     1      -2.580  -2.410  -1.953  0.00  0.00    +0.006 A 
ATOM     11  C   UNL     1      -2.171  -3.142  -3.049  0.00  0.00    +0.000 A 
ATOM     12  C   UNL     1      -3.114  -3.714  -3.882  0.00  0.00    +0.000 A 
ATOM     13  C   UNL     1      -4.455  -3.550  -3.613  0.00  0.00    +0.004 A 
ENDBRANCH   1   4
BRANCH   1  14
ATOM     14  C   UNL     1      -2.699   0.022   0.847  0.00  0.00    +0.150 C 
BRANCH  14  17
ATOM     15  C   UNL     1      -0.048   1.357  -0.095  0.00  0.00    +0.065 C 
ATOM     16  C   UNL     1      -0.201  -0.068   0.370  0.00  0.00    +0.043 A 
ATOM     17  C   UNL     1      -1.350  -0.645   0.777  0.00  0.00    +0.056 A 
ATOM     18  C   UNL     1      -1.067  -1.986   1.128  0.00  0.00    +0.277 A 
ATOM     19  O   UNL     1      -1.868  -2.806   1.539  0.00  0.00    -0.265 OA
ATOM     20  N   UNL     1       0.250  -2.192   0.925  0.00  0.00    -0.217 N 
ATOM     21  N   UNL     1       0.799  -0.996   0.444  0.00  0.00    -0.284 N 
ATOM     22  C   UNL     1       2.203  -0.777   0.086  0.00  0.00    +0.171 C 
BRANCH  20  23
ATOM     23  C   UNL     1       0.943  -3.386   1.149  0.00  0.00    +0.067 A 
ATOM     24  C   UNL     1       2.143  -3.374   1.848  0.00  0.00    +0.028 A 
ATOM     25  C   UNL     1       2.824  -4.556   2.067  0.00  0.00    +0.002 A 
ATOM     26  C   UNL     1       2.313  -5.749   1.592  0.00  0.00    +0.000 A 
ATOM     27  C   UNL     1       1.119  -5.764   0.894  0.00  0.00    +0.002 A 
ATOM     28  C   UNL     1       0.430  -4.587   0.676  0.00  0.00    +0.028 A 
ENDBRANCH  20  23
ENDBRANCH  14  17
ENDBRANCH   1  14
BRANCH   2  29
ATOM     29  C   UNL     1      -4.001   0.219  -2.745  0.00  0.00    +0.145 C 
BRANCH  29  30
ATOM     30  C   UNL     1      -3.708   1.310  -3.777  0.00  0.00    +0.216 C 
ATOM     31  C   UNL     1      -4.272   0.915  -5.118  0.00  0.00    +0.007 A 
ATOM     32  C   UNL     1      -4.043  -0.140  -5.969  0.00  0.00    +0.008 A 
ATOM     33  C   UNL     1      -4.737  -0.227  -7.165  0.00  0.00    +0.000 A 
ATOM     34  C   UNL     1      -5.661   0.744  -7.506  0.00  0.00    +0.001 A 
ATOM     35  C   UNL     1      -5.899   1.808  -6.660  0.00  0.00    +0.015 A 
ATOM     36  C   UNL     1      -5.203   1.902  -5.454  0.00  0.00    +0.066 A 
ATOM     37  C   UNL     1      -5.225   2.888  -4.358  0.00  0.00    +0.340 C 
ATOM     38  O   UNL     1      -5.926   3.879  -4.326  0.00  0.00    -0.245 OA
ATOM     39  O   UNL     1      -4.354   2.528  -3.399  0.00  0.00    -0.453 OA
ENDBRANCH  29  30
ENDBRANCH   2  29
TORSDOF 6
