REMARK  Name = ZINC64656750
REMARK  8 active torsions:
REMARK  status: ('A' for Active; 'I' for Inactive)
REMARK    1  A    between atoms: C_1  and  C_2
REMARK    2  A    between atoms: C_5  and  S_8
REMARK    3  A    between atoms: S_8  and  C_11
REMARK    4  A    between atoms: C_20  and  C_22
REMARK    5  A    between atoms: C_27  and  O_28
REMARK    6  A    between atoms: O_28  and  C_29
REMARK    7  A    between atoms: C_29  and  C_30
REMARK    8  A    between atoms: C_29  and  C_31
REMARK                            x       y       z     vdW  Elec       q    Type
REMARK                         _______ _______ _______ _____ _____    ______ ____
ROOT
ATOM      1  C   UNL     1       1.757  -4.608   0.090  0.00  0.00    +0.122 A 
ATOM      2  C   UNL     1       2.136  -5.192   1.252  0.00  0.00    +0.074 A 
ATOM      3  S   UNL     1       3.816  -5.686   0.892  0.00  0.00    -0.097 S 
ATOM      4  C   UNL     1       3.893  -5.079  -0.767  0.00  0.00    +0.021 A 
ATOM      5  C   UNL     1       2.651  -4.546  -0.977  0.00  0.00    +0.070 A 
ATOM      6  N   UNL     1       2.377  -3.961  -2.247  0.00  0.00    -0.283 N 
ATOM      7  C   UNL     1       3.253  -4.147  -3.249  0.00  0.00    +0.218 C 
ATOM      8  O   UNL     1       3.112  -3.503  -4.267  0.00  0.00    -0.275 OA
ATOM      9  C   UNL     1       4.399  -5.116  -3.167  0.00  0.00    +0.109 C 
ATOM     10  C   UNL     1       5.011  -5.106  -1.755  0.00  0.00    +0.070 C 
ATOM     11  H   UNL     1       1.572  -3.437  -2.386  0.00  0.00    +0.155 HD
ENDROOT
BRANCH  10  12
ATOM     12  C   UNL     1       5.881  -3.890  -1.571  0.00  0.00    +0.003 A 
ATOM     13  C   UNL     1       5.342  -2.626  -1.712  0.00  0.00    +0.008 A 
ATOM     14  C   UNL     1       6.140  -1.509  -1.544  0.00  0.00    +0.001 A 
ATOM     15  C   UNL     1       7.480  -1.655  -1.235  0.00  0.00    +0.004 A 
ATOM     16  C   UNL     1       8.024  -2.916  -1.093  0.00  0.00    +0.046 A 
ATOM     17  C   UNL     1       7.224  -4.038  -1.256  0.00  0.00    +0.125 A 
BRANCH  17  18
ATOM     18  O   UNL     1       7.756  -5.280  -1.111  0.00  0.00    -0.489 OA
BRANCH  18  19
ATOM     19  C   UNL     1       9.114  -5.357  -0.675  0.00  0.00    +0.167 C 
ATOM     20  C   UNL     1       9.354  -6.703   0.012  0.00  0.00    +0.051 C 
ATOM     21  C   UNL     1      10.046  -5.229  -1.882  0.00  0.00    +0.051 C 
ENDBRANCH  18  19
ENDBRANCH  17  18
ENDBRANCH  10  12
BRANCH   1  22
ATOM     22  S   UNL     1       0.137  -3.936  -0.075  0.00  0.00    +0.027 S 
ATOM     23  O   UNL     1       0.290  -2.638  -0.633  0.00  0.00    -0.164 OA
ATOM     24  O   UNL     1      -0.523  -4.160   1.163  0.00  0.00    -0.164 OA
BRANCH  22  29
ATOM     25  C   UNL     1      -2.764  -7.253  -4.197  0.00  0.00    +0.044 C 
ATOM     26  C   UNL     1      -2.039  -6.424  -3.168  0.00  0.00    -0.050 A 
ATOM     27  C   UNL     1      -1.988  -6.846  -1.852  0.00  0.00    +0.005 A 
ATOM     28  C   UNL     1      -1.324  -6.087  -0.908  0.00  0.00    +0.027 A 
ATOM     29  C   UNL     1      -0.709  -4.905  -1.279  0.00  0.00    +0.094 A 
ATOM     30  C   UNL     1      -0.759  -4.484  -2.595  0.00  0.00    +0.027 A 
ATOM     31  C   UNL     1      -1.420  -5.246  -3.540  0.00  0.00    +0.005 A 
ENDBRANCH  22  29
ENDBRANCH   1  22
TORSDOF 5
