REMARK  Name = ZINC13358572
REMARK  9 active torsions:
REMARK  status: ('A' for Active; 'I' for Inactive)
REMARK    1  A    between atoms: C_1  and  C_2
REMARK    2  A    between atoms: C_2  and  C_3
REMARK    3  A    between atoms: C_2  and  C_4
REMARK    4  A    between atoms: C_4  and  C_5
REMARK    5  A    between atoms: C_5  and  C_7
REMARK    6  A    between atoms: C_5  and  N_9
REMARK    7  A    between atoms: N_9  and  S_10
REMARK    8  A    between atoms: S_10  and  C_13
REMARK    9  A    between atoms: C_17  and  C_19
REMARK                            x       y       z     vdW  Elec       q    Type
REMARK                         _______ _______ _______ _____ _____    ______ ____
ROOT
ATOM      1  S   UNL     1      -1.346   6.021   0.108  0.00  0.00    +0.059 S 
ATOM      2  O   UNL     1      -2.328   5.132   0.624  0.00  0.00    -0.153 OA
ATOM      3  O   UNL     1      -1.037   7.260   0.731  0.00  0.00    -0.153 OA
ENDROOT
BRANCH   1   4
ATOM      4  C   UNL     1       0.160   5.112   0.020  0.00  0.00    +0.106 A 
ATOM      5  C   UNL     1       1.372   5.781   0.037  0.00  0.00    +0.029 A 
ATOM      6  C   UNL     1       2.560   5.075  -0.031  0.00  0.00    +0.018 A 
ATOM      7  C   UNL     1       2.544   3.697  -0.117  0.00  0.00    +0.032 A 
ATOM      8  C   UNL     1       1.324   3.016  -0.136  0.00  0.00    +0.079 A 
ATOM      9  C   UNL     1       0.129   3.736  -0.072  0.00  0.00    +0.044 A 
ATOM     10 BR   UNL     1       4.169   2.734  -0.210  0.00  0.00    -0.049 Br
BRANCH   8  11
ATOM     11  C   UNL     1       1.298   1.543  -0.229  0.00  0.00    +0.388 C 
ATOM     12  O   UNL     1       2.340   0.920  -0.289  0.00  0.00    -0.241 OA
ATOM     13  O   UNL     1       0.120   0.889  -0.246  0.00  0.00    -0.241 OA
ENDBRANCH   8  11
ENDBRANCH   1   4
BRANCH   1  14
ATOM     14  N   UNL     1      -1.797   6.373  -1.447  0.00  0.00    -0.176 NA
ATOM     15  H   UNL     1      -1.823   7.295  -1.747  0.00  0.00    +0.149 HD
BRANCH  14  16
ATOM     16  C   UNL     1      -2.157   5.292  -2.367  0.00  0.00    +0.189 C 
BRANCH  16  17
ATOM     17  C   UNL     1      -3.652   5.102  -2.358  0.00  0.00    +0.374 C 
ATOM     18  O   UNL     1      -4.346   5.798  -1.655  0.00  0.00    -0.245 OA
ATOM     19  O   UNL     1      -4.213   4.159  -3.132  0.00  0.00    -0.245 OA
ENDBRANCH  16  17
BRANCH  16  20
ATOM     20  C   UNL     1      -1.697   5.651  -3.781  0.00  0.00    +0.035 C 
BRANCH  20  22
ATOM     21  C   UNL     1       0.400   4.307  -3.583  0.00  0.00    +0.007 C 
ATOM     22  C   UNL     1      -0.169   5.708  -3.821  0.00  0.00    -0.015 C 
ATOM     23  C   UNL     1       0.287   6.218  -5.190  0.00  0.00    +0.007 C 
ENDBRANCH  20  22
ENDBRANCH  16  20
ENDBRANCH  14  16
ENDBRANCH   1  14
TORSDOF 7
