REMARK  Name = ZINC22017701
REMARK  4 active torsions:
REMARK  status: ('A' for Active; 'I' for Inactive)
REMARK    1  A    between atoms: C_6  and  N_7
REMARK    2  A    between atoms: N_7  and  C_8
REMARK    3  A    between atoms: C_8  and  C_9
REMARK    4  A    between atoms: N_11  and  N_12
REMARK                            x       y       z     vdW  Elec       q    Type
REMARK                         _______ _______ _______ _____ _____    ______ ____
ROOT
ATOM      1  C   UNL     1      -1.187   1.624   0.017  0.00  0.00    +0.247 C 
ATOM      2  O   UNL     1      -1.204   2.837   0.023  0.00  0.00    -0.273 OA
ATOM      3  N   UNL     1      -0.011   0.966   0.007  0.00  0.00    -0.222 N 
ATOM      4  H   UNL     1       0.004  -0.134   0.006  0.00  0.00    +0.174 HD
ENDROOT
BRANCH   3   5
ATOM      5  N   UNL     1       1.193   1.683  -0.000  0.00  0.00    -0.137 N 
ATOM      6  C   UNL     1       2.002   1.817   1.071  0.00  0.00    +0.263 C 
ATOM      7  O   UNL     1       1.834   1.358   2.180  0.00  0.00    -0.271 OA
ATOM      8  C   UNL     1       3.163   2.660   0.596  0.00  0.00    +0.114 C 
ATOM      9  C   UNL     1       4.469   1.881   0.716  0.00  0.00    +0.035 C 
ATOM     10  C   UNL     1       5.628   2.741   0.204  0.00  0.00    +0.003 C 
ATOM     11  C   UNL     1       5.706   4.030   1.025  0.00  0.00    +0.000 C 
ATOM     12  C   UNL     1       4.399   4.811   0.874  0.00  0.00    +0.003 C 
ATOM     13  C   UNL     1       3.235   3.960   1.389  0.00  0.00    +0.035 C 
ATOM     14  N   UNL     1       2.854   2.932  -0.814  0.00  0.00    -0.284 N 
ATOM     15  C   UNL     1       1.685   2.315  -1.073  0.00  0.00    +0.326 C 
ATOM     16  O   UNL     1       1.137   2.333  -2.157  0.00  0.00    -0.251 OA
ATOM     17  H   UNL     1       3.540   3.541  -1.420  0.00  0.00    +0.151 HD
ENDBRANCH   3   5
BRANCH   1  18
ATOM     18  C   UNL     1      -2.482   0.853   0.018  0.00  0.00    +0.199 C 
BRANCH  18  19
ATOM     19  N   UNL     1      -3.608   1.789   0.029  0.00  0.00    -0.335 N 
ATOM     20  H   UNL     1      -3.422   2.873   0.034  0.00  0.00    +0.147 HD
BRANCH  19  26
ATOM     21  C   UNL     1      -5.156  -0.063   0.020  0.00  0.00    +0.024 A 
ATOM     22  C   UNL     1      -6.453  -0.539   0.029  0.00  0.00    +0.023 A 
ATOM     23  C   UNL     1      -7.516   0.346   0.039  0.00  0.00    +0.059 A 
ATOM     24  C   UNL     1      -7.284   1.712   0.045  0.00  0.00    +0.061 A 
ATOM     25  C   UNL     1      -5.988   2.193   0.042  0.00  0.00    +0.044 A 
ATOM     26  C   UNL     1      -4.919   1.306   0.033  0.00  0.00    +0.029 A 
ATOM     27 CL   UNL     1      -8.620   2.819   0.058  0.00  0.00    -0.082 Cl
ATOM     28 CL   UNL     1      -9.144  -0.256   0.043  0.00  0.00    -0.082 Cl
ENDBRANCH  19  26
ENDBRANCH  18  19
ENDBRANCH   1  18
TORSDOF 4
