REMARK  Name = ZINC16905064
REMARK  9 active torsions:
REMARK  status: ('A' for Active; 'I' for Inactive)
REMARK    1  A    between atoms: C_1  and  C_2
REMARK    2  A    between atoms: C_2  and  C_4
REMARK    3  A    between atoms: C_2  and  N_60
REMARK    4  A    between atoms: C_7  and  S_16
REMARK    5  A    between atoms: N_8  and  C_9
REMARK    6  A    between atoms: S_16  and  C_17
REMARK    7  A    between atoms: C_17  and  C_19
REMARK    8  A    between atoms: C_17  and  C_20
REMARK    9  A    between atoms: N_22  and  C_23
REMARK                            x       y       z     vdW  Elec       q    Type
REMARK                         _______ _______ _______ _____ _____    ______ ____
ROOT
ATOM      1  C   UNL     1       5.867   2.958   0.617  0.00  0.00    +0.125 A 
ATOM      2  N   UNL     1       4.830   3.745   0.683  0.00  0.00    -0.135 NA
ATOM      3  N   UNL     1       3.748   3.051   0.698  0.00  0.00    -0.122 NA
ATOM      4  C   UNL     1       4.037   1.772   0.641  0.00  0.00    +0.197 A 
ATOM      5  N   UNL     1       5.400   1.671   0.593  0.00  0.00    -0.275 N 
ENDROOT
BRANCH   5   6
ATOM      6  C   UNL     1       6.162   0.494   0.529  0.00  0.00    +0.050 A 
ATOM      7  C   UNL     1       7.005   0.154   1.578  0.00  0.00    +0.029 A 
ATOM      8  C   UNL     1       7.749  -1.007   1.516  0.00  0.00    +0.040 A 
ATOM      9  C   UNL     1       7.664  -1.827   0.403  0.00  0.00    +0.124 A 
ATOM     10  C   UNL     1       6.828  -1.486  -0.647  0.00  0.00    +0.040 A 
ATOM     11  C   UNL     1       6.077  -0.329  -0.586  0.00  0.00    +0.029 A 
ATOM     12  F   UNL     1       8.398  -2.960   0.342  0.00  0.00    -0.205 F 
ENDBRANCH   5   6
BRANCH   1  14
ATOM     13  C   UNL     1       7.639   3.957  -0.802  0.00  0.00    -0.005 C 
ATOM     14  C   UNL     1       7.311   3.386   0.580  0.00  0.00    -0.002 C 
BRANCH  14  20
ATOM     15  C   UNL     1       8.954   4.824   1.625  0.00  0.00    -0.078 C 
ATOM     16  C   UNL     1       9.131   5.994   2.596  0.00  0.00    -0.019 C 
ATOM     17  C   UNL     1       8.683   5.562   3.995  0.00  0.00    -0.004 C 
ATOM     18  C   UNL     1       7.227   5.094   3.934  0.00  0.00    -0.019 C 
ATOM     19  C   UNL     1       7.105   3.950   2.925  0.00  0.00    -0.078 C 
ATOM     20  N   UNL     1       7.527   4.438   1.595  0.00  0.00    +0.386 N 
ATOM     21  H   UNL     1       6.965   5.260   1.347  0.00  0.00    -0.081 HD
ENDBRANCH  14  20
ENDBRANCH   1  14
BRANCH   4  22
ATOM     22  S   UNL     1       2.887   0.437   0.636  0.00  0.00    -0.073 S 
BRANCH  22  23
ATOM     23  C   UNL     1       1.333   1.361   0.726  0.00  0.00    +0.137 C 
ATOM     24  C   UNL     1       1.159   2.191  -0.547  0.00  0.00    +0.029 C 
BRANCH  23  25
ATOM     25  C   UNL     1       0.182   0.396   0.858  0.00  0.00    +0.230 C 
ATOM     26  O   UNL     1       0.322  -0.763   0.532  0.00  0.00    -0.274 OA
ATOM     27  N   UNL     1      -1.004   0.824   1.333  0.00  0.00    -0.284 N 
ATOM     28  H   UNL     1      -1.098   1.734   1.656  0.00  0.00    +0.155 HD
BRANCH  27  29
ATOM     29  C   UNL     1      -2.102  -0.045   1.361  0.00  0.00    +0.036 A 
ATOM     30  C   UNL     1      -3.380   0.441   1.119  0.00  0.00    +0.026 A 
ATOM     31  C   UNL     1      -4.461  -0.418   1.141  0.00  0.00    +0.043 A 
ATOM     32  C   UNL     1      -4.274  -1.762   1.416  0.00  0.00    +0.159 A 
ATOM     33  C   UNL     1      -3.000  -2.249   1.664  0.00  0.00    +0.160 A 
ATOM     34  C   UNL     1      -1.914  -1.393   1.637  0.00  0.00    +0.064 A 
ATOM     35  F   UNL     1      -2.818  -3.561   1.932  0.00  0.00    -0.202 F 
ATOM     36  F   UNL     1      -5.334  -2.599   1.442  0.00  0.00    -0.202 F 
ENDBRANCH  27  29
ENDBRANCH  23  25
ENDBRANCH  22  23
ENDBRANCH   4  22
TORSDOF 7
