REMARK  Name = ZINC16588540
REMARK  12 active torsions:
REMARK  status: ('A' for Active; 'I' for Inactive)
REMARK    1  A    between atoms: C_1  and  C_2
REMARK    2  A    between atoms: C_2  and  N_3
REMARK    3  A    between atoms: N_3  and  C_4
REMARK    4  A    between atoms: N_3  and  C_21
REMARK    5  A    between atoms: C_4  and  C_5
REMARK    6  A    between atoms: C_11  and  C_20
REMARK    7  A    between atoms: C_12  and  C_16
REMARK    8  A    between atoms: C_16  and  O_18
REMARK    9  A    between atoms: O_18  and  C_19
REMARK   10  A    between atoms: C_21  and  C_22
REMARK   11  A    between atoms: N_24  and  C_25
REMARK   12  A    between atoms: C_30  and  C_31
REMARK                            x       y       z     vdW  Elec       q    Type
REMARK                         _______ _______ _______ _____ _____    ______ ____
ROOT
ATOM      1  N   UNL     1      -1.367  -0.495   0.134  0.00  0.00    +0.390 N 
ATOM      2  H   UNL     1      -1.794  -0.010   0.909  0.00  0.00    -0.081 HD
ENDROOT
BRANCH   1   4
ATOM      3  C   UNL     1       0.050   1.481  -0.157  0.00  0.00    -0.017 C 
ATOM      4  C   UNL     1       0.021  -0.043  -0.023  0.00  0.00    -0.081 C 
ENDBRANCH   1   4
BRANCH   1   5
ATOM      5  C   UNL     1      -1.385  -1.941   0.391  0.00  0.00    -0.003 C 
BRANCH   5   6
ATOM      6  C   UNL     1      -0.722  -2.224   1.715  0.00  0.00    +0.094 A 
ATOM      7  N   UNL     1      -0.627  -3.507   2.142  0.00  0.00    -0.312 N 
ATOM      8  H   UNL     1      -0.987  -4.219   1.591  0.00  0.00    +0.170 HD
ATOM      9  C   UNL     1      -0.043  -3.813   3.317  0.00  0.00    +0.260 A 
ATOM     10  O   UNL     1       0.038  -4.970   3.692  0.00  0.00    -0.267 OA
ATOM     11  C   UNL     1       0.499  -2.708   4.140  0.00  0.00    +0.076 A 
ATOM     12  C   UNL     1       1.142  -2.764   5.378  0.00  0.00    -0.015 A 
ATOM     13  C   UNL     1       1.569  -1.612   5.974  0.00  0.00    +0.102 A 
ATOM     14  S   UNL     1       1.081  -0.357   4.802  0.00  0.00    -0.062 S 
ATOM     15  C   UNL     1       0.338  -1.417   3.587  0.00  0.00    +0.116 A 
ATOM     16  N   UNL     1      -0.251  -1.227   2.413  0.00  0.00    -0.229 NA
ATOM     17  C   UNL     1       1.363  -4.091   6.056  0.00  0.00    +0.046 C 
BRANCH  13  18
ATOM     18  C   UNL     1       2.257  -1.447   7.256  0.00  0.00    +0.346 C 
ATOM     19  O   UNL     1       2.517  -2.420   7.937  0.00  0.00    -0.244 OA
BRANCH  18  20
ATOM     20  O   UNL     1       2.604  -0.214   7.681  0.00  0.00    -0.464 OA
ATOM     21  C   UNL     1       3.273  -0.127   8.941  0.00  0.00    +0.280 C 
ENDBRANCH  18  20
ENDBRANCH  13  18
ENDBRANCH   5   6
ENDBRANCH   1   5
BRANCH   1  22
ATOM     22  C   UNL     1      -2.118  -0.207  -1.096  0.00  0.00    +0.019 C 
BRANCH  22  23
ATOM     23  C   UNL     1      -3.579  -0.498  -0.872  0.00  0.00    +0.201 C 
ATOM     24  O   UNL     1      -3.951  -0.955   0.188  0.00  0.00    -0.278 OA
ATOM     25  N   UNL     1      -4.473  -0.249  -1.849  0.00  0.00    -0.287 N 
ATOM     26  H   UNL     1      -4.169   0.052  -2.720  0.00  0.00    +0.155 HD
BRANCH  25  27
ATOM     27  C   UNL     1      -5.840  -0.426  -1.609  0.00  0.00    +0.045 A 
ATOM     28  C   UNL     1      -6.266  -1.332  -0.646  0.00  0.00    +0.024 A 
ATOM     29  C   UNL     1      -7.616  -1.504  -0.411  0.00  0.00    +0.002 A 
ATOM     30  C   UNL     1      -8.544  -0.775  -1.133  0.00  0.00    +0.001 A 
ATOM     31  C   UNL     1      -8.123   0.128  -2.092  0.00  0.00    +0.014 A 
ATOM     32  C   UNL     1      -6.774   0.309  -2.328  0.00  0.00    +0.076 A 
BRANCH  32  33
ATOM     33  C   UNL     1      -6.316   1.298  -3.368  0.00  0.00    +0.419 C 
ATOM     34  F   UNL     1      -7.431   1.910  -3.953  0.00  0.00    -0.166 F 
ATOM     35  F   UNL     1      -5.513   2.272  -2.765  0.00  0.00    -0.166 F 
ATOM     36  F   UNL     1      -5.580   0.631  -4.353  0.00  0.00    -0.166 F 
ENDBRANCH  32  33
ENDBRANCH  25  27
ENDBRANCH  22  23
ENDBRANCH   1  22
TORSDOF 9
