REMARK  Name = ZINC16426596
REMARK  16 active torsions:
REMARK  status: ('A' for Active; 'I' for Inactive)
REMARK    1  A    between atoms: C_1  and  C_2
REMARK    2  A    between atoms: C_2  and  O_3
REMARK    3  A    between atoms: O_3  and  C_4
REMARK    4  A    between atoms: C_4  and  C_6
REMARK    5  A    between atoms: N_8  and  C_29
REMARK    6  A    between atoms: C_10  and  C_24
REMARK    7  A    between atoms: C_11  and  C_12
REMARK    8  A    between atoms: C_14  and  N_21
REMARK    9  A    between atoms: C_15  and  O_20
REMARK   10  A    between atoms: C_16  and  O_18
REMARK   11  A    between atoms: O_18  and  C_19
REMARK   12  A    between atoms: C_24  and  O_26
REMARK   13  A    between atoms: O_26  and  C_27
REMARK   14  A    between atoms: C_27  and  C_28
REMARK   15  A    between atoms: C_29  and  C_31
REMARK   16  A    between atoms: C_29  and  C_32
REMARK                            x       y       z     vdW  Elec       q    Type
REMARK                         _______ _______ _______ _____ _____    ______ ____
ROOT
ATOM      1  C   UNL     1      -3.569  -2.217  -0.437  0.00  0.00    +0.062 C 
ATOM      2  C   UNL     1      -3.404  -3.537  -0.245  0.00  0.00    +0.087 C 
ATOM      3  N   UNL     1      -4.483  -4.376  -0.182  0.00  0.00    -0.305 N 
ATOM      4  C   UNL     1      -5.700  -3.973  -0.659  0.00  0.00    +0.087 C 
ATOM      5  C   UNL     1      -5.961  -2.671  -0.869  0.00  0.00    +0.062 C 
ATOM      6  C   UNL     1      -4.937  -1.610  -0.573  0.00  0.00    +0.095 C 
ENDROOT
BRANCH   6   7
ATOM      7  C   UNL     1      -5.298  -0.908   0.710  0.00  0.00    -0.029 A 
ATOM      8  C   UNL     1      -5.355  -1.620   1.894  0.00  0.00    +0.041 A 
ATOM      9  C   UNL     1      -5.685  -0.980   3.074  0.00  0.00    +0.171 A 
ATOM     10  C   UNL     1      -5.960   0.378   3.072  0.00  0.00    +0.189 A 
ATOM     11  C   UNL     1      -5.903   1.095   1.881  0.00  0.00    +0.164 A 
ATOM     12  C   UNL     1      -5.566   0.449   0.702  0.00  0.00    +0.054 A 
BRANCH   9  13
ATOM     13  N   UNL     1      -5.746  -1.746   4.339  0.00  0.00    +0.060 N 
ATOM     14  O   UNL     1      -5.506  -2.931   4.340  0.00  0.00    -0.126 OA
ATOM     15  O   UNL     1      -6.035  -1.186   5.371  0.00  0.00    -0.126 OA
ENDBRANCH   9  13
BRANCH  11  16
ATOM     16  O   UNL     1      -6.172   2.428   1.874  0.00  0.00    -0.491 OA
ATOM     17  C   UNL     1      -6.093   3.099   0.615  0.00  0.00    +0.277 C 
ENDBRANCH  11  16
BRANCH  10  18
ATOM     18  O   UNL     1      -6.286   1.009   4.232  0.00  0.00    -0.502 OA
ATOM     19  H   UNL     1      -5.527   1.365   4.713  0.00  0.00    +0.292 HD
ENDBRANCH  10  18
ENDBRANCH   6   7
BRANCH   1  20
ATOM     20  C   UNL     1      -2.431  -1.381  -0.507  0.00  0.00    +0.337 C 
ATOM     21  O   UNL     1      -1.317  -1.859  -0.398  0.00  0.00    -0.245 OA
BRANCH  20  22
ATOM     22  O   UNL     1      -2.580  -0.052  -0.693  0.00  0.00    -0.462 OA
BRANCH  22  24
ATOM     23  C   UNL     1      -1.754   2.202  -0.968  0.00  0.00    +0.048 C 
ATOM     24  C   UNL     1      -1.387   0.732  -0.754  0.00  0.00    +0.229 C 
ENDBRANCH  22  24
ENDBRANCH  20  22
ENDBRANCH   1  20
BRANCH   5  25
ATOM     25  C   UNL     1      -7.226  -2.291  -1.372  0.00  0.00    +0.337 C 
ATOM     26  O   UNL     1      -8.066  -3.139  -1.611  0.00  0.00    -0.245 OA
BRANCH  25  27
ATOM     27  O   UNL     1      -7.503  -0.988  -1.587  0.00  0.00    -0.462 OA
BRANCH  27  28
ATOM     28  C   UNL     1      -8.802  -0.676  -2.097  0.00  0.00    +0.229 C 
ATOM     29  C   UNL     1      -8.929   0.838  -2.275  0.00  0.00    +0.048 C 
ENDBRANCH  27  28
ENDBRANCH  25  27
ENDBRANCH   5  25
BRANCH   3  30
ATOM     30  C   UNL     1      -4.335  -5.712   0.401  0.00  0.00    +0.105 C 
ATOM     31  C   UNL     1      -4.834  -6.761  -0.595  0.00  0.00    +0.033 C 
BRANCH  30  32
ATOM     32  C   UNL     1      -5.143  -5.800   1.670  0.00  0.00    -0.027 A 
ATOM     33  C   UNL     1      -6.466  -5.401   1.675  0.00  0.00    +0.005 A 
ATOM     34  C   UNL     1      -7.207  -5.481   2.840  0.00  0.00    +0.000 A 
ATOM     35  C   UNL     1      -6.625  -5.961   3.998  0.00  0.00    +0.000 A 
ATOM     36  C   UNL     1      -5.302  -6.361   3.992  0.00  0.00    +0.000 A 
ATOM     37  C   UNL     1      -4.562  -6.285   2.827  0.00  0.00    +0.005 A 
ENDBRANCH  30  32
ENDBRANCH   3  30
TORSDOF 12
