REMARK  Name = ZINC09659688
REMARK  6 active torsions:
REMARK  status: ('A' for Active; 'I' for Inactive)
REMARK    1  A    between atoms: C_1  and  C_2
REMARK    2  A    between atoms: C_7  and  N_8
REMARK    3  A    between atoms: C_9  and  C_11
REMARK    4  A    between atoms: N_13  and  C_30
REMARK    5  A    between atoms: N_20  and  C_23
REMARK    6  A    between atoms: C_23  and  C_24
REMARK                            x       y       z     vdW  Elec       q    Type
REMARK                         _______ _______ _______ _____ _____    ______ ____
ROOT
ATOM      1  C   UNL     1       2.543   1.298  -0.000  0.00  0.00    +0.079 A 
ATOM      2  C   UNL     1       3.286   2.464   0.007  0.00  0.00    +0.101 A 
ATOM      3  N   UNL     1       2.448   3.514   0.030  0.00  0.00    -0.344 N 
ATOM      4  C   UNL     1       1.145   3.060   0.037  0.00  0.00    +0.132 A 
ATOM      5  C   UNL     1       1.178   1.674   0.019  0.00  0.00    +0.086 A 
ATOM      6  N   UNL     1      -0.011   0.967   0.022  0.00  0.00    -0.305 N 
ATOM      7  H   UNL     1       0.002  -0.003   0.009  0.00  0.00    +0.170 HD
ATOM      8  C   UNL     1      -1.186   1.624   0.038  0.00  0.00    +0.330 A 
ATOM      9  O   UNL     1      -2.223   0.988   0.035  0.00  0.00    -0.246 OA
ATOM     10  N   UNL     1      -1.239   2.967   0.062  0.00  0.00    -0.255 N 
ATOM     11  C   UNL     1      -0.113   3.708   0.059  0.00  0.00    +0.281 A 
ATOM     12  O   UNL     1      -0.178   4.925   0.075  0.00  0.00    -0.265 OA
ATOM     13  C   UNL     1       2.854   4.922   0.044  0.00  0.00    +0.149 C 
ENDROOT
BRANCH   1  15
ATOM     14  N   UNL     1       4.404  -0.284  -0.040  0.00  0.00    -0.281 N 
ATOM     15  C   UNL     1       3.072  -0.075  -0.023  0.00  0.00    +0.252 C 
ATOM     16  O   UNL     1       2.308  -1.021  -0.027  0.00  0.00    -0.270 OA
ATOM     17  H   UNL     1       5.012   0.468  -0.117  0.00  0.00    +0.155 HD
BRANCH  14  24
ATOM     18  C   UNL     1       6.989  -0.803  -1.109  0.00  0.00    +0.045 C 
ATOM     19  C   UNL     1       6.166  -1.882  -0.454  0.00  0.00    -0.029 A 
ATOM     20  C   UNL     1       6.661  -3.168  -0.359  0.00  0.00    +0.005 A 
ATOM     21  C   UNL     1       5.907  -4.159   0.242  0.00  0.00    +0.000 A 
ATOM     22  C   UNL     1       4.654  -3.866   0.751  0.00  0.00    +0.002 A 
ATOM     23  C   UNL     1       4.155  -2.581   0.663  0.00  0.00    +0.023 A 
ATOM     24  C   UNL     1       4.908  -1.585   0.055  0.00  0.00    +0.037 A 
ENDBRANCH  14  24
ENDBRANCH   1  15
BRANCH  10  25
ATOM     25  C   UNL     1      -2.542   3.636   0.084  0.00  0.00    +0.165 C 
BRANCH  25  26
ATOM     26  C   UNL     1      -3.004   3.883  -1.329  0.00  0.00    -0.028 A 
ATOM     27  C   UNL     1      -2.673   5.064  -1.967  0.00  0.00    +0.005 A 
ATOM     28  C   UNL     1      -3.093   5.289  -3.265  0.00  0.00    +0.000 A 
ATOM     29  C   UNL     1      -3.852   4.338  -3.921  0.00  0.00    +0.000 A 
ATOM     30  C   UNL     1      -4.186   3.159  -3.281  0.00  0.00    +0.000 A 
ATOM     31  C   UNL     1      -3.763   2.932  -1.985  0.00  0.00    +0.005 A 
ENDBRANCH  25  26
ENDBRANCH  10  25
TORSDOF 4
