REMARK  Name = ZINC41006852
REMARK  11 active torsions:
REMARK  status: ('A' for Active; 'I' for Inactive)
REMARK    1  A    between atoms: C_1  and  C_2
REMARK    2  A    between atoms: C_2  and  O_40
REMARK    3  A    between atoms: C_6  and  C_31
REMARK    4  A    between atoms: C_8  and  C_21
REMARK    5  A    between atoms: C_10  and  C_12
REMARK    6  A    between atoms: N_14  and  C_15
REMARK    7  A    between atoms: C_24  and  C_27
REMARK    8  A    between atoms: C_27  and  C_28
REMARK    9  A    between atoms: C_27  and  C_29
REMARK   10  A    between atoms: C_27  and  C_30
REMARK   11  A    between atoms: N_33  and  C_34
REMARK                            x       y       z     vdW  Elec       q    Type
REMARK                         _______ _______ _______ _____ _____    ______ ____
ROOT
ATOM      1  C   UNL     1      -1.035   0.819   0.008  0.00  0.00    +0.042 C 
ATOM      2  C   UNL     1      -0.391  -0.569  -0.008  0.00  0.00    +0.082 C 
ATOM      3  C   UNL     1      -1.486  -1.640  -0.022  0.00  0.00    +0.110 C 
ATOM      4  C   UNL     1      -0.832  -2.998   0.098  0.00  0.00    +0.148 C 
ATOM      5  O   UNL     1      -1.092  -3.882  -0.683  0.00  0.00    -0.296 OA
ATOM      6  C   UNL     1       0.156  -3.222   1.222  0.00  0.00    +0.149 C 
ATOM      7  C   UNL     1       1.192  -2.093   1.191  0.00  0.00    +0.053 C 
ATOM      8  C   UNL     1       0.474  -0.743   1.241  0.00  0.00    +0.115 C 
ENDROOT
BRANCH   7   9
ATOM      9  C   UNL     1       2.110  -2.220   2.379  0.00  0.00    -0.042 A 
ATOM     10  C   UNL     1       1.610  -2.059   3.658  0.00  0.00    +0.004 A 
ATOM     11  C   UNL     1       2.452  -2.175   4.749  0.00  0.00    +0.004 A 
ATOM     12  C   UNL     1       3.793  -2.453   4.560  0.00  0.00    -0.042 A 
ATOM     13  C   UNL     1       4.292  -2.615   3.281  0.00  0.00    +0.004 A 
ATOM     14  C   UNL     1       3.450  -2.503   2.191  0.00  0.00    +0.004 A 
BRANCH  12  15
ATOM     15  C   UNL     1       4.710  -2.579   5.749  0.00  0.00    -0.013 C 
ATOM     16  C   UNL     1       4.221  -3.713   6.653  0.00  0.00    +0.015 C 
ATOM     17  C   UNL     1       6.130  -2.887   5.267  0.00  0.00    +0.015 C 
ATOM     18  C   UNL     1       4.712  -1.266   6.534  0.00  0.00    +0.015 C 
ENDBRANCH  12  15
ENDBRANCH   7   9
BRANCH   8  19
ATOM     19  C   UNL     1      -0.399  -0.686   2.468  0.00  0.00    +0.224 C 
ATOM     20  O   UNL     1      -1.556  -1.043   2.406  0.00  0.00    -0.275 OA
ATOM     21  N   UNL     1       0.106  -0.238   3.635  0.00  0.00    -0.285 N 
ATOM     22  H   UNL     1       1.038   0.025   3.691  0.00  0.00    +0.155 HD
BRANCH  21  23
ATOM     23  C   UNL     1      -0.714  -0.153   4.765  0.00  0.00    +0.033 A 
ATOM     24  C   UNL     1      -2.042  -0.555   4.694  0.00  0.00    +0.023 A 
ATOM     25  C   UNL     1      -2.848  -0.470   5.812  0.00  0.00    +0.002 A 
ATOM     26  C   UNL     1      -2.335   0.014   7.001  0.00  0.00    +0.000 A 
ATOM     27  C   UNL     1      -1.014   0.415   7.076  0.00  0.00    +0.002 A 
ATOM     28  C   UNL     1      -0.200   0.327   5.963  0.00  0.00    +0.023 A 
ENDBRANCH  21  23
ENDBRANCH   8  19
BRANCH   6  29
ATOM     29  C   UNL     1      -0.569  -3.212   2.543  0.00  0.00    +0.228 C 
ATOM     30  O   UNL     1       0.044  -3.405   3.572  0.00  0.00    -0.275 OA
ATOM     31  N   UNL     1      -1.897  -2.991   2.581  0.00  0.00    -0.285 N 
ATOM     32  H   UNL     1      -2.385  -2.824   1.759  0.00  0.00    +0.155 HD
BRANCH  31  33
ATOM     33  C   UNL     1      -2.573  -3.000   3.806  0.00  0.00    +0.033 A 
ATOM     34  C   UNL     1      -1.865  -3.153   4.991  0.00  0.00    +0.023 A 
ATOM     35  C   UNL     1      -2.535  -3.162   6.198  0.00  0.00    +0.002 A 
ATOM     36  C   UNL     1      -3.910  -3.019   6.229  0.00  0.00    +0.000 A 
ATOM     37  C   UNL     1      -4.619  -2.867   5.051  0.00  0.00    +0.002 A 
ATOM     38  C   UNL     1      -3.954  -2.851   3.840  0.00  0.00    +0.023 A 
ENDBRANCH  31  33
ENDBRANCH   6  29
BRANCH   2  39
ATOM     39  O   UNL     1       0.423  -0.704  -1.174  0.00  0.00    -0.388 OA
ATOM     40  H   UNL     1      -0.061  -0.605  -2.005  0.00  0.00    +0.210 HD
ENDBRANCH   2  39
TORSDOF 7
