REMARK  Name = ZINC25920038
REMARK  10 active torsions:
REMARK  status: ('A' for Active; 'I' for Inactive)
REMARK    1  A    between atoms: C_1  and  C_2
REMARK    2  A    between atoms: C_2  and  C_3
REMARK    3  A    between atoms: C_2  and  N_4
REMARK    4  A    between atoms: C_5  and  C_7
REMARK    5  A    between atoms: C_12  and  N_13
REMARK    6  A    between atoms: C_14  and  C_16
REMARK    7  A    between atoms: C_16  and  N_17
REMARK    8  A    between atoms: N_17  and  C_18
REMARK    9  A    between atoms: N_17  and  C_19
REMARK   10  A    between atoms: C_19  and  C_20
REMARK                            x       y       z     vdW  Elec       q    Type
REMARK                         _______ _______ _______ _____ _____    ______ ____
ROOT
ATOM      1  N   UNL     1       6.501  -3.122  -3.242  0.00  0.00    -0.286 N 
ATOM      2  C   UNL     1       5.499  -2.273  -2.938  0.00  0.00    +0.201 C 
ATOM      3  O   UNL     1       4.793  -1.829  -3.819  0.00  0.00    -0.278 OA
ATOM      4  H   UNL     1       7.198  -3.453  -2.458  0.00  0.00    +0.155 HD
ENDROOT
BRANCH   1  10
ATOM      5  C   UNL     1       7.912  -4.005  -5.003  0.00  0.00    +0.058 A 
ATOM      6  C   UNL     1       8.053  -4.461  -6.316  0.00  0.00    +0.015 A 
ATOM      7  C   UNL     1       6.959  -4.492  -7.154  0.00  0.00    +0.001 A 
ATOM      8  C   UNL     1       5.719  -4.071  -6.702  0.00  0.00    +0.002 A 
ATOM      9  C   UNL     1       5.563  -3.622  -5.405  0.00  0.00    +0.024 A 
ATOM     10  C   UNL     1       6.655  -3.579  -4.548  0.00  0.00    +0.045 A 
BRANCH   5  12
ATOM     11  N   UNL     1      10.302  -4.284  -4.569  0.00  0.00    -0.309 N 
ATOM     12  C   UNL     1       9.078  -3.970  -4.100  0.00  0.00    +0.246 C 
ATOM     13  O   UNL     1       8.935  -3.659  -2.934  0.00  0.00    -0.270 OA
ATOM     14  H   UNL     1      10.432  -4.566  -5.624  0.00  0.00    +0.149 HD
BRANCH  11  16
ATOM     15  C   UNL     1      12.544  -5.191  -4.202  0.00  0.00    +0.027 C 
ATOM     16  C   UNL     1      11.460  -4.250  -3.672  0.00  0.00    +0.067 C 
ATOM     17  C   UNL     1      12.012  -2.824  -3.606  0.00  0.00    +0.027 C 
ENDBRANCH  11  16
ENDBRANCH   5  12
ENDBRANCH   1  10
BRANCH   2  18
ATOM     18  C   UNL     1       5.256  -1.876  -1.505  0.00  0.00    +0.019 C 
BRANCH  18  19
ATOM     19  N   UNL     1       4.117  -0.950  -1.440  0.00  0.00    +0.386 N 
ATOM     20  C   UNL     1       4.433   0.321  -2.106  0.00  0.00    -0.095 C 
ATOM     21  H   UNL     1       3.275  -1.413  -1.976  0.00  0.00    -0.081 HD
BRANCH  19  22
ATOM     22  C   UNL     1       3.700  -0.726  -0.050  0.00  0.00    -0.043 C 
BRANCH  22  23
ATOM     23  C   UNL     1       2.392   0.022  -0.032  0.00  0.00    -0.060 A 
ATOM     24  C   UNL     1       1.198  -0.675  -0.035  0.00  0.00    +0.005 A 
ATOM     25  C   UNL     1      -0.004   0.008  -0.021  0.00  0.00    +0.049 A 
ATOM     26  C   UNL     1      -0.015   1.395  -0.003  0.00  0.00    +0.162 A 
ATOM     27  C   UNL     1       1.186   2.095   0.004  0.00  0.00    +0.162 A 
ATOM     28  C   UNL     1       2.388   1.404  -0.013  0.00  0.00    +0.051 A 
ATOM     29  O   UNL     1       1.198   3.456   0.030  0.00  0.00    -0.485 OA
ATOM     30  C   UNL     1      -0.019   4.117  -0.332  0.00  0.00    +0.270 C 
ATOM     31  C   UNL     1      -1.178   3.429   0.402  0.00  0.00    +0.270 C 
ATOM     32  O   UNL     1      -1.206   2.053   0.003  0.00  0.00    -0.485 OA
ENDBRANCH  22  23
ENDBRANCH  19  22
ENDBRANCH  18  19
ENDBRANCH   2  18
TORSDOF 7
