REMARK  Name = ZINC08711533
REMARK  5 active torsions:
REMARK  status: ('A' for Active; 'I' for Inactive)
REMARK    1  A    between atoms: C_3  and  N_29
REMARK    2  A    between atoms: C_6  and  C_7
REMARK    3  A    between atoms: C_13  and  C_24
REMARK    4  A    between atoms: C_13  and  O_28
REMARK    5  A    between atoms: C_15  and  C_17
REMARK                            x       y       z     vdW  Elec       q    Type
REMARK                         _______ _______ _______ _____ _____    ______ ____
ROOT
ATOM      1  C   UNL     1       3.790   9.954   0.015  0.00  0.00    +0.080 A 
ATOM      2  C   UNL     1       3.142  11.279   0.029  0.00  0.00    +0.077 A 
ATOM      3  S   UNL     1       1.463  10.834   0.044  0.00  0.00    -0.058 S 
ATOM      4  C   UNL     1       1.677   9.062   0.033  0.00  0.00    +0.184 A 
ATOM      5  N   UNL     1       3.005   8.917   0.024  0.00  0.00    -0.223 NA
ATOM      6  N   UNL     1       0.734   8.108   0.038  0.00  0.00    -0.160 N 
ATOM      7  C   UNL     1      -0.715   8.363   0.054  0.00  0.00    +0.256 C 
ATOM      8  C   UNL     1      -1.320   6.942   0.045  0.00  0.00    +0.124 C 
ATOM      9  C   UNL     1      -0.080   6.068   0.035  0.00  0.00    +0.071 C 
ATOM     10  N   UNL     1       0.971   6.853   0.029  0.00  0.00    -0.179 NA
ENDROOT
BRANCH   9  11
ATOM     11  C   UNL     1      -0.061   4.650   0.027  0.00  0.00    -0.002 A 
ATOM     12  C   UNL     1       1.164   3.958   0.012  0.00  0.00    +0.011 A 
ATOM     13  C   UNL     1       1.172   2.592   0.005  0.00  0.00    +0.016 A 
ATOM     14  C   UNL     1      -0.024   1.887   0.012  0.00  0.00    +0.018 A 
ATOM     15  C   UNL     1      -1.238   2.560   0.022  0.00  0.00    +0.016 A 
ATOM     16  C   UNL     1      -1.267   3.925   0.035  0.00  0.00    +0.011 A 
ATOM     17 BR   UNL     1       0.002  -0.004   0.002  0.00  0.00    -0.050 Br
ENDBRANCH   9  11
BRANCH   1  23
ATOM     18  C   UNL     1       5.840   8.544  -0.113  0.00  0.00    +0.012 A 
ATOM     19  C   UNL     1       7.213   8.420  -0.135  0.00  0.00    +0.033 A 
ATOM     20  C   UNL     1       8.015   9.545  -0.032  0.00  0.00    +0.126 A 
ATOM     21  C   UNL     1       7.446  10.803   0.085  0.00  0.00    +0.033 A 
ATOM     22  C   UNL     1       6.075  10.944   0.101  0.00  0.00    +0.012 A 
ATOM     23  C   UNL     1       5.257   9.812  -0.001  0.00  0.00    +0.001 A 
BRANCH  20  24
ATOM     24  N   UNL     1       9.488   9.402  -0.049  0.00  0.00    +0.056 N 
ATOM     25  O   UNL     1      10.254  10.469   0.047  0.00  0.00    -0.126 OA
ATOM     26  O   UNL     1      10.033   8.209  -0.161  0.00  0.00    -0.126 OA
ENDBRANCH  20  24
ENDBRANCH   1  23
BRANCH   7  27
ATOM     27  C   UNL     1      -1.116   9.121   1.321  0.00  0.00    +0.438 C 
ATOM     28  F   UNL     1      -0.466  10.359   1.350  0.00  0.00    -0.166 F 
ATOM     29  F   UNL     1      -2.501   9.321   1.325  0.00  0.00    -0.166 F 
ATOM     30  F   UNL     1      -0.749   8.375   2.446  0.00  0.00    -0.166 F 
ENDBRANCH   7  27
BRANCH   7  31
ATOM     31  O   UNL     1      -1.113   9.083  -1.115  0.00  0.00    -0.363 OA
ATOM     32  H   UNL     1      -0.701   9.954  -1.200  0.00  0.00    +0.212 HD
ENDBRANCH   7  31
TORSDOF 5
