REMARK  Name = ZINC11681022
REMARK  4 active torsions:
REMARK  status: ('A' for Active; 'I' for Inactive)
REMARK    1  A    between atoms: C_15  and  C_16
REMARK    2  A    between atoms: C_15  and  N_71
REMARK    3  A    between atoms: C_22  and  C_24
REMARK    4  A    between atoms: C_24  and  N_25
REMARK                            x       y       z     vdW  Elec       q    Type
REMARK                         _______ _______ _______ _____ _____    ______ ____
ROOT
ATOM      1  C   UNL     1       1.542  -1.827  -0.406  0.00  0.00    -0.023 C 
ATOM      2  C   UNL     1       0.999  -1.086   0.818  0.00  0.00    +0.002 C 
ATOM      3  C   UNL     1       1.917   0.093   1.148  0.00  0.00    +0.000 C 
ATOM      4  C   UNL     1       3.325  -0.424   1.448  0.00  0.00    +0.000 C 
ATOM      5  C   UNL     1       3.867  -1.166   0.225  0.00  0.00    +0.005 C 
ATOM      6  C   UNL     1       2.950  -2.345  -0.106  0.00  0.00    +0.008 C 
ENDROOT
BRANCH   1   7
ATOM      7  C   UNL     1       0.625  -3.006  -0.736  0.00  0.00    -0.075 C 
BRANCH   7  22
ATOM      8  C   UNL     1      -1.834  -6.080  -7.887  0.00  0.00    +0.001 A 
ATOM      9  C   UNL     1      -1.204  -6.683  -8.969  0.00  0.00    +0.001 A 
ATOM     10  C   UNL     1       0.155  -6.853  -8.958  0.00  0.00    +0.017 A 
ATOM     11  C   UNL     1       0.884  -6.423  -7.869  0.00  0.00    +0.041 A 
ATOM     12  C   UNL     1       0.270  -5.812  -6.752  0.00  0.00    +0.031 A 
ATOM     13  C   UNL     1      -1.132  -5.649  -6.804  0.00  0.00    +0.012 A 
ATOM     14  C   UNL     1       1.224  -5.433  -5.721  0.00  0.00    +0.138 A 
ATOM     15  N   UNL     1       2.491  -5.679  -5.892  0.00  0.00    -0.194 NA
ATOM     16  S   UNL     1       2.599  -6.429  -7.422  0.00  0.00    +0.014 S 
ATOM     17  N   UNL     1       0.782  -4.813  -4.552  0.00  0.00    -0.318 N 
ATOM     18  C   UNL     1       1.038  -5.659  -3.378  0.00  0.00    +0.088 C 
ATOM     19  C   UNL     1       0.469  -4.981  -2.129  0.00  0.00    -0.060 C 
ATOM     20  C   UNL     1       0.834  -2.812  -3.141  0.00  0.00    -0.060 C 
ATOM     21  C   UNL     1       1.403  -3.490  -4.389  0.00  0.00    +0.088 C 
ATOM     22  N   UNL     1       1.117  -3.663  -1.966  0.00  0.00    +0.382 N 
ATOM     23  H   UNL     1       2.132  -3.797  -1.888  0.00  0.00    -0.082 HD
ENDBRANCH   7  22
ENDBRANCH   1   7
BRANCH   6  24
ATOM     24  C   UNL     1       2.898  -3.300   1.088  0.00  0.00    +0.120 C 
BRANCH  24  25
ATOM     25  N   UNL     1       4.214  -3.915   1.279  0.00  0.00    -0.241 N 
ATOM     26  C   UNL     1       4.610  -5.001   0.605  0.00  0.00    +0.226 C 
ATOM     27  O   UNL     1       3.948  -5.593  -0.221  0.00  0.00    -0.275 OA
ATOM     28  C   UNL     1       6.010  -5.377   1.033  0.00  0.00    +0.091 C 
ATOM     29  C   UNL     1       5.937  -6.706   1.843  0.00  0.00    +0.002 C 
ATOM     30  C   UNL     1       4.648  -6.567   2.710  0.00  0.00    +0.004 C 
ATOM     31  C   UNL     1       5.025  -5.509   3.772  0.00  0.00    +0.004 C 
ATOM     32  C   UNL     1       6.486  -5.086   3.430  0.00  0.00    +0.002 C 
ATOM     33  C   UNL     1       7.070  -6.447   2.913  0.00  0.00    +0.008 C 
ATOM     34  C   UNL     1       6.362  -4.295   2.094  0.00  0.00    +0.091 C 
ATOM     35  C   UNL     1       5.120  -3.433   2.137  0.00  0.00    +0.226 C 
ATOM     36  O   UNL     1       4.968  -2.459   2.842  0.00  0.00    -0.275 OA
ENDBRANCH  24  25
ENDBRANCH   6  24
TORSDOF 4
