REMARK  Name = ZINC38873222
REMARK  11 active torsions:
REMARK  status: ('A' for Active; 'I' for Inactive)
REMARK    1  A    between atoms: C_1  and  C_2
REMARK    2  A    between atoms: C_2  and  C_3
REMARK    3  A    between atoms: C_2  and  C_4
REMARK    4  A    between atoms: C_7  and  O_10
REMARK    5  A    between atoms: O_10  and  C_11
REMARK    6  A    between atoms: C_11  and  C_12
REMARK    7  A    between atoms: C_12  and  N_14
REMARK    8  A    between atoms: N_16  and  C_28
REMARK    9  A    between atoms: C_20  and  S_24
REMARK   10  A    between atoms: S_24  and  N_27
REMARK   11  A    between atoms: C_28  and  C_29
REMARK                            x       y       z     vdW  Elec       q    Type
REMARK                         _______ _______ _______ _____ _____    ______ ____
ROOT
ATOM      1  N   UNL     1       2.326  -3.911   7.513  0.00  0.00    -0.153 NA
ATOM      2  C   UNL     1       3.011  -4.270   8.597  0.00  0.00    +0.167 A 
ATOM      3  N   UNL     1       4.244  -3.851   8.979  0.00  0.00    -0.317 N 
ATOM      4  C   UNL     1       4.804  -4.335  10.146  0.00  0.00    +0.058 A 
ATOM      5  C   UNL     1       6.048  -4.040  10.720  0.00  0.00    +0.029 A 
ATOM      6  C   UNL     1       6.433  -4.631  11.901  0.00  0.00    +0.030 A 
ATOM      7  C   UNL     1       5.607  -5.531  12.554  0.00  0.00    +0.106 A 
ATOM      8  C   UNL     1       4.373  -5.839  12.009  0.00  0.00    +0.045 A 
ATOM      9  C   UNL     1       3.988  -5.249  10.829  0.00  0.00    +0.041 A 
ATOM     10  S   UNL     1       2.542  -5.340   9.805  0.00  0.00    -0.052 S 
ENDROOT
BRANCH   7  11
ATOM     11  S   UNL     1       6.123  -6.276  14.066  0.00  0.00    +0.056 S 
ATOM     12  O   UNL     1       5.396  -7.491  14.188  0.00  0.00    -0.153 OA
ATOM     13  O   UNL     1       7.543  -6.233  14.076  0.00  0.00    -0.153 OA
BRANCH  11  14
ATOM     14  N   UNL     1       5.611  -5.293  15.296  0.00  0.00    -0.204 NA
ATOM     15  H   UNL     1       5.391  -5.673  16.161  0.00  0.00    +0.144 HD
ATOM     16  H   UNL     1       5.530  -4.337  15.152  0.00  0.00    +0.144 HD
ENDBRANCH  11  14
ENDBRANCH   7  11
BRANCH   1  17
ATOM     17  C   UNL     1       2.904  -3.164   6.579  0.00  0.00    +0.276 C 
ATOM     18  O   UNL     1       2.826  -1.952   6.635  0.00  0.00    -0.270 OA
BRANCH  17  19
ATOM     19  C   UNL     1       3.657  -3.819   5.450  0.00  0.00    +0.326 C 
BRANCH  19  20
ATOM     20  O   UNL     1       4.089  -2.821   4.523  0.00  0.00    -0.483 OA
BRANCH  20  24
ATOM     21  C   UNL     1       6.211  -4.115   1.230  0.00  0.00    -0.045 A 
ATOM     22  C   UNL     1       5.948  -2.767   1.396  0.00  0.00    +0.007 A 
ATOM     23  C   UNL     1       5.238  -2.332   2.498  0.00  0.00    +0.046 A 
ATOM     24  C   UNL     1       4.787  -3.247   3.438  0.00  0.00    +0.121 A 
ATOM     25  C   UNL     1       5.052  -4.598   3.269  0.00  0.00    +0.046 A 
ATOM     26  C   UNL     1       5.758  -5.030   2.163  0.00  0.00    +0.007 A 
BRANCH  21  28
ATOM     27  C   UNL     1       6.241  -4.190  -1.248  0.00  0.00    +0.012 C 
ATOM     28  C   UNL     1       6.986  -4.587   0.028  0.00  0.00    +0.013 C 
ATOM     29  C   UNL     1       8.373  -3.942   0.029  0.00  0.00    +0.012 C 
ENDBRANCH  21  28
ENDBRANCH  20  24
ENDBRANCH  19  20
ENDBRANCH  17  19
ENDBRANCH   1  17
BRANCH   3  30
ATOM     30  C   UNL     1       4.979  -2.887   8.156  0.00  0.00    +0.151 C 
BRANCH  30  31
ATOM     31  C   UNL     1       4.559  -1.488   8.525  0.00  0.00    -0.013 C 
ATOM     32  C   UNL     1       5.460  -0.606   8.882  0.00  0.00    +0.005 C 
ENDBRANCH  30  31
ENDBRANCH   3  30
TORSDOF 9
