REMARK  Name = ZINC09030558
REMARK  7 active torsions:
REMARK  status: ('A' for Active; 'I' for Inactive)
REMARK    1  A    between atoms: C_1  and  C_2
REMARK    2  A    between atoms: C_4  and  C_35
REMARK    3  A    between atoms: C_5  and  S_9
REMARK    4  A    between atoms: C_6  and  C_8
REMARK    5  A    between atoms: S_9  and  N_12
REMARK    6  A    between atoms: C_15  and  C_24
REMARK    7  A    between atoms: C_33  and  O_34
REMARK                            x       y       z     vdW  Elec       q    Type
REMARK                         _______ _______ _______ _____ _____    ______ ____
ROOT
ATOM      1  N   UNL     1       0.278  -5.326   0.340  0.00  0.00    -0.128 NA
ATOM      2  C   UNL     1       0.119  -6.620   0.436  0.00  0.00    +0.094 C 
ATOM      3  C   UNL     1      -1.226  -7.208   0.382  0.00  0.00    +0.042 C 
ATOM      4  C   UNL     1      -1.381  -8.548   0.202  0.00  0.00    +0.036 C 
ATOM      5  C   UNL     1      -0.197  -9.422   0.059  0.00  0.00    +0.195 C 
ATOM      6  O   UNL     1      -0.319 -10.562  -0.346  0.00  0.00    -0.287 OA
ATOM      7  C   UNL     1       1.136  -8.894   0.413  0.00  0.00    +0.031 A 
ATOM      8  C   UNL     1       1.295  -7.509   0.595  0.00  0.00    +0.013 A 
ATOM      9  C   UNL     1       2.542  -6.997   0.923  0.00  0.00    +0.011 A 
ATOM     10  C   UNL     1       3.620  -7.854   1.065  0.00  0.00    +0.001 A 
ATOM     11  C   UNL     1       3.465  -9.216   0.881  0.00  0.00    +0.001 A 
ATOM     12  C   UNL     1       2.229  -9.742   0.564  0.00  0.00    +0.012 A 
ENDROOT
BRANCH   4  13
ATOM     13  C   UNL     1      -2.735  -9.130   0.150  0.00  0.00    +0.035 A 
ATOM     14  C   UNL     1      -3.397  -9.589   1.368  0.00  0.00    -0.007 A 
ATOM     15  C   UNL     1      -2.775  -9.493   2.619  0.00  0.00    +0.009 A 
ATOM     16  C   UNL     1      -3.428  -9.933   3.732  0.00  0.00    +0.001 A 
ATOM     17  C   UNL     1      -4.707 -10.477   3.643  0.00  0.00    +0.001 A 
ATOM     18  C   UNL     1      -5.341 -10.586   2.442  0.00  0.00    +0.008 A 
ATOM     19  C   UNL     1      -4.698 -10.142   1.274  0.00  0.00    -0.017 A 
ATOM     20  C   UNL     1      -5.321 -10.237   0.017  0.00  0.00    +0.012 A 
ATOM     21  C   UNL     1      -4.691  -9.806  -1.107  0.00  0.00    +0.046 A 
ATOM     22  C   UNL     1      -3.413  -9.248  -1.064  0.00  0.00    +0.125 A 
BRANCH  22  23
ATOM     23  O   UNL     1      -2.823  -8.825  -2.210  0.00  0.00    -0.506 OA
ATOM     24  H   UNL     1      -2.303  -9.504  -2.659  0.00  0.00    +0.292 HD
ENDBRANCH  22  23
ENDBRANCH   4  13
BRANCH   1  25
ATOM     25  S   UNL     1      -1.041  -4.341   0.164  0.00  0.00    +0.100 S 
ATOM     26  O   UNL     1      -1.784  -4.436   1.371  0.00  0.00    -0.146 OA
ATOM     27  O   UNL     1      -1.606  -4.642  -1.105  0.00  0.00    -0.146 OA
BRANCH  25  32
ATOM     28  C   UNL     1       1.002   1.328  -0.161  0.00  0.00    +0.044 C 
ATOM     29  C   UNL     1       0.492  -0.088  -0.080  0.00  0.00    -0.050 A 
ATOM     30  C   UNL     1       0.150  -0.631   1.145  0.00  0.00    +0.008 A 
ATOM     31  C   UNL     1      -0.318  -1.929   1.219  0.00  0.00    -0.023 A 
ATOM     32  C   UNL     1      -0.445  -2.685   0.069  0.00  0.00    +0.118 A 
ATOM     33  C   UNL     1      -0.104  -2.142  -1.156  0.00  0.00    -0.023 A 
ATOM     34  C   UNL     1       0.360  -0.842  -1.231  0.00  0.00    +0.008 A 
ATOM     35  C   UNL     1      -0.242  -2.966  -2.410  0.00  0.00    +0.046 C 
ATOM     36  C   UNL     1      -0.690  -2.521   2.554  0.00  0.00    +0.046 C 
ENDBRANCH  25  32
ENDBRANCH   1  25
TORSDOF 4
