REMARK  Name = ZINC60368984
REMARK  7 active torsions:
REMARK  status: ('A' for Active; 'I' for Inactive)
REMARK    1  A    between atoms: C_1  and  C_2
REMARK    2  A    between atoms: C_12  and  C_16
REMARK    3  A    between atoms: N_18  and  N_19
REMARK    4  A    between atoms: N_19  and  C_20
REMARK    5  A    between atoms: C_23  and  S_26
REMARK    6  A    between atoms: S_26  and  N_29
REMARK    7  A    between atoms: N_29  and  C_30
REMARK                            x       y       z     vdW  Elec       q    Type
REMARK                         _______ _______ _______ _____ _____    ______ ____
ROOT
ATOM      1  C   UNL     1       1.881  -6.686   1.479  0.00  0.00    +0.262 C 
ATOM      2  O   UNL     1       1.674  -6.776   0.284  0.00  0.00    -0.269 OA
ATOM      3  N   UNL     1       2.208  -7.782   2.191  0.00  0.00    -0.232 N 
ATOM      4  H   UNL     1       2.373  -7.710   3.144  0.00  0.00    +0.173 HD
ENDROOT
BRANCH   1  15
ATOM      5  C   UNL     1      -0.019   1.526   0.010  0.00  0.00    +0.008 C 
ATOM      6  C   UNL     1       0.002  -0.004   0.002  0.00  0.00    -0.009 C 
ATOM      7  C   UNL     1       0.720  -0.498  -1.257  0.00  0.00    +0.009 C 
ATOM      8  C   UNL     1       0.525  -2.013  -1.393  0.00  0.00    +0.054 C 
ATOM      9  C   UNL     1       0.882  -2.665  -0.079  0.00  0.00    +0.020 A 
ATOM     10  C   UNL     1       0.979  -1.994   1.089  0.00  0.00    -0.019 A 
ATOM     11  C   UNL     1       1.339  -2.962   2.106  0.00  0.00    +0.004 A 
ATOM     12  C   UNL     1       1.574  -2.851   3.479  0.00  0.00    +0.010 A 
ATOM     13  C   UNL     1       1.906  -4.012   4.158  0.00  0.00    +0.001 A 
ATOM     14  C   UNL     1       2.004  -5.233   3.522  0.00  0.00    +0.015 A 
ATOM     15  C   UNL     1       1.773  -5.376   2.149  0.00  0.00    +0.062 A 
ATOM     16  C   UNL     1       1.435  -4.209   1.439  0.00  0.00    +0.059 A 
ATOM     17  N   UNL     1       1.153  -3.993   0.127  0.00  0.00    -0.357 N 
ATOM     18  H   UNL     1       1.145  -4.676  -0.562  0.00  0.00    +0.166 HD
ATOM     19  C   UNL     1       0.745  -0.513   1.243  0.00  0.00    +0.040 C 
ENDBRANCH   1  15
BRANCH   3  20
ATOM     20  N   UNL     1       2.310  -9.026   1.555  0.00  0.00    -0.264 N 
ATOM     21  H   UNL     1       2.145  -9.098   0.602  0.00  0.00    +0.170 HD
BRANCH  20  22
ATOM     22  C   UNL     1       2.649 -10.162   2.293  0.00  0.00    +0.045 A 
ATOM     23  C   UNL     1       2.879 -10.062   3.659  0.00  0.00    +0.026 A 
ATOM     24  C   UNL     1       3.214 -11.188   4.386  0.00  0.00    +0.030 A 
ATOM     25  C   UNL     1       3.320 -12.414   3.755  0.00  0.00    +0.105 A 
ATOM     26  C   UNL     1       3.091 -12.517   2.395  0.00  0.00    +0.030 A 
ATOM     27  C   UNL     1       2.750 -11.396   1.663  0.00  0.00    +0.026 A 
BRANCH  25  28
ATOM     28  S   UNL     1       3.748 -13.847   4.686  0.00  0.00    +0.059 S 
ATOM     29  O   UNL     1       4.316 -14.772   3.769  0.00  0.00    -0.153 OA
ATOM     30  O   UNL     1       4.445 -13.390   5.837  0.00  0.00    -0.153 OA
BRANCH  28  31
ATOM     31  N   UNL     1       2.335 -14.521   5.224  0.00  0.00    -0.187 NA
ATOM     32  H   UNL     1       2.144 -14.554   6.175  0.00  0.00    +0.148 HD
BRANCH  31  33
ATOM     33  C   UNL     1       1.372 -15.069   4.265  0.00  0.00    +0.077 C 
ATOM     34  C   UNL     1      -0.114 -14.950   4.609  0.00  0.00    +0.022 C 
ATOM     35  C   UNL     1       0.583 -16.310   4.686  0.00  0.00    +0.022 C 
ENDBRANCH  31  33
ENDBRANCH  28  31
ENDBRANCH  25  28
ENDBRANCH  20  22
ENDBRANCH   3  20
TORSDOF 6
