REMARK  Name = ZINC62826774
REMARK  4 active torsions:
REMARK  status: ('A' for Active; 'I' for Inactive)
REMARK    1  A    between atoms: C_1  and  C_2
REMARK    2  A    between atoms: C_7  and  C_10
REMARK    3  A    between atoms: C_12  and  C_15
REMARK    4  A    between atoms: C_20  and  N_21
REMARK                            x       y       z     vdW  Elec       q    Type
REMARK                         _______ _______ _______ _____ _____    ______ ____
ROOT
ATOM      1  C   UNL     1       1.473  -2.512   2.526  0.00  0.00    +0.175 A 
ATOM      2  N   UNL     1       2.540  -3.313   2.497  0.00  0.00    -0.191 NA
ATOM      3  C   UNL     1       2.993  -3.503   3.718  0.00  0.00    +0.260 A 
ATOM      4  O   UNL     1       2.207  -2.813   4.564  0.00  0.00    -0.333 OA
ATOM      5  N   UNL     1       1.228  -2.172   3.760  0.00  0.00    -0.061 NA
ENDROOT
BRANCH   1  11
ATOM      6  C   UNL     1      -0.031   1.438  -0.104  0.00  0.00    +0.007 C 
ATOM      7  C   UNL     1      -0.076  -0.088  -0.001  0.00  0.00    -0.013 C 
ATOM      8  C   UNL     1      -1.528  -0.547   0.145  0.00  0.00    +0.003 C 
ATOM      9  C   UNL     1      -1.572  -2.073   0.247  0.00  0.00    +0.001 C 
ATOM     10  C   UNL     1      -0.770  -2.526   1.469  0.00  0.00    +0.011 C 
ATOM     11  C   UNL     1       0.683  -2.066   1.323  0.00  0.00    +0.061 C 
ATOM     12  C   UNL     1       0.727  -0.540   1.220  0.00  0.00    +0.014 C 
ENDBRANCH   1  11
BRANCH   3  13
ATOM     13  C   UNL     1       4.157  -4.328   4.093  0.00  0.00    +0.061 A 
ATOM     14  C   UNL     1       5.360  -4.204   3.395  0.00  0.00    +0.015 A 
ATOM     15  C   UNL     1       6.444  -4.977   3.750  0.00  0.00    +0.002 A 
ATOM     16  C   UNL     1       6.347  -5.880   4.796  0.00  0.00    +0.017 A 
ATOM     17  C   UNL     1       5.164  -6.015   5.495  0.00  0.00    +0.039 A 
ATOM     18  C   UNL     1       4.063  -5.239   5.156  0.00  0.00    +0.051 A 
ATOM     19 BR   UNL     1       5.045  -7.252   6.921  0.00  0.00    -0.048 Br
BRANCH  18  20
ATOM     20  N   UNL     1       2.871  -5.368   5.863  0.00  0.00    -0.357 N 
ATOM     21  H   UNL     1       2.077  -4.899   5.563  0.00  0.00    +0.142 HD
ATOM     22  H   UNL     1       2.836  -5.926   6.655  0.00  0.00    +0.142 HD
ENDBRANCH  18  20
ENDBRANCH   3  13
TORSDOF 3
