REMARK  Name = ZINC36610430
REMARK  16 active torsions:
REMARK  status: ('A' for Active; 'I' for Inactive)
REMARK    1  A    between atoms: C_1  and  C_2
REMARK    2  A    between atoms: C_3  and  C_4
REMARK    3  A    between atoms: C_4  and  C_6
REMARK    4  A    between atoms: C_4  and  N_17
REMARK    5  A    between atoms: N_8  and  C_9
REMARK    6  A    between atoms: C_9  and  C_10
REMARK    7  A    between atoms: C_9  and  C_11
REMARK    8  A    between atoms: C_9  and  C_12
REMARK    9  A    between atoms: C_12  and  C_13
REMARK   10  A    between atoms: C_13  and  C_14
REMARK   11  A    between atoms: C_13  and  C_15
REMARK   12  A    between atoms: C_13  and  C_16
REMARK   13  A    between atoms: N_17  and  C_18
REMARK   14  A    between atoms: C_24  and  C_26
REMARK   15  A    between atoms: C_30  and  O_33
REMARK   16  A    between atoms: C_31  and  O_32
REMARK                            x       y       z     vdW  Elec       q    Type
REMARK                         _______ _______ _______ _____ _____    ______ ____
ROOT
ATOM      1  N   UNL     1      -1.314  -0.442   0.093  0.00  0.00    -0.252 N 
ATOM      2  C   UNL     1      -0.187  -0.256   0.807  0.00  0.00    +0.255 C 
ATOM      3  O   UNL     1       0.191  -1.113   1.583  0.00  0.00    -0.269 OA
ENDROOT
BRANCH   1   4
ATOM      4  C   UNL     1      -1.688   0.491  -0.880  0.00  0.00    +0.038 A 
ATOM      5  C   UNL     1      -1.558   0.181  -2.228  0.00  0.00    +0.023 A 
ATOM      6  C   UNL     1      -1.927   1.104  -3.186  0.00  0.00    +0.002 A 
ATOM      7  C   UNL     1      -2.427   2.336  -2.804  0.00  0.00    +0.000 A 
ATOM      8  C   UNL     1      -2.558   2.648  -1.463  0.00  0.00    +0.002 A 
ATOM      9  C   UNL     1      -2.195   1.726  -0.500  0.00  0.00    +0.023 A 
ENDBRANCH   1   4
BRANCH   2  10
ATOM     10  C   UNL     1       0.590   0.989   0.649  0.00  0.00    +0.082 A 
ATOM     11  C   UNL     1       0.723   1.578  -0.612  0.00  0.00    +0.017 A 
ATOM     12  C   UNL     1       1.449   2.740  -0.756  0.00  0.00    +0.005 A 
ATOM     13  C   UNL     1       2.050   3.330   0.343  0.00  0.00    +0.049 A 
ATOM     14  C   UNL     1       1.927   2.759   1.598  0.00  0.00    +0.159 A 
ATOM     15  C   UNL     1       1.192   1.589   1.761  0.00  0.00    +0.171 A 
BRANCH  15  16
ATOM     16  O   UNL     1       1.065   1.028   2.991  0.00  0.00    -0.503 OA
ATOM     17  H   UNL     1       1.760   0.391   3.207  0.00  0.00    +0.292 HD
ENDBRANCH  15  16
BRANCH  14  18
ATOM     18  O   UNL     1       2.520   3.345   2.673  0.00  0.00    -0.503 OA
ATOM     19  H   UNL     1       1.961   3.989   3.128  0.00  0.00    +0.292 HD
ENDBRANCH  14  18
ENDBRANCH   2  10
BRANCH   1  20
ATOM     20  C   UNL     1      -2.148  -1.622   0.335  0.00  0.00    +0.190 C 
BRANCH  20  21
ATOM     21  C   UNL     1      -3.480  -1.190   0.891  0.00  0.00    +0.238 C 
ATOM     22  O   UNL     1      -3.710  -0.013   1.069  0.00  0.00    -0.273 OA
ATOM     23  N   UNL     1      -4.415  -2.113   1.192  0.00  0.00    -0.308 N 
ATOM     24  H   UNL     1      -4.231  -3.055   1.051  0.00  0.00    +0.149 HD
BRANCH  23  25
ATOM     25  C   UNL     1      -5.710  -1.693   1.734  0.00  0.00    +0.030 C 
ATOM     26  C   UNL     1      -5.532  -1.227   3.180  0.00  0.00    +0.031 C 
ATOM     27  C   UNL     1      -6.266  -0.542   0.892  0.00  0.00    +0.031 C 
BRANCH  25  28
ATOM     28  C   UNL     1      -6.686  -2.871   1.694  0.00  0.00    +0.031 C 
BRANCH  28  29
ATOM     29  C   UNL     1      -6.286  -3.827   0.568  0.00  0.00    -0.036 C 
ATOM     30  C   UNL     1      -5.047  -4.620   0.988  0.00  0.00    +0.010 C 
ATOM     31  C   UNL     1      -7.438  -4.793   0.285  0.00  0.00    +0.010 C 
ATOM     32  C   UNL     1      -5.973  -3.023  -0.696  0.00  0.00    +0.010 C 
ENDBRANCH  28  29
ENDBRANCH  25  28
ENDBRANCH  23  25
ENDBRANCH  20  21
BRANCH  20  35
ATOM     33  C   UNL     1      -1.494  -4.358   0.145  0.00  0.00    +0.035 C 
ATOM     34  C   UNL     1      -2.010  -3.619  -1.063  0.00  0.00    -0.032 C 
ATOM     35  C   UNL     1      -2.361  -2.361  -0.962  0.00  0.00    +0.000 C 
ENDBRANCH  20  35
ENDBRANCH   1  20
TORSDOF 10
