REMARK  Name = ZINC15123984
REMARK  12 active torsions:
REMARK  status: ('A' for Active; 'I' for Inactive)
REMARK    1  A    between atoms: C_1  and  C_2
REMARK    2  A    between atoms: C_2  and  C_3
REMARK    3  A    between atoms: C_2  and  C_4
REMARK    4  A    between atoms: C_4  and  N_5
REMARK    5  A    between atoms: N_5  and  C_6
REMARK    6  A    between atoms: C_7  and  N_22
REMARK    7  A    between atoms: N_8  and  C_15
REMARK    8  A    between atoms: C_15  and  C_16
REMARK    9  A    between atoms: C_23  and  C_25
REMARK   10  A    between atoms: C_25  and  N_26
REMARK   11  A    between atoms: N_26  and  C_27
REMARK   12  A    between atoms: C_31  and  C_33
REMARK                            x       y       z     vdW  Elec       q    Type
REMARK                         _______ _______ _______ _____ _____    ______ ____
ROOT
ATOM      1  C   UNL     1       5.242   8.070   0.363  0.00  0.00    +0.140 A 
ATOM      2  C   UNL     1       5.666   9.203  -0.301  0.00  0.00    +0.128 A 
ATOM      3  N   UNL     1       6.969   9.619  -0.155  0.00  0.00    -0.276 N 
ATOM      4  C   UNL     1       7.823   8.924   0.618  0.00  0.00    +0.331 A 
ATOM      5  O   UNL     1       8.972   9.305   0.730  0.00  0.00    -0.246 OA
ATOM      6  N   UNL     1       7.429   7.815   1.268  0.00  0.00    -0.273 N 
ATOM      7  H   UNL     1       8.083   7.316   1.837  0.00  0.00    +0.173 HD
ATOM      8  C   UNL     1       6.162   7.367   1.163  0.00  0.00    +0.277 A 
ATOM      9  O   UNL     1       5.815   6.361   1.757  0.00  0.00    -0.266 OA
ENDROOT
BRANCH   1  10
ATOM     10  N   UNL     1       3.910   7.621   0.237  0.00  0.00    -0.263 N 
ATOM     11  C   UNL     1       3.651   6.442  -0.366  0.00  0.00    +0.237 C 
ATOM     12  O   UNL     1       2.503   6.093  -0.548  0.00  0.00    -0.274 OA
BRANCH  10  13
ATOM     13  C   UNL     1       2.810   8.434   0.761  0.00  0.00    +0.117 C 
BRANCH  13  15
ATOM     14  C   UNL     1       1.549   9.067   2.823  0.00  0.00    +0.009 C 
ATOM     15  C   UNL     1       2.624   8.140   2.251  0.00  0.00    +0.001 C 
ATOM     16  C   UNL     1       2.190   6.684   2.433  0.00  0.00    +0.009 C 
ENDBRANCH  13  15
ENDBRANCH  10  13
BRANCH  11  17
ATOM     17  C   UNL     1       4.786   5.558  -0.814  0.00  0.00    +0.198 C 
BRANCH  17  18
ATOM     18  N   UNL     1       4.247   4.318  -1.378  0.00  0.00    -0.335 N 
ATOM     19  H   UNL     1       3.288   4.179  -1.415  0.00  0.00    +0.147 HD
BRANCH  18  20
ATOM     20  C   UNL     1       5.114   3.337  -1.864  0.00  0.00    +0.029 A 
ATOM     21  C   UNL     1       6.489   3.536  -1.811  0.00  0.00    +0.023 A 
ATOM     22  C   UNL     1       7.351   2.567  -2.289  0.00  0.00    +0.003 A 
ATOM     23  C   UNL     1       6.854   1.394  -2.818  0.00  0.00    +0.019 A 
ATOM     24  C   UNL     1       5.475   1.186  -2.881  0.00  0.00    +0.054 A 
ATOM     25  C   UNL     1       4.604   2.164  -2.398  0.00  0.00    +0.041 A 
BRANCH  24  26
ATOM     26  C   UNL     1       4.955  -0.028  -3.434  0.00  0.00    +0.099 C 
ATOM     27  N   UNL     1       4.544  -0.992  -3.873  0.00  0.00    -0.191 NA
ENDBRANCH  24  26
ENDBRANCH  18  20
ENDBRANCH  17  18
ENDBRANCH  11  17
ENDBRANCH   1  10
BRANCH   2  28
ATOM     28  N   UNL     1       4.795   9.911  -1.095  0.00  0.00    -0.343 N 
ATOM     29  H   UNL     1       3.865   9.641  -1.155  0.00  0.00    +0.144 HD
ATOM     30  H   UNL     1       5.110  10.680  -1.595  0.00  0.00    +0.144 HD
ENDBRANCH   2  28
BRANCH   3  31
ATOM     31  C   UNL     1       7.431  10.823  -0.850  0.00  0.00    +0.163 C 
BRANCH  31  32
ATOM     32  C   UNL     1       7.961  10.446  -2.209  0.00  0.00    -0.028 A 
ATOM     33  C   UNL     1       9.297  10.129  -2.367  0.00  0.00    +0.005 A 
ATOM     34  C   UNL     1       9.782   9.778  -3.613  0.00  0.00    +0.000 A 
ATOM     35  C   UNL     1       8.933   9.755  -4.704  0.00  0.00    +0.000 A 
ATOM     36  C   UNL     1       7.598  10.077  -4.547  0.00  0.00    +0.000 A 
ATOM     37  C   UNL     1       7.112  10.422  -3.300  0.00  0.00    +0.005 A 
ENDBRANCH  31  32
ENDBRANCH   3  31
TORSDOF 10
