REMARK  Name = ZINC16647529
REMARK  9 active torsions:
REMARK  status: ('A' for Active; 'I' for Inactive)
REMARK    1  A    between atoms: C_1  and  C_2
REMARK    2  A    between atoms: C_2  and  C_3
REMARK    3  A    between atoms: C_3  and  C_5
REMARK    4  A    between atoms: C_3  and  C_6
REMARK    5  A    between atoms: C_6  and  N_7
REMARK    6  A    between atoms: C_8  and  C_10
REMARK    7  A    between atoms: C_10  and  N_11
REMARK    8  A    between atoms: N_13  and  C_32
REMARK    9  A    between atoms: C_22  and  C_24
REMARK                            x       y       z     vdW  Elec       q    Type
REMARK                         _______ _______ _______ _____ _____    ______ ____
ROOT
ATOM      1  N   UNL     1       4.336   7.507   2.207  0.00  0.00    -0.275 N 
ATOM      2  C   UNL     1       4.401   6.049   2.045  0.00  0.00    +0.217 C 
ATOM      3  N   UNL     1       3.909   5.764   0.677  0.00  0.00    -0.300 N 
ATOM      4  C   UNL     1       3.013   6.906   0.399  0.00  0.00    +0.115 C 
ATOM      5  C   UNL     1       3.525   8.031   1.264  0.00  0.00    +0.241 C 
ATOM      6  O   UNL     1       3.254   9.206   1.134  0.00  0.00    -0.273 OA
ATOM      7  C   UNL     1       1.579   6.550   0.782  0.00  0.00    +0.054 C 
ATOM      8  C   UNL     1       0.670   7.759   0.533  0.00  0.00    +0.110 C 
ATOM      9  N   UNL     1       0.845   8.202  -0.857  0.00  0.00    -0.297 N 
ATOM     10  C   UNL     1       2.199   8.503  -1.340  0.00  0.00    +0.110 C 
ATOM     11  C   UNL     1       3.097   7.288  -1.076  0.00  0.00    +0.054 C 
ATOM     12  C   UNL     1      -0.219   8.330  -1.675  0.00  0.00    +0.248 C 
ATOM     13  O   UNL     1      -1.343   8.163  -1.242  0.00  0.00    -0.270 OA
ENDROOT
BRANCH  12  14
ATOM     14  C   UNL     1      -0.020   8.672  -3.098  0.00  0.00    +0.055 A 
ATOM     15  C   UNL     1       1.093   8.185  -3.788  0.00  0.00    +0.016 A 
ATOM     16  C   UNL     1       1.273   8.507  -5.115  0.00  0.00    +0.021 A 
ATOM     17  C   UNL     1       0.354   9.314  -5.767  0.00  0.00    +0.042 A 
ATOM     18  C   UNL     1      -0.751   9.801  -5.091  0.00  0.00    +0.040 A 
ATOM     19  C   UNL     1      -0.946   9.481  -3.762  0.00  0.00    +0.054 A 
ATOM     20 CL   UNL     1      -2.336  10.086  -2.916  0.00  0.00    -0.083 Cl
ATOM     21 CL   UNL     1       0.590   9.715  -7.440  0.00  0.00    -0.083 Cl
ENDBRANCH  12  14
BRANCH   3  22
ATOM     22  C   UNL     1       3.208   4.556   0.639  0.00  0.00    +0.032 A 
ATOM     23  C   UNL     1       2.516   4.189  -0.508  0.00  0.00    +0.023 A 
ATOM     24  C   UNL     1       1.824   2.994  -0.542  0.00  0.00    +0.002 A 
ATOM     25  C   UNL     1       1.815   2.167   0.565  0.00  0.00    +0.000 A 
ATOM     26  C   UNL     1       2.508   2.527   1.707  0.00  0.00    +0.002 A 
ATOM     27  C   UNL     1       3.201   3.720   1.748  0.00  0.00    +0.023 A 
ENDBRANCH   3  22
BRANCH   1  28
ATOM     28  C   UNL     1       5.044   8.276   3.234  0.00  0.00    +0.205 C 
BRANCH  28  30
ATOM     29  N   UNL     1       4.623   9.063   5.541  0.00  0.00    -0.314 N 
ATOM     30  C   UNL     1       4.176   8.393   4.460  0.00  0.00    +0.230 C 
ATOM     31  O   UNL     1       3.075   7.886   4.475  0.00  0.00    -0.274 OA
ATOM     32  H   UNL     1       5.504   9.469   5.529  0.00  0.00    +0.149 HD
BRANCH  29  33
ATOM     33  C   UNL     1       3.780   9.177   6.733  0.00  0.00    +0.107 C 
BRANCH  33  34
ATOM     34  C   UNL     1       4.519   9.979   7.806  0.00  0.00    +0.003 C 
ATOM     35  C   UNL     1       5.758   9.204   8.260  0.00  0.00    +0.009 C 
BRANCH  34  37
ATOM     36  C   UNL     1       4.287  11.112  10.021  0.00  0.00    +0.004 C 
ATOM     37  C   UNL     1       3.592  10.206   9.002  0.00  0.00    +0.001 C 
ENDBRANCH  34  37
ENDBRANCH  33  34
ENDBRANCH  29  33
ENDBRANCH  28  30
ENDBRANCH   1  28
TORSDOF 7
