REMARK  Name = ZINC18152689
REMARK  8 active torsions:
REMARK  status: ('A' for Active; 'I' for Inactive)
REMARK    1  A    between atoms: C_1  and  O_2
REMARK    2  A    between atoms: O_2  and  C_3
REMARK    3  A    between atoms: C_6  and  C_10
REMARK    4  A    between atoms: C_7  and  O_9
REMARK    5  A    between atoms: C_11  and  O_16
REMARK    6  A    between atoms: O_16  and  C_17
REMARK    7  A    between atoms: C_22  and  O_23
REMARK    8  A    between atoms: O_23  and  C_24
REMARK                            x       y       z     vdW  Elec       q    Type
REMARK                         _______ _______ _______ _____ _____    ______ ____
ROOT
ATOM      1  C   UNL     1       2.244  -2.479  -4.545  0.00  0.00    +0.138 A 
ATOM      2  C   UNL     1       3.043  -1.825  -5.507  0.00  0.00    +0.174 A 
ATOM      3  C   UNL     1       3.608  -2.773  -6.291  0.00  0.00    +0.151 A 
ATOM      4  N   UNL     1       3.187  -3.986  -5.845  0.00  0.00    -0.280 N 
ATOM      5  H   UNL     1       3.433  -4.847  -6.218  0.00  0.00    +0.188 HD
ATOM      6  N   UNL     1       2.340  -3.776  -4.749  0.00  0.00    -0.170 NA
ENDROOT
BRANCH   1  10
ATOM      7  C   UNL     1      -0.055  -0.589  -1.502  0.00  0.00    +0.124 A 
ATOM      8  C   UNL     1       0.685   0.178  -2.392  0.00  0.00    +0.046 A 
ATOM      9  C   UNL     1       1.431  -0.431  -3.379  0.00  0.00    +0.017 A 
ATOM     10  C   UNL     1       1.443  -1.821  -3.484  0.00  0.00    +0.047 A 
ATOM     11  C   UNL     1       0.698  -2.593  -2.588  0.00  0.00    +0.130 A 
ATOM     12  C   UNL     1      -0.044  -1.972  -1.597  0.00  0.00    +0.091 A 
BRANCH   7  14
ATOM     13  C   UNL     1      -0.754   1.446  -0.490  0.00  0.00    +0.277 C 
ATOM     14  O   UNL     1      -0.788   0.018  -0.531  0.00  0.00    -0.495 OA
ENDBRANCH   7  14
BRANCH  11  15
ATOM     15  O   UNL     1       0.705  -3.948  -2.686  0.00  0.00    -0.506 OA
ATOM     16  H   UNL     1       1.401  -4.376  -2.168  0.00  0.00    +0.292 HD
ENDBRANCH  11  15
ENDBRANCH   1  10
BRANCH   2  17
ATOM     17  O   UNL     1       3.214  -0.479  -5.627  0.00  0.00    -0.449 OA
BRANCH  17  18
ATOM     18  C   UNL     1       3.936  -0.019  -6.683  0.00  0.00    +0.170 A 
ATOM     19  C   UNL     1       5.292   0.233  -6.540  0.00  0.00    +0.050 A 
ATOM     20  C   UNL     1       6.024   0.701  -7.615  0.00  0.00    +0.004 A 
ATOM     21  C   UNL     1       5.408   0.919  -8.833  0.00  0.00    +0.004 A 
ATOM     22  C   UNL     1       4.056   0.671  -8.982  0.00  0.00    +0.049 A 
ATOM     23  C   UNL     1       3.317   0.196  -7.911  0.00  0.00    +0.162 A 
BRANCH  23  24
ATOM     24  O   UNL     1       1.988  -0.054  -8.057  0.00  0.00    -0.491 OA
ATOM     25  C   UNL     1       1.420   0.190  -9.345  0.00  0.00    +0.277 C 
ENDBRANCH  23  24
ENDBRANCH  17  18
ENDBRANCH   2  17
TORSDOF 6
