REMARK  Name = ZINC08911596
REMARK  6 active torsions:
REMARK  status: ('A' for Active; 'I' for Inactive)
REMARK    1  A    between atoms: C_1  and  C_2
REMARK    2  A    between atoms: C_5  and  C_8
REMARK    3  A    between atoms: C_8  and  N_9
REMARK    4  A    between atoms: C_10  and  C_12
REMARK    5  A    between atoms: C_12  and  N_13
REMARK    6  A    between atoms: C_17  and  N_30
REMARK                            x       y       z     vdW  Elec       q    Type
REMARK                         _______ _______ _______ _____ _____    ______ ____
ROOT
ATOM      1  N   UNL     1      -3.453  -0.475   3.068  0.00  0.00    -0.217 N 
ATOM      2  C   UNL     1      -2.600   0.215   2.282  0.00  0.00    +0.294 A 
ATOM      3  O   UNL     1      -1.457   0.430   2.646  0.00  0.00    -0.264 OA
ATOM      4  C   UNL     1      -3.058   0.685   1.025  0.00  0.00    +0.139 A 
ATOM      5  C   UNL     1      -2.450   1.401   0.019  0.00  0.00    +0.085 A 
ATOM      6  C   UNL     1      -3.414   1.597  -1.022  0.00  0.00    +0.036 A 
ATOM      7  C   UNL     1      -3.485   2.230  -2.345  0.00  0.00    -0.026 A 
ATOM      8  C   UNL     1      -4.662   2.148  -2.996  0.00  0.00    -0.004 A 
ATOM      9  S   UNL     1      -5.721   1.230  -1.911  0.00  0.00    -0.075 S 
ATOM     10  C   UNL     1      -4.574   0.963  -0.582  0.00  0.00    +0.096 A 
ATOM     11  N   UNL     1      -4.372   0.418   0.643  0.00  0.00    -0.286 N 
ATOM     12  C   UNL     1      -5.192  -0.297   1.501  0.00  0.00    +0.227 A 
ATOM     13  N   UNL     1      -4.762  -0.718   2.641  0.00  0.00    -0.158 NA
ATOM     14  C   UNL     1      -4.995   2.712  -4.344  0.00  0.00    +0.043 C 
ATOM     15  C   UNL     1      -3.908   3.727  -4.725  0.00  0.00    +0.005 C 
ATOM     16  C   UNL     1      -2.536   3.096  -4.471  0.00  0.00    +0.005 C 
ATOM     17  C   UNL     1      -2.297   2.958  -2.966  0.00  0.00    +0.037 C 
ENDROOT
BRANCH   5  18
ATOM     18  N   UNL     1      -1.130   1.862   0.017  0.00  0.00    -0.321 N 
ATOM     19  C   UNL     1      -0.013   1.076   0.008  0.00  0.00    +0.091 A 
ATOM     20  C   UNL     1       1.069   1.881   0.002  0.00  0.00    +0.019 A 
ATOM     21  C   UNL     1       0.605   3.212   0.013  0.00  0.00    +0.019 A 
ATOM     22  C   UNL     1      -0.743   3.171   0.026  0.00  0.00    +0.091 A 
ENDBRANCH   5  18
BRANCH   1  23
ATOM     23  C   UNL     1      -3.006  -0.972   4.371  0.00  0.00    +0.243 C 
BRANCH  23  25
ATOM     24  N   UNL     1      -2.943  -0.168   6.710  0.00  0.00    -0.310 N 
ATOM     25  C   UNL     1      -3.275   0.071   5.425  0.00  0.00    +0.235 C 
ATOM     26  O   UNL     1      -3.790   1.125   5.118  0.00  0.00    -0.274 OA
ATOM     27  H   UNL     1      -2.532  -1.011   6.956  0.00  0.00    +0.149 HD
BRANCH  24  28
ATOM     28  C   UNL     1      -3.205   0.846   7.734  0.00  0.00    +0.139 C 
BRANCH  28  33
ATOM     29  C   UNL     1      -1.441  -1.112  12.877  0.00  0.00    +0.044 C 
ATOM     30  C   UNL     1      -1.901  -0.601  11.536  0.00  0.00    -0.050 A 
ATOM     31  C   UNL     1      -1.029   0.105  10.729  0.00  0.00    +0.003 A 
ATOM     32  C   UNL     1      -1.451   0.574   9.499  0.00  0.00    +0.005 A 
ATOM     33  C   UNL     1      -2.745   0.335   9.075  0.00  0.00    -0.030 A 
ATOM     34  C   UNL     1      -3.619  -0.367   9.884  0.00  0.00    +0.005 A 
ATOM     35  C   UNL     1      -3.195  -0.840  11.113  0.00  0.00    +0.003 A 
ENDBRANCH  28  33
ENDBRANCH  24  28
ENDBRANCH  23  25
ENDBRANCH   1  23
TORSDOF 5
