REMARK  Name = ZINC36027238
REMARK  8 active torsions:
REMARK  status: ('A' for Active; 'I' for Inactive)
REMARK    1  A    between atoms: C_1  and  C_2
REMARK    2  A    between atoms: N_6  and  C_25
REMARK    3  A    between atoms: N_11  and  S_14
REMARK    4  A    between atoms: S_14  and  C_17
REMARK    5  A    between atoms: C_25  and  C_27
REMARK    6  A    between atoms: C_25  and  C_28
REMARK    7  A    between atoms: C_28  and  C_29
REMARK    8  A    between atoms: C_29  and  C_30
REMARK                            x       y       z     vdW  Elec       q    Type
REMARK                         _______ _______ _______ _____ _____    ______ ____
ROOT
ATOM      1  C   UNL     1       0.178   1.276   0.145  0.00  0.00    -0.004 C 
ATOM      2  C   UNL     1       0.061  -0.244   0.022  0.00  0.00    +0.016 C 
ATOM      3  C   UNL     1      -1.368  -0.683   0.255  0.00  0.00    +0.200 C 
ATOM      4  O   UNL     1      -2.274  -0.603  -0.548  0.00  0.00    -0.277 OA
ATOM      5  N   UNL     1      -1.465  -1.181   1.505  0.00  0.00    -0.311 N 
ATOM      6  C   UNL     1      -0.159  -1.102   2.165  0.00  0.00    +0.006 C 
ATOM      7  N   UNL     1       0.843  -0.910   1.091  0.00  0.00    +0.401 N 
ATOM      8  C   UNL     1       0.133  -2.400   2.916  0.00  0.00    +0.023 C 
ATOM      9  C   UNL     1      -0.930  -2.610   4.000  0.00  0.00    +0.109 C 
ATOM     10  N   UNL     1      -0.984  -1.411   4.847  0.00  0.00    -0.177 NA
ATOM     11  C   UNL     1      -1.187  -0.103   4.209  0.00  0.00    +0.109 C 
ATOM     12  C   UNL     1      -0.121   0.086   3.124  0.00  0.00    +0.023 C 
ATOM     13  H   UNL     1       1.199  -1.799   0.772  0.00  0.00    -0.082 HD
ATOM     14  H   UNL     1       1.595  -0.316   1.406  0.00  0.00    -0.082 HD
ENDROOT
BRANCH  10  15
ATOM     15  S   UNL     1      -0.821  -1.531   6.490  0.00  0.00    +0.062 S 
ATOM     16  O   UNL     1      -1.580  -0.470   7.053  0.00  0.00    -0.153 OA
ATOM     17  O   UNL     1      -1.053  -2.893   6.823  0.00  0.00    -0.153 OA
BRANCH  15  18
ATOM     18  C   UNL     1       0.867  -1.201   6.872  0.00  0.00    +0.125 A 
ATOM     19  C   UNL     1       1.206  -0.060   7.575  0.00  0.00    +0.030 A 
ATOM     20  C   UNL     1       2.530   0.200   7.875  0.00  0.00    +0.003 A 
ATOM     21  C   UNL     1       3.517  -0.680   7.471  0.00  0.00    +0.021 A 
ATOM     22  C   UNL     1       3.179  -1.821   6.767  0.00  0.00    +0.061 A 
ATOM     23  C   UNL     1       1.852  -2.085   6.473  0.00  0.00    +0.086 A 
ATOM     24 CL   UNL     1       1.426  -3.522   5.596  0.00  0.00    -0.080 Cl
ATOM     25 CL   UNL     1       4.418  -2.927   6.260  0.00  0.00    -0.082 Cl
ENDBRANCH  15  18
ENDBRANCH  10  15
BRANCH   5  26
ATOM     26  C   UNL     1      -2.687  -1.716   2.110  0.00  0.00    +0.072 C 
ATOM     27  C   UNL     1      -3.853  -0.765   1.833  0.00  0.00    +0.028 C 
BRANCH  26  28
ATOM     28  C   UNL     1      -2.995  -3.089   1.509  0.00  0.00    +0.027 C 
BRANCH  28  29
ATOM     29  C   UNL     1      -1.888  -4.073   1.893  0.00  0.00    +0.037 C 
BRANCH  29  30
ATOM     30  C   UNL     1      -2.191  -5.426   1.300  0.00  0.00    -0.047 A 
ATOM     31  C   UNL     1      -2.942  -6.341   2.015  0.00  0.00    +0.003 A 
ATOM     32  C   UNL     1      -3.220  -7.581   1.472  0.00  0.00    +0.000 A 
ATOM     33  C   UNL     1      -2.747  -7.906   0.214  0.00  0.00    +0.000 A 
ATOM     34  C   UNL     1      -1.997  -6.991  -0.501  0.00  0.00    +0.000 A 
ATOM     35  C   UNL     1      -1.723  -5.749   0.041  0.00  0.00    +0.003 A 
ENDBRANCH  29  30
ENDBRANCH  28  29
ENDBRANCH  26  28
ENDBRANCH   5  26
TORSDOF 6
