REMARK  Name = ZINC63513885
REMARK  13 active torsions:
REMARK  status: ('A' for Active; 'I' for Inactive)
REMARK    1  A    between atoms: C_1  and  C_2
REMARK    2  A    between atoms: C_4  and  C_12
REMARK    3  A    between atoms: C_12  and  C_13
REMARK    4  A    between atoms: C_13  and  N_14
REMARK    5  A    between atoms: C_15  and  C_17
REMARK    6  A    between atoms: C_17  and  N_28
REMARK    7  A    between atoms: C_18  and  C_19
REMARK    8  A    between atoms: C_23  and  N_25
REMARK    9  A    between atoms: C_29  and  C_31
REMARK   10  A    between atoms: C_34  and  C_37
REMARK   11  A    between atoms: C_37  and  C_38
REMARK   12  A    between atoms: C_37  and  C_39
REMARK   13  A    between atoms: C_37  and  C_40
REMARK                            x       y       z     vdW  Elec       q    Type
REMARK                         _______ _______ _______ _____ _____    ______ ____
ROOT
ATOM      1  C   UNL     1      -7.119  -0.867  -2.260  0.00  0.00    +0.097 C 
ATOM      2  C   UNL     1      -6.818  -0.523  -3.533  0.00  0.00    +0.036 C 
ENDROOT
BRANCH   2   3
ATOM      3  C   UNL     1      -7.881  -0.461  -4.548  0.00  0.00    -0.021 A 
ATOM      4  C   UNL     1      -9.222  -0.372  -4.158  0.00  0.00    +0.008 A 
ATOM      5  C   UNL     1     -10.212  -0.313  -5.116  0.00  0.00    +0.003 A 
ATOM      6  C   UNL     1      -9.883  -0.342  -6.460  0.00  0.00    +0.033 A 
ATOM      7  C   UNL     1      -8.559  -0.429  -6.854  0.00  0.00    +0.127 A 
ATOM      8  C   UNL     1      -7.557  -0.483  -5.909  0.00  0.00    +0.040 A 
BRANCH   7   9
ATOM      9  N   UNL     1      -8.218  -0.460  -8.294  0.00  0.00    +0.056 N 
ATOM     10  O   UNL     1      -9.095  -0.408  -9.124  0.00  0.00    -0.126 OA
ATOM     11  O   UNL     1      -7.062  -0.537  -8.640  0.00  0.00    -0.126 OA
ENDBRANCH   7   9
ENDBRANCH   2   3
BRANCH   1  13
ATOM     12  N   UNL     1      -4.847  -0.360  -1.522  0.00  0.00    -0.310 N 
ATOM     13  C   UNL     1      -6.090  -0.781  -1.213  0.00  0.00    +0.258 C 
ATOM     14  O   UNL     1      -6.360  -1.090  -0.068  0.00  0.00    -0.269 OA
ATOM     15  H   UNL     1      -4.632  -0.114  -2.435  0.00  0.00    +0.149 HD
BRANCH  12  16
ATOM     16  C   UNL     1      -3.822  -0.275  -0.479  0.00  0.00    +0.109 C 
BRANCH  16  17
ATOM     17  C   UNL     1      -2.513   0.227  -1.091  0.00  0.00    +0.052 C 
BRANCH  17  20
ATOM     18  C   UNL     1       0.021   2.208  -0.689  0.00  0.00    +0.035 C 
ATOM     19  C   UNL     1      -0.024   0.763  -0.188  0.00  0.00    +0.103 C 
ATOM     20  C   UNL     1      -1.458   0.315  -0.018  0.00  0.00    -0.037 C 
ATOM     21  C   UNL     1      -1.603   0.009   1.292  0.00  0.00    -0.001 A 
ATOM     22  C   UNL     1      -2.742  -0.478   2.079  0.00  0.00    +0.010 A 
ATOM     23  C   UNL     1      -2.578  -0.698   3.403  0.00  0.00    +0.001 A 
ATOM     24  C   UNL     1      -1.351  -0.472   4.041  0.00  0.00    +0.002 A 
ATOM     25  C   UNL     1      -0.259  -0.025   3.385  0.00  0.00    +0.026 A 
ATOM     26  C   UNL     1      -0.318   0.239   1.989  0.00  0.00    +0.043 A 
ATOM     27  N   UNL     1       0.588   0.670   1.143  0.00  0.00    -0.378 N 
ATOM     28  H   UNL     1       1.508   0.891   1.359  0.00  0.00    +0.160 HD
ENDBRANCH  17  20
ENDBRANCH  16  17
ENDBRANCH  12  16
ENDBRANCH   1  13
BRANCH   1  29
ATOM     29  N   UNL     1      -8.407  -1.304  -1.939  0.00  0.00    -0.277 N 
ATOM     30  C   UNL     1      -9.122  -0.660  -0.995  0.00  0.00    +0.248 C 
ATOM     31  O   UNL     1      -8.608   0.231  -0.346  0.00  0.00    -0.270 OA
ATOM     32  H   UNL     1      -8.787  -2.071  -2.396  0.00  0.00    +0.155 HD
BRANCH  30  33
ATOM     33  C   UNL     1     -10.530  -1.036  -0.749  0.00  0.00    +0.037 A 
ATOM     34  C   UNL     1     -11.088  -2.133  -1.408  0.00  0.00    +0.013 A 
ATOM     35  C   UNL     1     -12.403  -2.479  -1.173  0.00  0.00    +0.005 A 
ATOM     36  C   UNL     1     -13.168  -1.741  -0.287  0.00  0.00    -0.042 A 
ATOM     37  C   UNL     1     -12.621  -0.652   0.369  0.00  0.00    +0.005 A 
ATOM     38  C   UNL     1     -11.306  -0.299   0.147  0.00  0.00    +0.013 A 
BRANCH  36  39
ATOM     39  C   UNL     1     -14.603  -2.124  -0.037  0.00  0.00    -0.013 C 
ATOM     40  C   UNL     1     -14.661  -3.549   0.519  0.00  0.00    +0.015 C 
ATOM     41  C   UNL     1     -15.220  -1.157   0.975  0.00  0.00    +0.015 C 
ATOM     42  C   UNL     1     -15.386  -2.057  -1.349  0.00  0.00    +0.015 C 
ENDBRANCH  36  39
ENDBRANCH  30  33
ENDBRANCH   1  29
TORSDOF 9
