REMARK  Name = ZINC36610906
REMARK  6 active torsions:
REMARK  status: ('A' for Active; 'I' for Inactive)
REMARK    1  A    between atoms: C_5  and  C_7
REMARK    2  A    between atoms: C_7  and  S_8
REMARK    3  A    between atoms: S_8  and  C_9
REMARK    4  A    between atoms: N_14  and  N_15
REMARK    5  A    between atoms: C_16  and  C_17
REMARK    6  A    between atoms: C_22  and  O_23
REMARK                            x       y       z     vdW  Elec       q    Type
REMARK                         _______ _______ _______ _____ _____    ______ ____
ROOT
ATOM      1  C   UNL     1       1.317  -4.535   1.504  0.00  0.00    +0.210 A 
ATOM      2  N   UNL     1       1.340  -5.418   2.508  0.00  0.00    -0.186 NA
ATOM      3  C   UNL     1       1.363  -6.641   2.022  0.00  0.00    +0.232 A 
ATOM      4  N   UNL     1       1.354  -6.554   0.674  0.00  0.00    -0.245 N 
ATOM      5  N   UNL     1       1.319  -5.185   0.365  0.00  0.00    -0.144 NA
ATOM      6  N   UNL     1       1.392  -7.810   2.760  0.00  0.00    -0.205 N 
ATOM      7  H   UNL     1       1.408  -8.668   2.309  0.00  0.00    +0.177 HD
ATOM      8  H   UNL     1       1.367  -7.292   0.045  0.00  0.00    +0.192 HD
ENDROOT
BRANCH   6   9
ATOM      9  N   UNL     1       1.398  -7.753   4.160  0.00  0.00    -0.187 NA
ATOM     10  C   UNL     1       1.425  -8.851   4.854  0.00  0.00    +0.142 C 
BRANCH  10  11
ATOM     11  C   UNL     1       1.432  -8.791   6.327  0.00  0.00    +0.038 A 
ATOM     12  C   UNL     1       1.467  -9.969   7.077  0.00  0.00    +0.028 A 
ATOM     13  C   UNL     1       1.473  -9.907   8.455  0.00  0.00    +0.020 A 
ATOM     14  C   UNL     1       1.444  -8.681   9.099  0.00  0.00    +0.034 A 
ATOM     15  C   UNL     1       1.409  -7.508   8.367  0.00  0.00    +0.061 A 
ATOM     16  C   UNL     1       1.409  -7.553   6.982  0.00  0.00    +0.139 A 
ATOM     17 BR   UNL     1       1.369  -5.840   9.257  0.00  0.00    -0.046 Br
ATOM     18 BR   UNL     1       1.520 -11.502   9.469  0.00  0.00    -0.050 Br
BRANCH  16  19
ATOM     19  O   UNL     1       1.381  -6.401   6.262  0.00  0.00    -0.505 OA
ATOM     20  H   UNL     1       0.490  -6.086   6.058  0.00  0.00    +0.292 HD
ENDBRANCH  16  19
ENDBRANCH  10  11
ENDBRANCH   6   9
BRANCH   1  21
ATOM     21  S   UNL     1       1.280  -2.783   1.683  0.00  0.00    -0.078 S 
BRANCH  21  22
ATOM     22  C   UNL     1       1.250  -2.168  -0.023  0.00  0.00    +0.132 C 
BRANCH  22  27
ATOM     23  C   UNL     1      -0.017   1.382   0.010  0.00  0.00    +0.003 A 
ATOM     24  C   UNL     1       1.194   2.059   0.002  0.00  0.00    +0.020 A 
ATOM     25  C   UNL     1       2.370   1.334  -0.013  0.00  0.00    +0.111 A 
ATOM     26  N   UNL     1       2.350   0.015  -0.021  0.00  0.00    -0.259 NA
ATOM     27  C   UNL     1       1.218  -0.661  -0.014  0.00  0.00    +0.051 A 
ATOM     28  C   UNL     1       0.002  -0.004   0.002  0.00  0.00    +0.024 A 
ENDBRANCH  22  27
ENDBRANCH  21  22
ENDBRANCH   1  21
TORSDOF 6
