REMARK  Name = ZINC34709236
REMARK  7 active torsions:
REMARK  status: ('A' for Active; 'I' for Inactive)
REMARK    1  A    between atoms: C_1  and  C_2
REMARK    2  A    between atoms: C_2  and  C_3
REMARK    3  A    between atoms: C_6  and  C_9
REMARK    4  A    between atoms: C_12  and  C_24
REMARK    5  A    between atoms: C_17  and  C_19
REMARK    6  A    between atoms: N_26  and  C_27
REMARK    7  A    between atoms: C_27  and  C_28
REMARK                            x       y       z     vdW  Elec       q    Type
REMARK                         _______ _______ _______ _____ _____    ______ ____
ROOT
ATOM      1  C   UNL     1      -5.419  -2.005   0.043  0.00  0.00    +0.037 C 
ATOM      2  C   UNL     1      -5.471  -3.352  -0.681  0.00  0.00    +0.024 C 
ATOM      3  C   UNL     1      -6.900  -3.899  -0.643  0.00  0.00    +0.093 C 
ATOM      4  C   UNL     1      -7.835  -2.925  -1.365  0.00  0.00    +0.120 C 
ATOM      5  N   UNL     1      -7.683  -1.591  -0.767  0.00  0.00    -0.300 N 
ATOM      6  C   UNL     1      -6.338  -1.009  -0.671  0.00  0.00    +0.116 C 
ATOM      7  C   UNL     1      -8.758  -0.915  -0.315  0.00  0.00    +0.219 C 
ATOM      8  O   UNL     1      -8.619   0.185   0.177  0.00  0.00    -0.275 OA
ENDROOT
BRANCH   1  12
ATOM      9  C   UNL     1      -1.412  -0.526   0.013  0.00  0.00    -0.048 A 
ATOM     10  C   UNL     1      -2.051  -0.766   1.215  0.00  0.00    +0.004 A 
ATOM     11  C   UNL     1      -3.348  -1.244   1.225  0.00  0.00    +0.004 A 
ATOM     12  C   UNL     1      -4.006  -1.482   0.032  0.00  0.00    -0.043 A 
ATOM     13  C   UNL     1      -3.367  -1.241  -1.170  0.00  0.00    +0.004 A 
ATOM     14  C   UNL     1      -2.072  -0.758  -1.179  0.00  0.00    +0.004 A 
BRANCH   9  16
ATOM     15  C   UNL     1      -0.019   1.526   0.010  0.00  0.00    +0.009 C 
ATOM     16  C   UNL     1       0.002  -0.004   0.002  0.00  0.00    +0.032 C 
ENDBRANCH   9  16
ENDBRANCH   1  12
BRANCH   7  17
ATOM     17  C   UNL     1     -10.132  -1.526  -0.420  0.00  0.00    +0.075 C 
ATOM     18  C   UNL     1     -10.503  -1.740  -1.902  0.00  0.00    +0.013 C 
ATOM     19  C   UNL     1     -12.017  -1.420  -1.964  0.00  0.00    +0.001 C 
ATOM     20  C   UNL     1     -12.155  -0.226  -0.987  0.00  0.00    +0.001 C 
ATOM     21  C   UNL     1     -11.182  -0.564   0.162  0.00  0.00    +0.013 C 
ENDBRANCH   7  17
BRANCH   3  22
ATOM     22  C   UNL     1      -7.341  -4.052   0.790  0.00  0.00    +0.218 C 
ATOM     23  O   UNL     1      -6.588  -3.752   1.692  0.00  0.00    -0.275 OA
ATOM     24  N   UNL     1      -8.573  -4.521   1.069  0.00  0.00    -0.308 N 
ATOM     25  H   UNL     1      -9.176  -4.760   0.348  0.00  0.00    +0.149 HD
BRANCH  24  26
ATOM     26  C   UNL     1      -9.002  -4.669   2.462  0.00  0.00    +0.178 C 
BRANCH  26  27
ATOM     27  C   UNL     1     -10.409  -5.208   2.500  0.00  0.00    +0.122 A 
ATOM     28  C   UNL     1     -10.753  -6.508   2.537  0.00  0.00    +0.046 A 
ATOM     29  C   UNL     1     -12.166  -6.557   2.563  0.00  0.00    +0.041 A 
ATOM     30  C   UNL     1     -12.601  -5.285   2.540  0.00  0.00    +0.195 A 
ATOM     31  O   UNL     1     -11.533  -4.471   2.508  0.00  0.00    -0.466 OA
ENDBRANCH  26  27
ENDBRANCH  24  26
ENDBRANCH   3  22
TORSDOF 6
