REMARK  Name = ZINC39771616
REMARK  7 active torsions:
REMARK  status: ('A' for Active; 'I' for Inactive)
REMARK    1  A    between atoms: C_1  and  C_2
REMARK    2  A    between atoms: C_6  and  C_20
REMARK    3  A    between atoms: N_9  and  C_10
REMARK    4  A    between atoms: C_13  and  S_16
REMARK    5  A    between atoms: S_16  and  N_19
REMARK    6  A    between atoms: C_20  and  C_21
REMARK    7  A    between atoms: C_20  and  C_22
REMARK                            x       y       z     vdW  Elec       q    Type
REMARK                         _______ _______ _______ _____ _____    ______ ____
ROOT
ATOM      1  C   UNL     1       0.489   1.460   0.026  0.00  0.00    +0.047 C 
ATOM      2  C   UNL     1       0.221  -0.023   0.009  0.00  0.00    -0.003 C 
ATOM      3  C   UNL     1       0.195  -0.691  -1.164  0.00  0.00    +0.093 C 
ATOM      4  C   UNL     1      -0.066  -2.131  -1.181  0.00  0.00    +0.201 C 
ATOM      5  O   UNL     1      -0.089  -2.733  -2.241  0.00  0.00    -0.286 OA
ATOM      6  C   UNL     1      -0.297  -2.848   0.071  0.00  0.00    +0.005 C 
ATOM      7  C   UNL     1      -0.271  -2.184   1.246  0.00  0.00    +0.035 C 
ATOM      8  C   UNL     1      -0.005  -0.742   1.266  0.00  0.00    +0.069 C 
ATOM      9  N   UNL     1       0.026  -0.091   2.416  0.00  0.00    -0.248 NA
ATOM     10 CL   UNL     1       0.469   0.158  -2.653  0.00  0.00    -0.079 Cl
ENDROOT
BRANCH   9  11
ATOM     11  C   UNL     1      -0.055  -0.769   3.575  0.00  0.00    +0.065 A 
ATOM     12  C   UNL     1       0.873  -1.784   3.868  0.00  0.00    +0.029 A 
ATOM     13  C   UNL     1       0.780  -2.471   5.057  0.00  0.00    +0.030 A 
ATOM     14  C   UNL     1      -0.223  -2.166   5.964  0.00  0.00    +0.105 A 
ATOM     15  C   UNL     1      -1.143  -1.167   5.684  0.00  0.00    +0.030 A 
ATOM     16  C   UNL     1      -1.065  -0.463   4.504  0.00  0.00    +0.029 A 
BRANCH  14  17
ATOM     17  S   UNL     1      -0.329  -3.053   7.482  0.00  0.00    +0.056 S 
ATOM     18  O   UNL     1      -1.679  -2.954   7.917  0.00  0.00    -0.153 OA
ATOM     19  O   UNL     1       0.311  -4.303   7.267  0.00  0.00    -0.153 OA
BRANCH  17  20
ATOM     20  N   UNL     1       0.588  -2.236   8.592  0.00  0.00    -0.204 NA
ATOM     21  H   UNL     1       0.350  -2.264   9.532  0.00  0.00    +0.144 HD
ATOM     22  H   UNL     1       1.363  -1.729   8.303  0.00  0.00    +0.144 HD
ENDBRANCH  17  20
ENDBRANCH  14  17
ENDBRANCH   9  11
BRANCH   6  23
ATOM     23  C   UNL     1      -0.565  -4.331   0.051  0.00  0.00    +0.017 C 
ATOM     24  C   UNL     1      -1.823  -4.610  -0.774  0.00  0.00    +0.012 C 
ATOM     25  C   UNL     1       0.627  -5.056  -0.576  0.00  0.00    +0.012 C 
ENDBRANCH   6  23
TORSDOF 4
