REMARK  Name = ZINC39923075
REMARK  8 active torsions:
REMARK  status: ('A' for Active; 'I' for Inactive)
REMARK    1  A    between atoms: C_4  and  O_25
REMARK    2  A    between atoms: C_5  and  C_7
REMARK    3  A    between atoms: C_9  and  C_13
REMARK    4  A    between atoms: N_15  and  N_16
REMARK    5  A    between atoms: C_17  and  C_18
REMARK    6  A    between atoms: C_22  and  O_24
REMARK    7  A    between atoms: O_25  and  C_26
REMARK    8  A    between atoms: C_26  and  C_27
REMARK                            x       y       z     vdW  Elec       q    Type
REMARK                         _______ _______ _______ _____ _____    ______ ____
ROOT
ATOM      1  C   UNL     1       1.469  -1.393  -1.321  0.00  0.00    +0.095 C 
ATOM      2  C   UNL     1       2.629  -2.076  -1.284  0.00  0.00    +0.041 C 
ATOM      3  C   UNL     1       2.255  -3.393  -0.627  0.00  0.00    +0.240 C 
ATOM      4  N   UNL     1       0.813  -3.243  -0.370  0.00  0.00    -0.170 NA
ATOM      5  N   UNL     1       0.467  -2.129  -0.771  0.00  0.00    -0.153 NA
ENDROOT
BRANCH   1  10
ATOM      6  C   UNL     1      -0.084   1.862  -2.383  0.00  0.00    +0.001 A 
ATOM      7  C   UNL     1       1.006   2.523  -2.920  0.00  0.00    +0.004 A 
ATOM      8  C   UNL     1       2.249   1.918  -2.940  0.00  0.00    +0.046 A 
ATOM      9  C   UNL     1       2.408   0.643  -2.421  0.00  0.00    +0.130 A 
ATOM     10  C   UNL     1       1.308  -0.028  -1.878  0.00  0.00    +0.044 A 
ATOM     11  C   UNL     1       0.060   0.592  -1.863  0.00  0.00    +0.014 A 
BRANCH   9  12
ATOM     12  O   UNL     1       3.628   0.046  -2.441  0.00  0.00    -0.487 OA
BRANCH  12  13
ATOM     13  C   UNL     1       4.705   0.792  -3.012  0.00  0.00    +0.264 C 
BRANCH  13  14
ATOM     14  C   UNL     1       5.971  -0.024  -2.947  0.00  0.00    -0.010 A 
ATOM     15  C   UNL     1       6.794   0.066  -1.840  0.00  0.00    +0.008 A 
ATOM     16  C   UNL     1       7.955  -0.682  -1.780  0.00  0.00    +0.020 A 
ATOM     17  C   UNL     1       8.293  -1.520  -2.827  0.00  0.00    +0.041 A 
ATOM     18  C   UNL     1       7.469  -1.609  -3.935  0.00  0.00    +0.020 A 
ATOM     19  C   UNL     1       6.305  -0.865  -3.991  0.00  0.00    +0.008 A 
ATOM     20 CL   UNL     1       9.751  -2.459  -2.752  0.00  0.00    -0.084 Cl
ENDBRANCH  13  14
ENDBRANCH  12  13
ENDBRANCH   9  12
ENDBRANCH   1  10
BRANCH   3  21
ATOM     21  C   UNL     1       2.515  -4.547  -1.562  0.00  0.00    +0.263 C 
ATOM     22  O   UNL     1       1.599  -5.041  -2.185  0.00  0.00    -0.271 OA
ATOM     23  N   UNL     1       3.765  -5.029  -1.705  0.00  0.00    -0.205 N 
ATOM     24  H   UNL     1       4.498  -4.634  -1.207  0.00  0.00    +0.177 HD
BRANCH  23  25
ATOM     25  N   UNL     1       4.007  -6.101  -2.574  0.00  0.00    -0.188 NA
ATOM     26  C   UNL     1       5.185  -6.642  -2.625  0.00  0.00    +0.138 C 
BRANCH  26  27
ATOM     27  C   UNL     1       6.117  -6.487  -1.492  0.00  0.00    -0.002 A 
ATOM     28  C   UNL     1       5.654  -6.013  -0.262  0.00  0.00    +0.010 A 
ATOM     29  C   UNL     1       6.529  -5.869   0.794  0.00  0.00    +0.004 A 
ATOM     30  C   UNL     1       7.864  -6.194   0.641  0.00  0.00    +0.045 A 
ATOM     31  C   UNL     1       8.335  -6.665  -0.577  0.00  0.00    +0.117 A 
ATOM     32  C   UNL     1       7.465  -6.819  -1.643  0.00  0.00    +0.054 A 
BRANCH  31  33
ATOM     33  O   UNL     1       9.648  -6.982  -0.722  0.00  0.00    -0.507 OA
ATOM     34  H   UNL     1       9.857  -7.902  -0.509  0.00  0.00    +0.292 HD
ENDBRANCH  31  33
ENDBRANCH  26  27
ENDBRANCH  23  25
ENDBRANCH   3  21
TORSDOF 8
