REMARK  Name = ZINC11196000
REMARK  8 active torsions:
REMARK  status: ('A' for Active; 'I' for Inactive)
REMARK    1  A    between atoms: C_1  and  C_2
REMARK    2  A    between atoms: C_2  and  C_3
REMARK    3  A    between atoms: C_8  and  N_9
REMARK    4  A    between atoms: C_12  and  C_17
REMARK    5  A    between atoms: C_17  and  S_18
REMARK    6  A    between atoms: S_18  and  C_19
REMARK    7  A    between atoms: N_29  and  C_30
REMARK    8  A    between atoms: C_30  and  C_31
REMARK                            x       y       z     vdW  Elec       q    Type
REMARK                         _______ _______ _______ _____ _____    ______ ____
ROOT
ATOM      1  N   UNL     1      -0.011   0.966   0.007  0.00  0.00    -0.283 N 
ATOM      2  C   UNL     1       1.269   1.479  -0.069  0.00  0.00    +0.224 A 
ATOM      3  N   UNL     1       2.320   0.671   0.053  0.00  0.00    -0.198 NA
ATOM      4  C   UNL     1       3.545   1.161  -0.026  0.00  0.00    +0.146 A 
ATOM      5  N   UNL     1       3.732   2.455  -0.215  0.00  0.00    -0.199 NA
ATOM      6  C   UNL     1       2.686   3.271  -0.333  0.00  0.00    +0.217 A 
ATOM      7  N   UNL     1       1.453   2.781  -0.260  0.00  0.00    -0.181 NA
ATOM      8  N   UNL     1       2.882   4.622  -0.531  0.00  0.00    -0.327 N 
ATOM      9  H   UNL     1      -0.146   0.032   0.231  0.00  0.00    +0.155 HD
ATOM     10  H   UNL     1       2.120   5.215  -0.617  0.00  0.00    +0.145 HD
ATOM     11  H   UNL     1       3.783   4.979  -0.584  0.00  0.00    +0.145 HD
ENDROOT
BRANCH   1  17
ATOM     12  C   UNL     1      -2.325   1.543   0.386  0.00  0.00    -0.026 A 
ATOM     13  C   UNL     1      -3.410   2.361   0.137  0.00  0.00    +0.005 A 
ATOM     14  C   UNL     1      -3.289   3.425  -0.737  0.00  0.00    +0.000 A 
ATOM     15  C   UNL     1      -2.083   3.675  -1.365  0.00  0.00    +0.002 A 
ATOM     16  C   UNL     1      -0.993   2.865  -1.117  0.00  0.00    +0.023 A 
ATOM     17  C   UNL     1      -1.112   1.791  -0.243  0.00  0.00    +0.037 A 
BRANCH  12  19
ATOM     18  C   UNL     1      -1.990   0.812   2.732  0.00  0.00    +0.009 C 
ATOM     19  C   UNL     1      -2.457   0.384   1.340  0.00  0.00    +0.033 C 
ENDBRANCH  12  19
ENDBRANCH   1  17
BRANCH   4  20
ATOM     20  C   UNL     1       4.731   0.241   0.106  0.00  0.00    +0.153 C 
BRANCH  20  21
ATOM     21  S   UNL     1       5.209   0.120   1.848  0.00  0.00    -0.080 S 
BRANCH  21  22
ATOM     22  C   UNL     1       6.577  -0.983   1.714  0.00  0.00    +0.173 A 
ATOM     23  N   UNL     1       6.908  -1.426   0.526  0.00  0.00    -0.223 NA
ATOM     24  C   UNL     1       7.946  -2.267   0.350  0.00  0.00    +0.079 A 
ATOM     25  C   UNL     1       8.302  -2.737  -0.918  0.00  0.00    +0.028 A 
ATOM     26  C   UNL     1       9.358  -3.593  -1.050  0.00  0.00    +0.002 A 
ATOM     27  C   UNL     1      10.087  -4.006   0.059  0.00  0.00    +0.001 A 
ATOM     28  C   UNL     1       9.763  -3.565   1.312  0.00  0.00    +0.015 A 
ATOM     29  C   UNL     1       8.689  -2.690   1.476  0.00  0.00    +0.065 A 
ATOM     30  C   UNL     1       8.296  -2.184   2.797  0.00  0.00    +0.262 A 
ATOM     31  O   UNL     1       8.897  -2.511   3.804  0.00  0.00    -0.267 OA
ATOM     32  N   UNL     1       7.240  -1.339   2.854  0.00  0.00    -0.285 N 
BRANCH  32  33
ATOM     33  C   UNL     1       6.804  -0.804   4.146  0.00  0.00    +0.159 C 
BRANCH  33  34
ATOM     34  C   UNL     1       5.763  -1.740   4.762  0.00  0.00    +0.138 C 
ATOM     35  C   UNL     1       5.214  -1.127   6.068  0.00  0.00    +0.035 C 
ATOM     36  C   UNL     1       5.087  -2.372   6.988  0.00  0.00    +0.031 C 
ATOM     37  C   UNL     1       6.296  -3.215   6.512  0.00  0.00    +0.160 C 
ATOM     38  O   UNL     1       6.373  -2.993   5.095  0.00  0.00    -0.375 OA
ENDBRANCH  33  34
ENDBRANCH  32  33
ENDBRANCH  21  22
ENDBRANCH  20  21
ENDBRANCH   4  20
TORSDOF 7
