REMARK  Name = ZINC33174080
REMARK  10 active torsions:
REMARK  status: ('A' for Active; 'I' for Inactive)
REMARK    1  A    between atoms: C_1  and  C_2
REMARK    2  A    between atoms: C_2  and  O_3
REMARK    3  A    between atoms: O_3  and  C_4
REMARK    4  A    between atoms: C_7  and  C_13
REMARK    5  A    between atoms: C_9  and  O_10
REMARK    6  A    between atoms: O_10  and  C_11
REMARK    7  A    between atoms: C_11  and  C_12
REMARK    8  A    between atoms: C_13  and  N_14
REMARK    9  A    between atoms: C_15  and  C_17
REMARK   10  A    between atoms: C_27  and  C_33
REMARK                            x       y       z     vdW  Elec       q    Type
REMARK                         _______ _______ _______ _____ _____    ______ ____
ROOT
ATOM      1  N   UNL     1      -0.531  -7.799  -0.045  0.00  0.00    -0.311 N 
ATOM      2  C   UNL     1       0.328  -6.765  -0.141  0.00  0.00    +0.218 C 
ATOM      3  O   UNL     1       1.505  -6.971  -0.348  0.00  0.00    -0.275 OA
ATOM      4  H   UNL     1      -1.598  -7.612   0.143  0.00  0.00    +0.149 HD
ENDROOT
BRANCH   2   5
ATOM      5  C   UNL     1      -0.174  -5.352   0.010  0.00  0.00    +0.092 C 
ATOM      6  C   UNL     1      -1.221  -5.064  -1.069  0.00  0.00    +0.016 C 
ATOM      7  C   UNL     1      -1.682  -3.609  -0.947  0.00  0.00    +0.020 C 
ATOM      8  C   UNL     1      -0.470  -2.683  -1.074  0.00  0.00    +0.106 C 
ATOM      9  N   UNL     1       0.502  -2.998  -0.019  0.00  0.00    -0.315 N 
ATOM     10  C   UNL     1       0.994  -4.376  -0.145  0.00  0.00    +0.119 C 
ATOM     11  C   UNL     1       1.553  -2.092  -0.024  0.00  0.00    +0.107 A 
ATOM     12  C   UNL     1       1.780  -1.272   1.113  0.00  0.00    +0.027 A 
ATOM     13  C   UNL     1       1.053  -1.210   2.371  0.00  0.00    +0.022 A 
ATOM     14  C   UNL     1       1.452  -0.346   3.317  0.00  0.00    -0.012 A 
ATOM     15  S   UNL     1       2.857   0.463   2.576  0.00  0.00    -0.093 S 
ATOM     16  C   UNL     1       2.871  -0.380   1.019  0.00  0.00    +0.024 A 
ATOM     17  C   UNL     1       3.651  -0.329  -0.121  0.00  0.00    +0.033 A 
ATOM     18  C   UNL     1       3.351  -1.162  -1.165  0.00  0.00    +0.085 A 
ATOM     19  N   UNL     1       2.329  -2.001  -1.083  0.00  0.00    -0.349 N 
ATOM     20  C   UNL     1       0.850  -0.111   4.678  0.00  0.00    +0.051 C 
ATOM     21  H   UNL     1       2.144  -2.642  -1.958  0.00  0.00    +0.167 HD
ENDBRANCH   2   5
BRANCH   1  22
ATOM     22  C   UNL     1      -0.042  -9.173  -0.192  0.00  0.00    +0.139 C 
BRANCH  22  26
ATOM     23  C   UNL     1      -3.309 -11.900   0.235  0.00  0.00    +0.162 A 
ATOM     24  C   UNL     1      -2.578 -11.511   1.346  0.00  0.00    +0.050 A 
ATOM     25  C   UNL     1      -1.519 -10.633   1.204  0.00  0.00    +0.009 A 
ATOM     26  C   UNL     1      -1.194 -10.134  -0.044  0.00  0.00    -0.027 A 
ATOM     27  C   UNL     1      -1.919 -10.518  -1.156  0.00  0.00    +0.054 A 
ATOM     28  C   UNL     1      -2.978 -11.401  -1.022  0.00  0.00    +0.162 A 
BRANCH  23  29
ATOM     29  O   UNL     1      -4.347 -12.768   0.372  0.00  0.00    -0.489 OA
BRANCH  29  31
ATOM     30  C   UNL     1      -5.821 -14.197   1.647  0.00  0.00    +0.048 C 
ATOM     31  C   UNL     1      -4.629 -13.238   1.691  0.00  0.00    +0.226 C 
ENDBRANCH  29  31
ENDBRANCH  23  29
BRANCH  28  32
ATOM     32  O   UNL     1      -3.693 -11.780  -2.115  0.00  0.00    -0.489 OA
BRANCH  32  33
ATOM     33  C   UNL     1      -3.297 -11.228  -3.372  0.00  0.00    +0.226 C 
ATOM     34  C   UNL     1      -4.210 -11.765  -4.476  0.00  0.00    +0.048 C 
ENDBRANCH  32  33
ENDBRANCH  28  32
ENDBRANCH  22  26
ENDBRANCH   1  22
TORSDOF 7
