REMARK  Name = ZINC63514182
REMARK  11 active torsions:
REMARK  status: ('A' for Active; 'I' for Inactive)
REMARK    1  A    between atoms: C_1  and  C_2
REMARK    2  A    between atoms: C_5  and  O_30
REMARK    3  A    between atoms: C_6  and  S_8
REMARK    4  A    between atoms: S_8  and  N_11
REMARK    5  A    between atoms: N_11  and  C_12
REMARK    6  A    between atoms: C_12  and  C_13
REMARK    7  A    between atoms: C_13  and  C_14
REMARK    8  A    between atoms: C_17  and  O_25
REMARK    9  A    between atoms: C_22  and  C_24
REMARK   10  A    between atoms: O_25  and  C_26
REMARK   11  A    between atoms: O_30  and  C_31
REMARK                            x       y       z     vdW  Elec       q    Type
REMARK                         _______ _______ _______ _____ _____    ______ ____
ROOT
ATOM      1  C   UNL     1      -2.454  -5.628   1.717  0.00  0.00    +0.050 C 
ENDROOT
BRANCH   1   2
ATOM      2  C   UNL     1      -2.568  -6.646   0.611  0.00  0.00    -0.037 C 
ATOM      3  C   UNL     1      -1.827  -6.705  -0.519  0.00  0.00    +0.003 A 
ATOM      4  C   UNL     1      -0.738  -5.872  -1.039  0.00  0.00    +0.056 A 
ATOM      5  C   UNL     1      -0.173  -6.181  -2.231  0.00  0.00    +0.131 A 
ATOM      6  C   UNL     1      -0.595  -7.281  -2.999  0.00  0.00    +0.048 A 
ATOM      7  C   UNL     1      -1.589  -8.104  -2.604  0.00  0.00    +0.029 A 
ATOM      8  C   UNL     1      -2.271  -7.863  -1.329  0.00  0.00    +0.043 A 
ATOM      9  N   UNL     1      -3.245  -8.495  -0.724  0.00  0.00    -0.378 N 
ATOM     10  C   UNL     1      -3.529  -7.812   0.544  0.00  0.00    +0.103 C 
ATOM     11  C   UNL     1      -4.973  -7.308   0.557  0.00  0.00    +0.035 C 
ATOM     12  H   UNL     1      -3.701  -9.284  -1.056  0.00  0.00    +0.160 HD
BRANCH   5  13
ATOM     13  O   UNL     1       0.836  -5.401  -2.701  0.00  0.00    -0.406 OA
BRANCH  13  14
ATOM     14  C   UNL     1       1.402  -5.762  -3.962  0.00  0.00    +0.575 C 
ATOM     15  F   UNL     1       0.409  -5.727  -4.947  0.00  0.00    -0.133 F 
ATOM     16  F   UNL     1       2.419  -4.860  -4.293  0.00  0.00    -0.133 F 
ATOM     17  F   UNL     1       1.933  -7.054  -3.881  0.00  0.00    -0.133 F 
ENDBRANCH  13  14
ENDBRANCH   5  13
ENDBRANCH   1   2
BRANCH   1  18
ATOM     18  C   UNL     1      -1.317  -4.655   1.399  0.00  0.00    +0.110 C 
BRANCH  18  19
ATOM     19  N   UNL     1      -1.184  -3.687   2.490  0.00  0.00    -0.190 NA
ATOM     20  H   UNL     1      -0.659  -3.909   3.275  0.00  0.00    +0.148 HD
BRANCH  19  21
ATOM     21  S   UNL     1      -1.931  -2.213   2.384  0.00  0.00    +0.062 S 
ATOM     22  O   UNL     1      -1.619  -1.691   1.100  0.00  0.00    -0.153 OA
ATOM     23  O   UNL     1      -1.626  -1.515   3.584  0.00  0.00    -0.153 OA
BRANCH  21  29
ATOM     24  C   UNL     1      -6.592  -2.033   4.740  0.00  0.00    +0.044 C 
ATOM     25  C   UNL     1      -5.779  -2.400   3.525  0.00  0.00    -0.048 A 
ATOM     26  C   UNL     1      -6.398  -2.967   2.426  0.00  0.00    +0.007 A 
ATOM     27  C   UNL     1      -5.654  -3.305   1.312  0.00  0.00    +0.048 A 
ATOM     28  C   UNL     1      -4.286  -3.075   1.296  0.00  0.00    +0.146 A 
ATOM     29  C   UNL     1      -3.668  -2.506   2.400  0.00  0.00    +0.147 A 
ATOM     30  C   UNL     1      -4.417  -2.165   3.510  0.00  0.00    +0.035 A 
BRANCH  28  31
ATOM     31  O   UNL     1      -3.553  -3.408   0.202  0.00  0.00    -0.493 OA
ATOM     32  C   UNL     1      -4.247  -4.034  -0.879  0.00  0.00    +0.277 C 
ENDBRANCH  28  31
ENDBRANCH  21  29
ENDBRANCH  19  21
ENDBRANCH  18  19
ENDBRANCH   1  18
TORSDOF 8
