REMARK  Name = ZINC23508682
REMARK  9 active torsions:
REMARK  status: ('A' for Active; 'I' for Inactive)
REMARK    1  A    between atoms: C_1  and  C_2
REMARK    2  A    between atoms: C_2  and  O_3
REMARK    3  A    between atoms: O_3  and  C_4
REMARK    4  A    between atoms: C_9  and  C_10
REMARK    5  A    between atoms: C_12  and  C_15
REMARK    6  A    between atoms: C_15  and  C_16
REMARK    7  A    between atoms: N_18  and  C_19
REMARK    8  A    between atoms: C_19  and  C_25
REMARK    9  A    between atoms: C_27  and  C_30
REMARK                            x       y       z     vdW  Elec       q    Type
REMARK                         _______ _______ _______ _____ _____    ______ ____
ROOT
ATOM      1  C   UNL     1       3.756   2.490   1.388  0.00  0.00    +0.220 C 
ATOM      2  O   UNL     1       3.083   3.119   0.599  0.00  0.00    -0.275 OA
ATOM      3  N   UNL     1       4.011   1.186   1.166  0.00  0.00    -0.302 N 
ATOM      4  H   UNL     1       4.622   0.615   1.882  0.00  0.00    +0.150 HD
ENDROOT
BRANCH   3   5
ATOM      5  C   UNL     1       3.476   0.527  -0.028  0.00  0.00    +0.097 C 
ATOM      6  C   UNL     1       4.011   1.227  -1.279  0.00  0.00    +0.034 C 
ATOM      7  C   UNL     1       5.539   1.147  -1.294  0.00  0.00    +0.003 C 
ATOM      8  C   UNL     1       5.973  -0.320  -1.306  0.00  0.00    +0.000 C 
ATOM      9  C   UNL     1       5.438  -1.020  -0.055  0.00  0.00    +0.003 C 
ATOM     10  C   UNL     1       3.910  -0.940  -0.040  0.00  0.00    +0.034 C 
BRANCH   5  11
ATOM     11  C   UNL     1       1.972   0.606  -0.013  0.00  0.00    +0.195 A 
ATOM     12  N   UNL     1       1.233   1.730  -0.000  0.00  0.00    -0.194 NA
ATOM     13  C   UNL     1      -0.016   1.332   0.009  0.00  0.00    +0.224 A 
ATOM     14  O   UNL     1       0.002  -0.004   0.002  0.00  0.00    -0.338 OA
ATOM     15  N   UNL     1       1.149  -0.400  -0.011  0.00  0.00    -0.059 NA
ATOM     16  C   UNL     1      -1.239   2.213   0.020  0.00  0.00    +0.112 C 
ENDBRANCH   5  11
ENDBRANCH   3   5
BRANCH   1  17
ATOM     17  C   UNL     1       4.306   3.167   2.617  0.00  0.00    +0.151 C 
BRANCH  17  20
ATOM     18  C   UNL     1       3.779   6.659   1.584  0.00  0.00    +0.112 A 
ATOM     19  N   UNL     1       4.148   5.386   1.602  0.00  0.00    -0.243 NA
ATOM     20  C   UNL     1       3.879   4.612   2.628  0.00  0.00    +0.058 A 
ATOM     21  C   UNL     1       3.220   5.119   3.703  0.00  0.00    +0.071 A 
ATOM     22  S   UNL     1       2.978   6.810   3.175  0.00  0.00    -0.075 S 
BRANCH  18  28
ATOM     23  C   UNL     1       3.506   8.984   0.721  0.00  0.00    +0.130 A 
ATOM     24  C   UNL     1       3.706   9.935  -0.266  0.00  0.00    +0.046 A 
ATOM     25  C   UNL     1       4.362   9.595  -1.434  0.00  0.00    +0.004 A 
ATOM     26  C   UNL     1       4.828   8.305  -1.624  0.00  0.00    +0.001 A 
ATOM     27  C   UNL     1       4.642   7.348  -0.648  0.00  0.00    +0.014 A 
ATOM     28  C   UNL     1       3.982   7.680   0.535  0.00  0.00    +0.049 A 
BRANCH  23  29
ATOM     29  O   UNL     1       2.857   9.316   1.867  0.00  0.00    -0.492 OA
BRANCH  29  31
ATOM     30  C   UNL     1       1.698  10.848   3.333  0.00  0.00    +0.048 C 
ATOM     31  C   UNL     1       2.400  10.665   1.986  0.00  0.00    +0.226 C 
ENDBRANCH  29  31
ENDBRANCH  23  29
ENDBRANCH  18  28
ENDBRANCH  17  20
ENDBRANCH   1  17
TORSDOF 7
