REMARK  Name = ZINC63513802
REMARK  7 active torsions:
REMARK  status: ('A' for Active; 'I' for Inactive)
REMARK    1  A    between atoms: C_5  and  C_7
REMARK    2  A    between atoms: C_7  and  N_8
REMARK    3  A    between atoms: N_18  and  C_23
REMARK    4  A    between atoms: C_23  and  C_24
REMARK    5  A    between atoms: N_26  and  C_27
REMARK    6  A    between atoms: C_27  and  C_28
REMARK    7  A    between atoms: C_28  and  C_29
REMARK                            x       y       z     vdW  Elec       q    Type
REMARK                         _______ _______ _______ _____ _____    ______ ____
ROOT
ATOM      1  N   UNL     1       1.369  -2.677   1.351  0.00  0.00    -0.310 N 
ATOM      2  C   UNL     1       2.580  -2.898   2.019  0.00  0.00    +0.038 A 
ATOM      3  C   UNL     1       3.883  -2.869   1.537  0.00  0.00    +0.024 A 
ATOM      4  C   UNL     1       4.946  -3.138   2.377  0.00  0.00    +0.002 A 
ATOM      5  C   UNL     1       4.727  -3.439   3.709  0.00  0.00    +0.001 A 
ATOM      6  C   UNL     1       3.442  -3.466   4.211  0.00  0.00    +0.010 A 
ATOM      7  C   UNL     1       2.358  -3.189   3.376  0.00  0.00    +0.003 A 
ATOM      8  C   UNL     1       0.919  -3.106   3.623  0.00  0.00    +0.006 C 
ATOM      9  C   UNL     1       0.190  -3.066   4.744  0.00  0.00    +0.094 C 
ATOM     10  N   UNL     1      -1.185  -2.873   4.503  0.00  0.00    -0.268 N 
ATOM     11  N   UNL     1      -1.517  -1.932   3.500  0.00  0.00    -0.212 N 
ATOM     12  C   UNL     1      -0.788  -1.946   2.344  0.00  0.00    +0.257 C 
ATOM     13  O   UNL     1      -0.980  -1.147   1.452  0.00  0.00    -0.272 OA
ATOM     14  C   UNL     1       0.272  -3.011   2.249  0.00  0.00    +0.194 C 
ATOM     15  H   UNL     1      -1.865  -3.358   4.997  0.00  0.00    +0.170 HD
ENDROOT
BRANCH   1  16
ATOM     16  C   UNL     1       1.228  -2.186  -0.022  0.00  0.00    +0.144 C 
BRANCH  16  21
ATOM     17  C   UNL     1       2.583  -4.620  -2.570  0.00  0.00    +0.000 A 
ATOM     18  C   UNL     1       1.505  -5.468  -2.745  0.00  0.00    +0.003 A 
ATOM     19  C   UNL     1       0.336  -5.254  -2.040  0.00  0.00    +0.038 A 
ATOM     20  C   UNL     1       0.245  -4.191  -1.157  0.00  0.00    +0.128 A 
ATOM     21  C   UNL     1       1.326  -3.344  -0.982  0.00  0.00    +0.005 A 
ATOM     22  C   UNL     1       2.494  -3.559  -1.689  0.00  0.00    +0.008 A 
ATOM     23  F   UNL     1      -0.897  -3.981  -0.467  0.00  0.00    -0.205 F 
ENDBRANCH  16  21
ENDBRANCH   1  16
BRANCH  11  24
ATOM     24  C   UNL     1      -2.609  -0.975   3.693  0.00  0.00    +0.226 C 
BRANCH  24  25
ATOM     25  C   UNL     1      -3.898  -1.574   3.193  0.00  0.00    +0.232 C 
ATOM     26  O   UNL     1      -3.904  -2.691   2.721  0.00  0.00    -0.274 OA
ATOM     27  N   UNL     1      -5.044  -0.869   3.269  0.00  0.00    -0.314 N 
ATOM     28  H   UNL     1      -5.039   0.025   3.647  0.00  0.00    +0.149 HD
BRANCH  27  29
ATOM     29  C   UNL     1      -6.296  -1.452   2.783  0.00  0.00    +0.108 C 
BRANCH  29  30
ATOM     30  C   UNL     1      -7.437  -0.452   2.985  0.00  0.00    +0.052 C 
BRANCH  30  31
ATOM     31  C   UNL     1      -8.725  -1.051   2.484  0.00  0.00    -0.040 C 
ATOM     32  C   UNL     1      -9.657  -1.703   3.216  0.00  0.00    -0.001 A 
ATOM     33  C   UNL     1      -9.746  -2.037   4.643  0.00  0.00    +0.010 A 
ATOM     34  C   UNL     1     -10.827  -2.714   5.092  0.00  0.00    +0.001 A 
ATOM     35  C   UNL     1     -11.863  -3.104   4.231  0.00  0.00    +0.002 A 
ATOM     36  C   UNL     1     -11.852  -2.833   2.908  0.00  0.00    +0.026 A 
ATOM     37  C   UNL     1     -10.764  -2.126   2.328  0.00  0.00    +0.043 A 
ATOM     38  N   UNL     1     -10.525  -1.750   1.095  0.00  0.00    -0.380 N 
ATOM     39  C   UNL     1      -9.242  -1.040   1.063  0.00  0.00    +0.144 C 
ATOM     40  H   UNL     1     -11.103  -1.910   0.333  0.00  0.00    +0.160 HD
ENDBRANCH  30  31
ENDBRANCH  29  30
ENDBRANCH  27  29
ENDBRANCH  24  25
ENDBRANCH  11  24
TORSDOF 7
