REMARK  Name = ZINC56902140
REMARK  11 active torsions:
REMARK  status: ('A' for Active; 'I' for Inactive)
REMARK    1  A    between atoms: C_1  and  C_2
REMARK    2  A    between atoms: C_2  and  O_3
REMARK    3  A    between atoms: O_3  and  C_4
REMARK    4  A    between atoms: C_11  and  C_13
REMARK    5  A    between atoms: N_15  and  C_16
REMARK    6  A    between atoms: C_16  and  C_17
REMARK    7  A    between atoms: C_17  and  N_18
REMARK    8  A    between atoms: N_18  and  C_19
REMARK    9  A    between atoms: N_18  and  C_20
REMARK   10  A    between atoms: C_26  and  O_30
REMARK   11  A    between atoms: O_30  and  C_31
REMARK                            x       y       z     vdW  Elec       q    Type
REMARK                         _______ _______ _______ _____ _____    ______ ____
ROOT
ATOM      1  C   UNL     1       3.149  -2.480   5.666  0.00  0.00    +0.288 C 
ATOM      2  O   UNL     1       3.481  -3.397   6.393  0.00  0.00    -0.266 OA
ATOM      3  N   UNL     1       3.616  -1.237   5.894  0.00  0.00    -0.246 N 
ATOM      4  C   UNL     1       4.561  -1.023   6.884  0.00  0.00    +0.168 A 
ATOM      5  N   UNL     1       5.124   0.103   7.255  0.00  0.00    -0.224 NA
ATOM      6  C   UNL     1       6.040   0.165   8.247  0.00  0.00    +0.081 A 
ATOM      7  C   UNL     1       6.717   1.304   8.739  0.00  0.00    +0.032 A 
ATOM      8  C   UNL     1       7.625   1.195   9.759  0.00  0.00    +0.048 A 
ATOM      9  C   UNL     1       7.912  -0.033  10.347  0.00  0.00    +0.131 A 
ATOM     10  C   UNL     1       7.265  -1.171   9.889  0.00  0.00    +0.063 A 
ATOM     11  C   UNL     1       6.355  -1.066   8.866  0.00  0.00    +0.044 A 
ATOM     12  S   UNL     1       5.316  -2.209   7.988  0.00  0.00    -0.052 S 
ENDROOT
BRANCH   1  20
ATOM     13  C   UNL     1       0.156  -1.784   1.764  0.00  0.00    +0.163 A 
ATOM     14  C   UNL     1      -0.570  -2.624   0.940  0.00  0.00    +0.049 A 
ATOM     15  C   UNL     1      -0.554  -3.997   1.137  0.00  0.00    +0.004 A 
ATOM     16  C   UNL     1       0.180  -4.543   2.152  0.00  0.00    +0.012 A 
ATOM     17  C   UNL     1       0.922  -3.714   2.998  0.00  0.00    +0.025 A 
ATOM     18  C   UNL     1       0.917  -2.321   2.802  0.00  0.00    +0.177 A 
ATOM     19  O   UNL     1       1.711  -1.774   3.744  0.00  0.00    -0.447 OA
ATOM     20  C   UNL     1       2.240  -2.727   4.539  0.00  0.00    +0.191 A 
ATOM     21  C   UNL     1       1.793  -3.950   4.148  0.00  0.00    +0.063 A 
BRANCH  13  22
ATOM     22  O   UNL     1       0.133  -0.440   1.561  0.00  0.00    -0.489 OA
BRANCH  22  24
ATOM     23  C   UNL     1      -0.571   1.563   0.406  0.00  0.00    +0.048 C 
ATOM     24  C   UNL     1      -0.669   0.038   0.478  0.00  0.00    +0.226 C 
ENDBRANCH  22  24
ENDBRANCH  13  22
ENDBRANCH   1  20
BRANCH   3  25
ATOM     25  C   UNL     1       3.125  -0.111   5.095  0.00  0.00    +0.097 C 
BRANCH  25  26
ATOM     26  C   UNL     1       1.826   0.419   5.706  0.00  0.00    -0.060 C 
BRANCH  26  27
ATOM     27  N   UNL     1       1.334   1.548   4.904  0.00  0.00    +0.377 N 
ATOM     28  C   UNL     1       0.968   1.073   3.563  0.00  0.00    -0.097 C 
ATOM     29  C   UNL     1       0.154   2.133   5.556  0.00  0.00    -0.097 C 
ATOM     30  H   UNL     1       2.057   2.247   4.828  0.00  0.00    -0.083 HD
ENDBRANCH  26  27
ENDBRANCH  25  26
ENDBRANCH   3  25
BRANCH   9  31
ATOM     31  O   UNL     1       8.817  -0.117  11.359  0.00  0.00    -0.406 OA
BRANCH  31  32
ATOM     32  C   UNL     1       9.441   1.100  11.773  0.00  0.00    +0.575 C 
ATOM     33  F   UNL     1       8.464   1.998  12.217  0.00  0.00    -0.133 F 
ATOM     34  F   UNL     1      10.336   0.834  12.815  0.00  0.00    -0.133 F 
ATOM     35  F   UNL     1      10.134   1.660  10.694  0.00  0.00    -0.133 F 
ENDBRANCH  31  32
ENDBRANCH   9  31
TORSDOF 8
