REMARK  Name = ZINC10144677
REMARK  9 active torsions:
REMARK  status: ('A' for Active; 'I' for Inactive)
REMARK    1  A    between atoms: C_1  and  C_2
REMARK    2  A    between atoms: C_7  and  N_8
REMARK    3  A    between atoms: C_21  and  S_22
REMARK    4  A    between atoms: S_22  and  C_23
REMARK    5  A    between atoms: C_23  and  C_24
REMARK    6  A    between atoms: N_26  and  C_27
REMARK    7  A    between atoms: N_26  and  C_28
REMARK    8  A    between atoms: C_28  and  C_29
REMARK    9  A    between atoms: N_31  and  C_32
REMARK                            x       y       z     vdW  Elec       q    Type
REMARK                         _______ _______ _______ _____ _____    ______ ____
ROOT
ATOM      1  N   UNL     1      -1.186   1.881   0.018  0.00  0.00    -0.245 N 
ATOM      2  C   UNL     1      -0.014   1.212   0.009  0.00  0.00    +0.268 A 
ATOM      3  O   UNL     1       0.002  -0.004   0.002  0.00  0.00    -0.267 OA
ATOM      4  C   UNL     1       1.245   1.978   0.001  0.00  0.00    +0.064 A 
ATOM      5  C   UNL     1       2.482   1.335  -0.013  0.00  0.00    +0.015 A 
ATOM      6  C   UNL     1       3.639   2.085  -0.020  0.00  0.00    +0.001 A 
ATOM      7  C   UNL     1       3.577   3.469  -0.013  0.00  0.00    +0.002 A 
ATOM      8  C   UNL     1       2.358   4.118   0.001  0.00  0.00    +0.027 A 
ATOM      9  C   UNL     1       1.183   3.381   0.008  0.00  0.00    +0.064 A 
ATOM     10  N   UNL     1      -0.058   4.003   0.023  0.00  0.00    -0.255 N 
ATOM     11  C   UNL     1      -1.215   3.267   0.030  0.00  0.00    +0.245 A 
ATOM     12  N   UNL     1      -2.209   4.122   0.045  0.00  0.00    -0.109 NA
ATOM     13  N   UNL     1      -1.758   5.325   0.047  0.00  0.00    -0.120 NA
ATOM     14  C   UNL     1      -0.447   5.316   0.034  0.00  0.00    +0.198 A 
ENDROOT
BRANCH   1  21
ATOM     15  C   UNL     1      -2.360   1.218  -2.488  0.00  0.00    +0.046 C 
ATOM     16  C   UNL     1      -2.996   0.822  -1.181  0.00  0.00    -0.026 A 
ATOM     17  C   UNL     1      -4.181   0.111  -1.175  0.00  0.00    +0.005 A 
ATOM     18  C   UNL     1      -4.768  -0.248   0.024  0.00  0.00    +0.000 A 
ATOM     19  C   UNL     1      -4.169   0.099   1.222  0.00  0.00    +0.002 A 
ATOM     20  C   UNL     1      -2.982   0.804   1.223  0.00  0.00    +0.026 A 
ATOM     21  C   UNL     1      -2.389   1.166   0.020  0.00  0.00    +0.056 A 
ENDBRANCH   1  21
BRANCH  14  22
ATOM     22  S   UNL     1       0.612   6.723   0.033  0.00  0.00    -0.076 S 
BRANCH  22  23
ATOM     23  C   UNL     1      -0.530   8.133   0.051  0.00  0.00    +0.173 C 
BRANCH  23  24
ATOM     24  C   UNL     1       0.257   9.418   0.051  0.00  0.00    +0.226 C 
ATOM     25  O   UNL     1       1.470   9.386   0.040  0.00  0.00    -0.275 OA
ATOM     26  N   UNL     1      -0.386  10.602   0.064  0.00  0.00    -0.295 N 
ATOM     27  C   UNL     1      -1.851  10.640   0.077  0.00  0.00    +0.132 C 
BRANCH  26  28
ATOM     28  C   UNL     1       0.379  11.851   0.064  0.00  0.00    +0.203 C 
BRANCH  28  29
ATOM     29  C   UNL     1       0.629  12.287  -1.357  0.00  0.00    +0.231 C 
ATOM     30  O   UNL     1       0.209  11.621  -2.279  0.00  0.00    -0.274 OA
ATOM     31  N   UNL     1       1.319  13.419  -1.603  0.00  0.00    -0.311 N 
ATOM     32  H   UNL     1       1.655  13.952  -0.866  0.00  0.00    +0.149 HD
BRANCH  31  33
ATOM     33  C   UNL     1       1.561  13.843  -2.984  0.00  0.00    +0.073 C 
ATOM     34  C   UNL     1       2.964  14.344  -3.333  0.00  0.00    +0.024 C 
ATOM     35  C   UNL     1       1.801  15.333  -3.234  0.00  0.00    +0.024 C 
ENDBRANCH  31  33
ENDBRANCH  28  29
ENDBRANCH  26  28
ENDBRANCH  23  24
ENDBRANCH  22  23
ENDBRANCH  14  22
TORSDOF 7
