REMARK  Name = ZINC35665407
REMARK  11 active torsions:
REMARK  status: ('A' for Active; 'I' for Inactive)
REMARK    1  A    between atoms: C_1  and  C_2
REMARK    2  A    between atoms: C_2  and  O_3
REMARK    3  A    between atoms: O_3  and  C_4
REMARK    4  A    between atoms: C_4  and  C_6
REMARK    5  A    between atoms: C_7  and  C_24
REMARK    6  A    between atoms: N_8  and  C_21
REMARK    7  A    between atoms: C_12  and  C_14
REMARK    8  A    between atoms: C_19  and  C_20
REMARK    9  A    between atoms: C_21  and  C_22
REMARK   10  A    between atoms: C_24  and  N_25
REMARK   11  A    between atoms: C_31  and  C_33
REMARK                            x       y       z     vdW  Elec       q    Type
REMARK                         _______ _______ _______ _____ _____    ______ ____
ROOT
ATOM      1  C   UNL     1       1.661  -3.456  -2.654  0.00  0.00    +0.080 C 
ATOM      2  C   UNL     1       1.463  -4.730  -3.054  0.00  0.00    +0.041 C 
ATOM      3  N   UNL     1       2.395  -5.386  -3.807  0.00  0.00    -0.254 N 
ATOM      4  C   UNL     1       3.552  -4.837  -4.199  0.00  0.00    +0.307 C 
ATOM      5  O   UNL     1       4.320  -5.500  -4.868  0.00  0.00    -0.252 OA
ATOM      6  N   UNL     1       3.891  -3.573  -3.877  0.00  0.00    -0.288 N 
ATOM      7  C   UNL     1       2.949  -2.777  -3.072  0.00  0.00    +0.144 C 
ATOM      8  H   UNL     1       4.735  -3.195  -4.172  0.00  0.00    +0.151 HD
ENDROOT
BRANCH   7   9
ATOM      9  C   UNL     1       3.670  -2.337  -1.824  0.00  0.00    -0.020 A 
ATOM     10  C   UNL     1       4.213  -3.280  -0.971  0.00  0.00    +0.006 A 
ATOM     11  C   UNL     1       4.873  -2.877   0.175  0.00  0.00    +0.000 A 
ATOM     12  C   UNL     1       4.992  -1.530   0.467  0.00  0.00    +0.000 A 
ATOM     13  C   UNL     1       4.449  -0.588  -0.387  0.00  0.00    +0.004 A 
ATOM     14  C   UNL     1       3.792  -0.991  -1.534  0.00  0.00    -0.045 A 
ATOM     15  C   UNL     1       3.206   0.036  -2.468  0.00  0.00    +0.044 C 
ENDBRANCH   7   9
BRANCH   1  16
ATOM     16  C   UNL     1       0.696  -2.776  -1.875  0.00  0.00    +0.339 C 
ATOM     17  O   UNL     1      -0.271  -3.376  -1.444  0.00  0.00    -0.245 OA
BRANCH  16  18
ATOM     18  O   UNL     1       0.847  -1.462  -1.609  0.00  0.00    -0.462 OA
BRANCH  18  20
ATOM     19  C   UNL     1       0.298   0.586  -0.448  0.00  0.00    +0.048 C 
ATOM     20  C   UNL     1      -0.103  -0.864  -0.725  0.00  0.00    +0.229 C 
ENDBRANCH  18  20
ENDBRANCH  16  18
ENDBRANCH   1  16
BRANCH   3  21
ATOM     21  C   UNL     1       2.115  -6.767  -4.206  0.00  0.00    +0.141 C 
BRANCH  21  22
ATOM     22  C   UNL     1       1.489  -6.776  -5.577  0.00  0.00    -0.015 C 
ATOM     23  C   UNL     1       2.029  -7.483  -6.539  0.00  0.00    +0.005 C 
ENDBRANCH  21  22
ENDBRANCH   3  21
BRANCH   2  24
ATOM     24  C   UNL     1       0.193  -5.441  -2.664  0.00  0.00    +0.136 C 
BRANCH  24  25
ATOM     25  N   UNL     1       0.445  -6.287  -1.490  0.00  0.00    -0.294 NA
ATOM     26  C   UNL     1       0.656  -5.470  -0.288  0.00  0.00    +0.104 C 
ATOM     27  C   UNL     1       1.094  -6.374   0.870  0.00  0.00    +0.123 C 
ATOM     28  N   UNL     1       0.107  -7.455   1.017  0.00  0.00    -0.293 N 
ATOM     29  C   UNL     1      -0.259  -8.230  -0.177  0.00  0.00    +0.123 C 
ATOM     30  C   UNL     1      -0.643  -7.253  -1.294  0.00  0.00    +0.104 C 
ATOM     31  C   UNL     1      -0.447  -7.726   2.216  0.00  0.00    +0.282 C 
ATOM     32  O   UNL     1      -0.218  -7.006   3.169  0.00  0.00    -0.267 OA
BRANCH  31  33
ATOM     33  C   UNL     1      -1.325  -8.891   2.370  0.00  0.00    +0.189 A 
ATOM     34  C   UNL     1      -2.040  -9.214   3.488  0.00  0.00    +0.054 A 
ATOM     35  C   UNL     1      -2.736 -10.397   3.193  0.00  0.00    +0.042 A 
ATOM     36  C   UNL     1      -2.420 -10.739   1.925  0.00  0.00    +0.196 A 
ATOM     37  O   UNL     1      -1.573  -9.827   1.431  0.00  0.00    -0.458 OA
ENDBRANCH  31  33
ENDBRANCH  24  25
ENDBRANCH   2  24
TORSDOF 9
