REMARK  Name = ZINC39606481
REMARK  3 active torsions:
REMARK  status: ('A' for Active; 'I' for Inactive)
REMARK    1  A    between atoms: C_3  and  N_8
REMARK    2  A    between atoms: C_9  and  C_18
REMARK    3  A    between atoms: C_11  and  C_15
REMARK                            x       y       z     vdW  Elec       q    Type
REMARK                         _______ _______ _______ _____ _____    ______ ____
ROOT
ATOM      1  N   UNL     1      -3.655   1.815   0.030  0.00  0.00    -0.193 N 
ATOM      2  C   UNL     1      -4.939   1.095   0.038  0.00  0.00    +0.223 C 
ATOM      3  C   UNL     1      -5.982   2.232   0.047  0.00  0.00    +0.176 C 
ATOM      4  C   UNL     1      -5.144   3.490   0.043  0.00  0.00    +0.120 C 
ATOM      5  N   UNL     1      -3.911   3.185   0.040  0.00  0.00    -0.189 NA
ENDROOT
BRANCH   1   8
ATOM      6  C   UNL     1      -0.017   1.389   0.010  0.00  0.00    +0.077 A 
ATOM      7  C   UNL     1      -1.248   2.022   0.019  0.00  0.00    +0.052 A 
ATOM      8  C   UNL     1      -2.393   1.225   0.020  0.00  0.00    +0.164 A 
ATOM      9  N   UNL     1      -2.277  -0.093   0.012  0.00  0.00    -0.129 NA
ATOM     10  N   UNL     1      -1.135  -0.678   0.004  0.00  0.00    -0.105 NA
ATOM     11  C   UNL     1       0.002  -0.004   0.002  0.00  0.00    +0.289 A 
ATOM     12  O   UNL     1       1.186  -0.668  -0.012  0.00  0.00    -0.264 OA
ENDBRANCH   1   8
BRANCH   2  13
ATOM     13  C   UNL     1      -5.084   0.235  -1.219  0.00  0.00    +0.411 C 
ATOM     14  F   UNL     1      -4.061  -0.719  -1.252  0.00  0.00    -0.169 F 
ATOM     15  F   UNL     1      -6.325  -0.411  -1.202  0.00  0.00    -0.169 F 
ATOM     16  F   UNL     1      -4.998   1.050  -2.354  0.00  0.00    -0.169 F 
ENDBRANCH   2  13
BRANCH   3  17
ATOM     17  C   UNL     1      -6.830   2.161   1.291  0.00  0.00    +0.366 C 
ATOM     18  O   UNL     1      -7.298   3.181   1.769  0.00  0.00    -0.246 OA
ATOM     19  O   UNL     1      -7.049   1.084   1.819  0.00  0.00    -0.246 OA
ENDBRANCH   3  17
TORSDOF 3
