REMARK  Name = ZINC13499392
REMARK  10 active torsions:
REMARK  status: ('A' for Active; 'I' for Inactive)
REMARK    1  A    between atoms: C_1  and  C_2
REMARK    2  A    between atoms: C_2  and  C_3
REMARK    3  A    between atoms: C_3  and  C_4
REMARK    4  A    between atoms: C_4  and  C_6
REMARK    5  A    between atoms: C_4  and  N_16
REMARK    6  A    between atoms: N_10  and  C_11
REMARK    7  A    between atoms: N_16  and  C_17
REMARK    8  A    between atoms: N_16  and  C_25
REMARK    9  A    between atoms: C_17  and  C_18
REMARK   10  A    between atoms: C_25  and  C_26
REMARK                            x       y       z     vdW  Elec       q    Type
REMARK                         _______ _______ _______ _____ _____    ______ ____
ROOT
ATOM      1  N   UNL     1      -0.947  -2.732  -1.565  0.00  0.00    -0.284 NA
ENDROOT
BRANCH   1   2
ATOM      2  C   UNL     1      -2.020  -2.539  -0.581  0.00  0.00    +0.127 C 
BRANCH   2   3
ATOM      3  C   UNL     1      -3.253  -3.280  -1.031  0.00  0.00    +0.169 A 
ATOM      4  N   UNL     1      -3.758  -3.299  -2.241  0.00  0.00    -0.112 NA
ATOM      5  N   UNL     1      -4.809  -4.043  -2.222  0.00  0.00    -0.023 NA
ATOM      6  N   UNL     1      -4.988  -4.500  -1.032  0.00  0.00    -0.044 NA
ATOM      7  N   UNL     1      -4.046  -4.057  -0.270  0.00  0.00    -0.225 N 
BRANCH   7   8
ATOM      8  C   UNL     1      -3.875  -4.342   1.157  0.00  0.00    +0.111 C 
ATOM      9  C   UNL     1      -3.773  -5.864   1.383  0.00  0.00    +0.027 C 
ATOM     10  C   UNL     1      -4.527  -6.102   2.716  0.00  0.00    +0.002 C 
ATOM     11  C   UNL     1      -5.713  -5.110   2.619  0.00  0.00    +0.002 C 
ATOM     12  C   UNL     1      -5.108  -3.862   1.942  0.00  0.00    +0.027 C 
ENDBRANCH   7   8
ENDBRANCH   2   3
BRANCH   2  13
ATOM     13  C   UNL     1      -2.338  -1.048  -0.460  0.00  0.00    +0.026 C 
BRANCH  13  15
ATOM     14  C   UNL     1      -1.470   1.157   0.333  0.00  0.00    +0.004 C 
ATOM     15  C   UNL     1      -1.107  -0.305   0.064  0.00  0.00    -0.001 C 
ENDBRANCH  13  15
ENDBRANCH   2  13
ENDBRANCH   1   2
BRANCH   1  16
ATOM     16  C   UNL     1      -1.090  -1.798  -2.690  0.00  0.00    +0.120 C 
BRANCH  16  17
ATOM     17  C   UNL     1      -0.172  -2.217  -3.810  0.00  0.00    -0.033 A 
ATOM     18  C   UNL     1       1.105  -1.695  -3.888  0.00  0.00    +0.008 A 
ATOM     19  C   UNL     1       1.948  -2.078  -4.914  0.00  0.00    +0.038 A 
ATOM     20  C   UNL     1       1.512  -2.986  -5.865  0.00  0.00    +0.123 A 
ATOM     21  C   UNL     1       0.232  -3.508  -5.786  0.00  0.00    +0.038 A 
ATOM     22  C   UNL     1      -0.607  -3.127  -4.755  0.00  0.00    +0.008 A 
ATOM     23  F   UNL     1       2.334  -3.361  -6.869  0.00  0.00    -0.205 F 
ENDBRANCH  16  17
ENDBRANCH   1  16
BRANCH   1  24
ATOM     24  C   UNL     1       0.374  -2.600  -0.936  0.00  0.00    +0.126 C 
BRANCH  24  25
ATOM     25  C   UNL     1       0.705  -3.869  -0.193  0.00  0.00    +0.031 A 
ATOM     26  C   UNL     1       1.394  -4.858  -0.817  0.00  0.00    +0.020 A 
ATOM     27  C   UNL     1       1.700  -6.077  -0.069  0.00  0.00    +0.003 A 
ATOM     28  C   UNL     1       2.407  -7.130  -0.662  0.00  0.00    +0.059 A 
ATOM     29  C   UNL     1       2.683  -8.267   0.069  0.00  0.00    +0.163 A 
ATOM     30  C   UNL     1       2.260  -8.369   1.398  0.00  0.00    +0.164 A 
ATOM     31  C   UNL     1       1.560  -7.333   1.991  0.00  0.00    +0.075 A 
ATOM     32  C   UNL     1       1.273  -6.182   1.269  0.00  0.00    +0.053 A 
ATOM     33  N   UNL     1       0.576  -5.139   1.845  0.00  0.00    -0.322 N 
ATOM     34  H   UNL     1       0.281  -5.213   2.766  0.00  0.00    +0.169 HD
ATOM     35  C   UNL     1       0.304  -4.021   1.149  0.00  0.00    +0.254 A 
ATOM     36  O   UNL     1      -0.310  -3.119   1.692  0.00  0.00    -0.268 OA
ATOM     37  O   UNL     1       2.536  -9.483   2.128  0.00  0.00    -0.485 OA
ATOM     38  C   UNL     1       2.911 -10.656   1.397  0.00  0.00    +0.270 C 
ATOM     39  C   UNL     1       3.957 -10.255   0.348  0.00  0.00    +0.270 C 
ATOM     40  O   UNL     1       3.368  -9.284  -0.523  0.00  0.00    -0.485 OA
ENDBRANCH  24  25
ENDBRANCH   1  24
TORSDOF 9
