REMARK  Name = ZINC04932162
REMARK  8 active torsions:
REMARK  status: ('A' for Active; 'I' for Inactive)
REMARK    1  A    between atoms: C_1  and  C_2
REMARK    2  A    between atoms: C_2  and  C_3
REMARK    3  A    between atoms: C_3  and  C_4
REMARK    4  A    between atoms: C_4  and  N_5
REMARK    5  A    between atoms: N_5  and  C_6
REMARK    6  A    between atoms: C_6  and  C_7
REMARK    7  A    between atoms: C_12  and  C_15
REMARK    8  A    between atoms: N_18  and  C_19
REMARK                            x       y       z     vdW  Elec       q    Type
REMARK                         _______ _______ _______ _____ _____    ______ ____
ROOT
ATOM      1  N   UNL     1      -4.339  -1.628   0.010  0.00  0.00    -0.277 N 
ATOM      2  C   UNL     1      -4.390  -2.306   1.174  0.00  0.00    +0.307 C 
ATOM      3  O   UNL     1      -4.355  -1.704   2.230  0.00  0.00    -0.252 OA
ATOM      4  N   UNL     1      -4.479  -3.651   1.167  0.00  0.00    -0.268 N 
ATOM      5  H   UNL     1      -4.589  -4.125   0.328  0.00  0.00    +0.156 HD
ENDROOT
BRANCH   4   6
ATOM      6  C   UNL     1      -4.413  -4.363   2.371  0.00  0.00    +0.055 A 
ATOM      7  C   UNL     1      -3.766  -3.813   3.470  0.00  0.00    +0.025 A 
ATOM      8  C   UNL     1      -3.702  -4.516   4.657  0.00  0.00    +0.003 A 
ATOM      9  C   UNL     1      -4.281  -5.769   4.752  0.00  0.00    +0.021 A 
ATOM     10  C   UNL     1      -4.926  -6.321   3.660  0.00  0.00    +0.061 A 
ATOM     11  C   UNL     1      -4.999  -5.618   2.470  0.00  0.00    +0.080 A 
ATOM     12 CL   UNL     1      -5.814  -6.308   1.101  0.00  0.00    -0.080 Cl
ATOM     13 CL   UNL     1      -5.652  -7.893   3.784  0.00  0.00    -0.082 Cl
ENDBRANCH   4   6
BRANCH   1  14
ATOM     14  C   UNL     1      -4.381  -2.353  -1.262  0.00  0.00    +0.110 C 
BRANCH  14  15
ATOM     15  C   UNL     1      -2.957  -2.701  -1.698  0.00  0.00    +0.019 C 
BRANCH  15  17
ATOM     16  C   UNL     1      -1.576  -3.806  -3.463  0.00  0.00    +0.004 C 
ATOM     17  C   UNL     1      -3.001  -3.458  -3.027  0.00  0.00    -0.002 C 
ENDBRANCH  15  17
ENDBRANCH  14  15
ENDBRANCH   1  14
BRANCH   1  18
ATOM     18  C   UNL     1      -4.243  -0.167   0.017  0.00  0.00    +0.205 C 
BRANCH  18  19
ATOM     19  C   UNL     1      -2.792   0.241   0.026  0.00  0.00    +0.236 C 
ATOM     20  O   UNL     1      -1.924  -0.606   0.027  0.00  0.00    -0.274 OA
ATOM     21  N   UNL     1      -2.458   1.547   0.034  0.00  0.00    -0.266 N 
ATOM     22  C   UNL     1      -1.115   1.924   0.042  0.00  0.00    +0.168 A 
ATOM     23  C   UNL     1       0.013   1.061   0.044  0.00  0.00    +0.091 A 
ATOM     24  C   UNL     1       1.069   1.905   0.047  0.00  0.00    +0.136 A 
ATOM     25  O   UNL     1       0.567   3.148   0.053  0.00  0.00    -0.358 OA
ATOM     26  N   UNL     1      -0.642   3.142   0.054  0.00  0.00    -0.063 NA
ATOM     27  C   UNL     1       2.527   1.523   0.044  0.00  0.00    +0.089 C 
ATOM     28  H   UNL     1      -3.152   2.224   0.033  0.00  0.00    +0.156 HD
ENDBRANCH  18  19
ENDBRANCH   1  18
TORSDOF 6
