REMARK  Name = ZINC20855950
REMARK  7 active torsions:
REMARK  status: ('A' for Active; 'I' for Inactive)
REMARK    1  A    between atoms: C_10  and  C_12
REMARK    2  A    between atoms: C_18  and  C_20
REMARK    3  A    between atoms: C_20  and  O_22
REMARK    4  A    between atoms: O_22  and  C_23
REMARK    5  A    between atoms: C_23  and  C_24
REMARK    6  A    between atoms: N_26  and  C_27
REMARK    7  A    between atoms: C_32  and  N_33
REMARK                            x       y       z     vdW  Elec       q    Type
REMARK                         _______ _______ _______ _____ _____    ______ ____
ROOT
ATOM      1  C   UNL     1       0.027   0.579   0.318  0.00  0.00    +0.311 C 
ATOM      2  O   UNL     1       0.319  -0.593   0.292  0.00  0.00    -0.251 OA
ENDROOT
BRANCH   1   8
ATOM      3  C   UNL     1       2.449   0.942  -0.071  0.00  0.00    +0.089 C 
ATOM      4  C   UNL     1       3.534   2.005  -0.260  0.00  0.00    +0.013 C 
ATOM      5  C   UNL     1       3.593   2.900   0.979  0.00  0.00    +0.001 C 
ATOM      6  C   UNL     1       2.239   3.583   1.181  0.00  0.00    +0.001 C 
ATOM      7  C   UNL     1       1.155   2.520   1.370  0.00  0.00    +0.015 C 
ATOM      8  C   UNL     1       1.095   1.625   0.131  0.00  0.00    +0.110 C 
BRANCH   3  18
ATOM      9  C   UNL     1       4.033  -3.357  -4.776  0.00  0.00    +0.000 A 
ATOM     10  C   UNL     1       2.896  -2.571  -4.812  0.00  0.00    +0.002 A 
ATOM     11  C   UNL     1       2.618  -1.705  -3.776  0.00  0.00    +0.024 A 
ATOM     12  C   UNL     1       3.482  -1.614  -2.683  0.00  0.00    +0.039 A 
ATOM     13  C   UNL     1       4.619  -2.406  -2.656  0.00  0.00    -0.024 A 
ATOM     14  C   UNL     1       4.893  -3.273  -3.697  0.00  0.00    +0.005 A 
ATOM     15  C   UNL     1       5.375  -2.120  -1.379  0.00  0.00    +0.056 C 
ATOM     16  C   UNL     1       4.535  -1.051  -0.662  0.00  0.00    +0.118 C 
ATOM     17  N   UNL     1       3.388  -0.811  -1.542  0.00  0.00    -0.271 N 
ATOM     18  C   UNL     1       2.391   0.061  -1.292  0.00  0.00    +0.224 C 
ATOM     19  O   UNL     1       1.446   0.136  -2.049  0.00  0.00    -0.275 OA
ENDBRANCH   3  18
ENDBRANCH   1   8
BRANCH   1  20
ATOM     20  O   UNL     1      -1.249   0.949   0.507  0.00  0.00    -0.455 OA
BRANCH  20  21
ATOM     21  C   UNL     1      -2.225  -0.113   0.673  0.00  0.00    +0.328 C 
BRANCH  21  22
ATOM     22  C   UNL     1      -3.593   0.488   0.872  0.00  0.00    +0.255 C 
ATOM     23  O   UNL     1      -3.731   1.693   0.874  0.00  0.00    -0.272 OA
ATOM     24  N   UNL     1      -4.662  -0.313   1.049  0.00  0.00    -0.281 N 
ATOM     25  H   UNL     1      -4.526  -1.401   1.132  0.00  0.00    +0.155 HD
BRANCH  24  26
ATOM     26  C   UNL     1      -5.946   0.240   1.127  0.00  0.00    +0.064 A 
ATOM     27  C   UNL     1      -6.139   1.464   1.756  0.00  0.00    +0.027 A 
ATOM     28  C   UNL     1      -7.406   2.007   1.831  0.00  0.00    +0.022 A 
ATOM     29  C   UNL     1      -8.483   1.334   1.282  0.00  0.00    +0.043 A 
ATOM     30  C   UNL     1      -8.293   0.115   0.655  0.00  0.00    +0.054 A 
ATOM     31  C   UNL     1      -7.027  -0.431   0.572  0.00  0.00    +0.149 A 
ATOM     32 CL   UNL     1     -10.075   2.020   1.379  0.00  0.00    -0.083 Cl
BRANCH  31  33
ATOM     33  N   UNL     1      -6.824  -1.732  -0.104  0.00  0.00    +0.058 N 
ATOM     34  O   UNL     1      -7.756  -2.279  -0.664  0.00  0.00    -0.126 OA
ATOM     35  O   UNL     1      -5.724  -2.255  -0.100  0.00  0.00    -0.126 OA
ENDBRANCH  31  33
ENDBRANCH  24  26
ENDBRANCH  21  22
ENDBRANCH  20  21
ENDBRANCH   1  20
TORSDOF 7
