REMARK  Name = ZINC36205790
REMARK  10 active torsions:
REMARK  status: ('A' for Active; 'I' for Inactive)
REMARK    1  A    between atoms: C_1  and  C_2
REMARK    2  A    between atoms: C_7  and  C_8
REMARK    3  A    between atoms: C_17  and  C_19
REMARK    4  A    between atoms: C_19  and  N_20
REMARK    5  A    between atoms: N_20  and  C_21
REMARK    6  A    between atoms: N_20  and  C_27
REMARK    7  A    between atoms: C_21  and  C_22
REMARK    8  A    between atoms: C_22  and  C_23
REMARK    9  A    between atoms: C_22  and  C_24
REMARK   10  A    between atoms: C_22  and  O_26
REMARK                            x       y       z     vdW  Elec       q    Type
REMARK                         _______ _______ _______ _____ _____    ______ ____
ROOT
ATOM      1  C   UNL     1      -0.098   0.415   1.964  0.00  0.00    +0.004 A 
ATOM      2  C   UNL     1       1.089   0.547   2.602  0.00  0.00    +0.056 A 
ATOM      3  S   UNL     1       0.690   1.566   4.009  0.00  0.00    -0.076 S 
ATOM      4  C   UNL     1      -1.045   1.789   3.710  0.00  0.00    +0.116 A 
ATOM      5  C   UNL     1      -1.273   1.073   2.524  0.00  0.00    +0.080 A 
ATOM      6  C   UNL     1      -2.620   1.087   2.040  0.00  0.00    +0.260 A 
ATOM      7  O   UNL     1      -2.917   0.490   1.019  0.00  0.00    -0.267 OA
ATOM      8  N   UNL     1      -3.553   1.769   2.729  0.00  0.00    -0.312 N 
ATOM      9  H   UNL     1      -4.468   1.783   2.406  0.00  0.00    +0.170 HD
ATOM     10  C   UNL     1      -3.240   2.439   3.868  0.00  0.00    +0.094 A 
ATOM     11  N   UNL     1      -2.022   2.437   4.339  0.00  0.00    -0.229 NA
ENDROOT
BRANCH   1  18
ATOM     12  C   UNL     1      -0.773   1.733  -0.522  0.00  0.00    +0.044 C 
ATOM     13  C   UNL     1      -0.525   0.247  -0.487  0.00  0.00    -0.043 A 
ATOM     14  C   UNL     1      -0.613  -0.496  -1.647  0.00  0.00    +0.004 A 
ATOM     15  C   UNL     1      -0.385  -1.860  -1.616  0.00  0.00    +0.000 A 
ATOM     16  C   UNL     1      -0.068  -2.487  -0.425  0.00  0.00    +0.001 A 
ATOM     17  C   UNL     1       0.022  -1.755   0.741  0.00  0.00    +0.009 A 
ATOM     18  C   UNL     1      -0.200  -0.379   0.716  0.00  0.00    -0.014 A 
ENDBRANCH   1  18
BRANCH  10  19
ATOM     19  C   UNL     1      -4.318   3.189   4.606  0.00  0.00    -0.003 C 
BRANCH  19  20
ATOM     20  N   UNL     1      -3.782   3.692   5.878  0.00  0.00    +0.388 N 
ATOM     21  H   UNL     1      -2.968   4.261   5.698  0.00  0.00    -0.081 HD
BRANCH  20  22
ATOM     22  C   UNL     1      -3.408   2.559   6.734  0.00  0.00    -0.068 C 
ATOM     23  C   UNL     1      -4.664   1.780   7.128  0.00  0.00    -0.015 C 
ATOM     24  C   UNL     1      -4.274   0.600   8.019  0.00  0.00    -0.002 C 
ATOM     25  C   UNL     1      -3.580   1.120   9.280  0.00  0.00    -0.000 C 
ATOM     26  C   UNL     1      -2.323   1.898   8.885  0.00  0.00    -0.002 C 
ATOM     27  C   UNL     1      -2.713   3.079   7.994  0.00  0.00    -0.015 C 
ENDBRANCH  20  22
BRANCH  20  28
ATOM     28  C   UNL     1      -4.805   4.500   6.555  0.00  0.00    -0.039 C 
BRANCH  28  29
ATOM     29  C   UNL     1      -5.050   5.784   5.759  0.00  0.00    +0.067 C 
ATOM     30  C   UNL     1      -3.716   6.489   5.504  0.00  0.00    +0.044 C 
BRANCH  29  31
ATOM     31  C   UNL     1      -5.958   6.696   6.544  0.00  0.00    -0.003 C 
ATOM     32  C   UNL     1      -7.111   7.062   6.042  0.00  0.00    +0.006 C 
ENDBRANCH  29  31
BRANCH  29  33
ATOM     33  O   UNL     1      -5.664   5.460   4.510  0.00  0.00    -0.387 OA
ATOM     34  H   UNL     1      -6.516   5.010   4.596  0.00  0.00    +0.210 HD
ENDBRANCH  29  33
ENDBRANCH  28  29
ENDBRANCH  20  28
ENDBRANCH  19  20
ENDBRANCH  10  19
TORSDOF 8
