REMARK  Name = ZINC15678223
REMARK  8 active torsions:
REMARK  status: ('A' for Active; 'I' for Inactive)
REMARK    1  A    between atoms: C_1  and  C_2
REMARK    2  A    between atoms: C_2  and  C_4
REMARK    3  A    between atoms: C_2  and  C_32
REMARK    4  A    between atoms: C_4  and  N_5
REMARK    5  A    between atoms: C_11  and  C_27
REMARK    6  A    between atoms: C_14  and  C_15
REMARK    7  A    between atoms: C_14  and  C_16
REMARK    8  A    between atoms: N_18  and  C_19
REMARK                            x       y       z     vdW  Elec       q    Type
REMARK                         _______ _______ _______ _____ _____    ______ ____
ROOT
ATOM      1  N   UNL     1       5.048  -3.165   2.691  0.00  0.00    -0.280 N 
ATOM      2  C   UNL     1       6.242  -3.459   3.258  0.00  0.00    +0.264 C 
ATOM      3  O   UNL     1       6.683  -2.817   4.194  0.00  0.00    -0.268 OA
ATOM      4  C   UNL     1       6.974  -4.593   2.686  0.00  0.00    +0.105 A 
ATOM      5  C   UNL     1       8.086  -5.254   3.130  0.00  0.00    +0.033 A 
ATOM      6  C   UNL     1       8.354  -6.277   2.218  0.00  0.00    +0.032 A 
ATOM      7  C   UNL     1       7.391  -6.219   1.223  0.00  0.00    +0.085 A 
ATOM      8  N   UNL     1       6.554  -5.189   1.501  0.00  0.00    -0.331 N 
ATOM      9  C   UNL     1       5.391  -4.692   0.760  0.00  0.00    +0.157 C 
ATOM     10  C   UNL     1       4.402  -4.064   1.742  0.00  0.00    +0.128 C 
ATOM     11  C   UNL     1       3.702  -5.180   2.520  0.00  0.00    +0.043 C 
ENDROOT
BRANCH   7  12
ATOM     12  C   UNL     1       7.292  -7.120   0.066  0.00  0.00    +0.151 A 
ATOM     13  C   UNL     1       8.077  -8.211  -0.169  0.00  0.00    +0.051 A 
ATOM     14  C   UNL     1       7.634  -8.774  -1.379  0.00  0.00    +0.042 A 
ATOM     15  C   UNL     1       6.619  -8.007  -1.827  0.00  0.00    +0.196 A 
ATOM     16  O   UNL     1       6.415  -7.009  -0.952  0.00  0.00    -0.461 OA
ENDBRANCH   7  12
BRANCH  10  17
ATOM     17  C   UNL     1       3.369  -3.291   0.964  0.00  0.00    +0.238 C 
ATOM     18  O   UNL     1       2.244  -3.730   0.847  0.00  0.00    -0.273 OA
ATOM     19  N   UNL     1       3.694  -2.111   0.399  0.00  0.00    -0.311 N 
ATOM     20  H   UNL     1       4.577  -1.734   0.538  0.00  0.00    +0.149 HD
BRANCH  19  21
ATOM     21  C   UNL     1       2.714  -1.399  -0.424  0.00  0.00    +0.073 C 
ATOM     22  C   UNL     1       3.039   0.096  -0.425  0.00  0.00    +0.022 C 
ATOM     23  C   UNL     1       1.828   0.881  -0.934  0.00  0.00    +0.002 C 
ATOM     24  C   UNL     1       2.166   1.524  -2.281  0.00  0.00    +0.000 C 
ATOM     25  C   UNL     1       2.898   0.508  -3.161  0.00  0.00    +0.000 C 
ATOM     26  C   UNL     1       1.895  -0.506  -3.714  0.00  0.00    +0.000 C 
ATOM     27  C   UNL     1       1.511  -1.495  -2.612  0.00  0.00    +0.002 C 
ATOM     28  C   UNL     1       2.768  -1.932  -1.857  0.00  0.00    +0.022 C 
ENDBRANCH  19  21
ENDBRANCH  10  17
BRANCH   1  29
ATOM     29  C   UNL     1       4.386  -1.905   3.040  0.00  0.00    +0.117 C 
BRANCH  29  31
ATOM     30  C   UNL     1       4.061  -2.612   5.414  0.00  0.00    +0.014 C 
ATOM     31  C   UNL     1       3.351  -2.160   4.137  0.00  0.00    +0.033 C 
BRANCH  31  32
ATOM     32  C   UNL     1       2.585  -0.891   4.410  0.00  0.00    -0.043 A 
ATOM     33  C   UNL     1       3.253   0.239   4.844  0.00  0.00    +0.004 A 
ATOM     34  C   UNL     1       2.551   1.404   5.090  0.00  0.00    +0.000 A 
ATOM     35  C   UNL     1       1.181   1.437   4.912  0.00  0.00    +0.000 A 
ATOM     36  C   UNL     1       0.513   0.305   4.482  0.00  0.00    +0.000 A 
ATOM     37  C   UNL     1       1.215  -0.859   4.232  0.00  0.00    +0.004 A 
ENDBRANCH  31  32
ENDBRANCH  29  31
ENDBRANCH   1  29
TORSDOF 6
