REMARK  Name = ZINC33937812
REMARK  6 active torsions:
REMARK  status: ('A' for Active; 'I' for Inactive)
REMARK    1  A    between atoms: C_1  and  C_2
REMARK    2  A    between atoms: C_2  and  O_4
REMARK    3  A    between atoms: O_4  and  C_5
REMARK    4  A    between atoms: C_9  and  C_32
REMARK    5  A    between atoms: C_14  and  C_31
REMARK    6  A    between atoms: N_26  and  N_27
REMARK                            x       y       z     vdW  Elec       q    Type
REMARK                         _______ _______ _______ _____ _____    ______ ____
ROOT
ATOM      1  C   UNL     1      -0.546  -2.703   1.413  0.00  0.00    +0.180 C 
ATOM      2  C   UNL     1      -1.624  -3.333   0.533  0.00  0.00    +0.046 C 
ATOM      3  C   UNL     1      -3.005  -2.791   0.894  0.00  0.00    +0.015 C 
ATOM      4  C   UNL     1      -3.337  -3.076   2.360  0.00  0.00    -0.008 C 
ATOM      5  C   UNL     1      -4.694  -2.509   2.721  0.00  0.00    +0.003 C 
ATOM      6  C   UNL     1      -5.092  -1.326   1.851  0.00  0.00    +0.005 C 
ATOM      7  C   UNL     1      -6.536  -0.890   2.148  0.00  0.00    +0.013 C 
ATOM      8  C   UNL     1      -6.659  -0.529   3.607  0.00  0.00    +0.011 C 
ATOM      9  C   UNL     1      -6.192  -1.699   4.492  0.00  0.00    +0.005 C 
ATOM     10  C   UNL     1      -4.798  -2.170   4.213  0.00  0.00    +0.001 C 
ATOM     11  C   UNL     1      -3.697  -1.200   4.608  0.00  0.00    +0.031 C 
ATOM     12  C   UNL     1      -2.361  -1.792   4.239  0.00  0.00    -0.027 C 
ATOM     13  C   UNL     1      -2.214  -2.597   3.229  0.00  0.00    -0.064 C 
ATOM     14  C   UNL     1      -0.806  -3.052   2.882  0.00  0.00    +0.075 C 
ATOM     15  C   UNL     1      -6.534  -1.170   5.890  0.00  0.00    +0.010 C 
ATOM     16  C   UNL     1      -7.927  -0.516   5.647  0.00  0.00    +0.053 C 
ATOM     17  C   UNL     1      -8.072  -0.352   4.135  0.00  0.00    +0.043 C 
ATOM     18  N   UNL     1      -9.123  -0.120   3.459  0.00  0.00    -0.187 NA
ATOM     19  C   UNL     1      -5.936   0.786   3.891  0.00  0.00    +0.018 C 
ATOM     20  C   UNL     1      -3.437  -4.601   2.528  0.00  0.00    +0.016 C 
ENDROOT
BRANCH  18  21
ATOM     21  N   UNL     1     -10.357   0.016   4.107  0.00  0.00    -0.191 N 
ATOM     22  C   UNL     1     -11.472   0.262   3.390  0.00  0.00    +0.317 C 
ATOM     23  O   UNL     1     -12.543   0.381   3.953  0.00  0.00    -0.251 OA
ATOM     24  N   UNL     1     -11.399   0.376   2.049  0.00  0.00    -0.312 N 
ATOM     25  H   UNL     1     -10.410  -0.066   5.072  0.00  0.00    +0.179 HD
ATOM     26  H   UNL     1     -10.544   0.281   1.600  0.00  0.00    +0.147 HD
ATOM     27  H   UNL     1     -12.201   0.552   1.533  0.00  0.00    +0.147 HD
ENDBRANCH  18  21
BRANCH   1  28
ATOM     28  O   UNL     1      -0.561  -1.283   1.250  0.00  0.00    -0.461 OA
BRANCH  28  30
ATOM     29  C   UNL     1       0.667   0.858   1.249  0.00  0.00    +0.136 C 
ATOM     30  C   UNL     1       0.606  -0.639   1.406  0.00  0.00    +0.304 C 
ATOM     31  O   UNL     1       1.608  -1.260   1.672  0.00  0.00    -0.251 OA
ENDBRANCH  28  30
ENDBRANCH   1  28
TORSDOF 3
