REMARK  Name = ZINC39513634
REMARK  7 active torsions:
REMARK  status: ('A' for Active; 'I' for Inactive)
REMARK    1  A    between atoms: C_4  and  O_7
REMARK    2  A    between atoms: O_7  and  S_8
REMARK    3  A    between atoms: S_8  and  C_11
REMARK    4  A    between atoms: N_16  and  C_32
REMARK    5  A    between atoms: C_20  and  S_23
REMARK    6  A    between atoms: S_23  and  C_26
REMARK    7  A    between atoms: C_37  and  O_38
REMARK                            x       y       z     vdW  Elec       q    Type
REMARK                         _______ _______ _______ _____ _____    ______ ____
ROOT
ATOM      1  C   UNL     1       2.963  -1.698   2.063  0.00  0.00    +0.195 C 
ATOM      2  C   UNL     1       2.630  -2.723   0.975  0.00  0.00    +0.033 C 
ATOM      3  C   UNL     1       1.492  -3.627   1.457  0.00  0.00    +0.021 C 
ATOM      4  C   UNL     1       1.942  -4.391   2.706  0.00  0.00    +0.106 C 
ATOM      5  N   UNL     1       2.397  -3.421   3.713  0.00  0.00    -0.319 N 
ATOM      6  C   UNL     1       3.398  -2.426   3.329  0.00  0.00    +0.062 C 
ATOM      7  C   UNL     1       4.765  -3.106   3.110  0.00  0.00    +0.030 C 
ATOM      8  C   UNL     1       5.318  -3.234   4.552  0.00  0.00    +0.029 C 
ATOM      9  C   UNL     1       4.861  -1.936   5.251  0.00  0.00    +0.138 C 
ATOM     10  C   UNL     1       3.632  -1.428   4.473  0.00  0.00    +0.054 C 
ENDROOT
BRANCH   5  11
ATOM     11  C   UNL     1       1.883  -3.449   5.015  0.00  0.00    +0.072 A 
ATOM     12  C   UNL     1       1.102  -2.400   5.476  0.00  0.00    +0.027 A 
ATOM     13  C   UNL     1       0.594  -2.430   6.762  0.00  0.00    +0.002 A 
ATOM     14  C   UNL     1       0.863  -3.504   7.590  0.00  0.00    +0.004 A 
ATOM     15  C   UNL     1       1.641  -4.553   7.136  0.00  0.00    +0.047 A 
ATOM     16  C   UNL     1       2.149  -4.533   5.848  0.00  0.00    +0.138 A 
BRANCH  16  17
ATOM     17  O   UNL     1       2.910  -5.567   5.399  0.00  0.00    -0.505 OA
ATOM     18  H   UNL     1       3.857  -5.460   5.566  0.00  0.00    +0.292 HD
ENDBRANCH  16  17
ENDBRANCH   5  11
BRANCH   1  19
ATOM     19  S   UNL     1       4.308  -0.624   1.490  0.00  0.00    +0.126 S 
ATOM     20  O   UNL     1       5.352  -1.406   0.926  0.00  0.00    -0.136 OA
ATOM     21  O   UNL     1       4.593   0.368   2.467  0.00  0.00    -0.136 OA
BRANCH  19  22
ATOM     22  O   UNL     1       3.722   0.145   0.315  0.00  0.00    -0.346 OA
BRANCH  22  26
ATOM     23  C   UNL     1       1.107   3.143   1.409  0.00  0.00    +0.000 A 
ATOM     24  C   UNL     1       2.456   3.417   1.279  0.00  0.00    +0.004 A 
ATOM     25  C   UNL     1       3.333   2.415   0.913  0.00  0.00    +0.048 A 
ATOM     26  C   UNL     1       2.860   1.133   0.676  0.00  0.00    +0.156 A 
ATOM     27  C   UNL     1       1.506   0.860   0.807  0.00  0.00    +0.048 A 
ATOM     28  C   UNL     1       0.633   1.866   1.172  0.00  0.00    +0.004 A 
ENDBRANCH  22  26
ENDBRANCH  19  22
ENDBRANCH   1  19
BRANCH   9  29
ATOM     29  S   UNL     1       4.408  -2.284   6.973  0.00  0.00    -0.000 S 
ATOM     30  O   UNL     1       3.675  -1.194   7.516  0.00  0.00    -0.169 OA
ATOM     31  O   UNL     1       3.923  -3.614   7.092  0.00  0.00    -0.169 OA
BRANCH  29  32
ATOM     32  C   UNL     1       5.935  -2.281   7.852  0.00  0.00    +0.088 A 
ATOM     33  C   UNL     1       6.657  -3.453   7.986  0.00  0.00    +0.027 A 
ATOM     34  C   UNL     1       7.855  -3.451   8.676  0.00  0.00    +0.002 A 
ATOM     35  C   UNL     1       8.331  -2.277   9.231  0.00  0.00    +0.000 A 
ATOM     36  C   UNL     1       7.610  -1.106   9.095  0.00  0.00    +0.002 A 
ATOM     37  C   UNL     1       6.414  -1.107   8.402  0.00  0.00    +0.027 A 
ENDBRANCH  29  32
ENDBRANCH   9  29
TORSDOF 7
