REMARK  Name = ZINC36605744
REMARK  13 active torsions:
REMARK  status: ('A' for Active; 'I' for Inactive)
REMARK    1  A    between atoms: C_1  and  C_2
REMARK    2  A    between atoms: C_4  and  C_15
REMARK    3  A    between atoms: C_12  and  C_13
REMARK    4  A    between atoms: C_12  and  C_14
REMARK    5  A    between atoms: N_17  and  C_18
REMARK    6  A    between atoms: N_17  and  C_24
REMARK    7  A    between atoms: C_24  and  C_26
REMARK    8  A    between atoms: C_24  and  C_35
REMARK    9  A    between atoms: C_29  and  N_32
REMARK   10  A    between atoms: N_37  and  C_38
REMARK   11  A    between atoms: C_38  and  C_39
REMARK   12  A    between atoms: C_38  and  C_40
REMARK   13  A    between atoms: C_38  and  C_41
REMARK                            x       y       z     vdW  Elec       q    Type
REMARK                         _______ _______ _______ _____ _____    ______ ____
ROOT
ATOM      1  C   UNL     1      -0.680  -3.477  -1.794  0.00  0.00    +0.224 C 
ATOM      2  O   UNL     1      -1.656  -2.876  -1.399  0.00  0.00    -0.275 OA
ATOM      3  N   UNL     1      -0.298  -3.371  -3.082  0.00  0.00    -0.255 N 
ENDROOT
BRANCH   1   6
ATOM      4  C   UNL     1       1.499  -3.546   1.109  0.00  0.00    +0.008 C 
ATOM      5  C   UNL     1       0.091  -3.759   0.564  0.00  0.00    +0.001 C 
ATOM      6  C   UNL     1       0.108  -4.343  -0.843  0.00  0.00    +0.079 C 
ATOM      7  C   UNL     1      -0.380  -5.786  -0.898  0.00  0.00    +0.017 C 
ATOM      8  C   UNL     1      -1.320  -6.121   0.262  0.00  0.00    -0.004 C 
ATOM      9  C   UNL     1      -2.123  -4.915   0.773  0.00  0.00    +0.008 C 
ATOM     10  C   UNL     1      -0.810  -4.543   1.511  0.00  0.00    -0.001 C 
ATOM     11  C   UNL     1      -0.588  -6.050   1.617  0.00  0.00    -0.029 C 
ATOM     12  C   UNL     1       0.851  -6.556   1.591  0.00  0.00    +0.011 C 
ATOM     13  C   UNL     1      -1.383  -6.710   2.760  0.00  0.00    +0.011 C 
ENDBRANCH   1   6
BRANCH   3  14
ATOM     14  C   UNL     1       0.773  -4.135  -3.559  0.00  0.00    +0.037 A 
ATOM     15  C   UNL     1       0.534  -5.242  -4.363  0.00  0.00    +0.023 A 
ATOM     16  C   UNL     1       1.593  -5.994  -4.832  0.00  0.00    +0.002 A 
ATOM     17  C   UNL     1       2.890  -5.646  -4.503  0.00  0.00    +0.000 A 
ATOM     18  C   UNL     1       3.131  -4.544  -3.703  0.00  0.00    +0.002 A 
ATOM     19  C   UNL     1       2.077  -3.784  -3.235  0.00  0.00    +0.023 A 
ENDBRANCH   3  14
BRANCH   3  20
ATOM     20  C   UNL     1      -1.004  -2.457  -3.982  0.00  0.00    +0.197 C 
BRANCH  20  21
ATOM     21  C   UNL     1      -0.857  -1.044  -3.480  0.00  0.00    -0.018 A 
ATOM     22  C   UNL     1       0.383  -0.576  -3.087  0.00  0.00    +0.008 A 
ATOM     23  C   UNL     1       0.518   0.721  -2.626  0.00  0.00    +0.033 A 
ATOM     24  C   UNL     1      -0.586   1.549  -2.558  0.00  0.00    +0.126 A 
ATOM     25  C   UNL     1      -1.826   1.081  -2.952  0.00  0.00    +0.033 A 
ATOM     26  C   UNL     1      -1.960  -0.214  -3.417  0.00  0.00    +0.008 A 
BRANCH  24  27
ATOM     27  N   UNL     1      -0.442   2.937  -2.063  0.00  0.00    +0.056 N 
ATOM     28  O   UNL     1       0.643   3.345  -1.718  0.00  0.00    -0.126 OA
ATOM     29  O   UNL     1      -1.408   3.661  -2.005  0.00  0.00    -0.126 OA
ENDBRANCH  24  27
ENDBRANCH  20  21
BRANCH  20  30
ATOM     30  C   UNL     1      -0.417  -2.561  -5.366  0.00  0.00    +0.239 C 
ATOM     31  O   UNL     1       0.770  -2.380  -5.537  0.00  0.00    -0.273 OA
ATOM     32  N   UNL     1      -1.211  -2.857  -6.415  0.00  0.00    -0.309 N 
ATOM     33  H   UNL     1      -2.160  -3.002  -6.278  0.00  0.00    +0.149 HD
BRANCH  32  34
ATOM     34  C   UNL     1      -0.640  -2.959  -7.760  0.00  0.00    +0.026 C 
ATOM     35  C   UNL     1       0.424  -4.058  -7.781  0.00  0.00    +0.031 C 
ATOM     36  C   UNL     1      -1.747  -3.301  -8.759  0.00  0.00    +0.031 C 
ATOM     37  C   UNL     1      -0.001  -1.623  -8.145  0.00  0.00    +0.031 C 
ENDBRANCH  32  34
ENDBRANCH  20  30
ENDBRANCH   3  20
TORSDOF 7
