REMARK  Name = ZINC18066260
REMARK  6 active torsions:
REMARK  status: ('A' for Active; 'I' for Inactive)
REMARK    1  A    between atoms: C_1  and  C_2
REMARK    2  A    between atoms: C_5  and  C_8
REMARK    3  A    between atoms: N_12  and  C_16
REMARK    4  A    between atoms: C_16  and  C_17
REMARK    5  A    between atoms: C_17  and  N_18
REMARK    6  A    between atoms: C_19  and  C_21
REMARK                            x       y       z     vdW  Elec       q    Type
REMARK                         _______ _______ _______ _____ _____    ______ ____
ROOT
ATOM      1  C   UNL     1       0.563  -8.200   2.929  0.00  0.00    +0.136 C 
ENDROOT
BRANCH   1   6
ATOM      2  C   UNL     1       0.058  -4.244  -0.021  0.00  0.00    +0.028 C 
ATOM      3  C   UNL     1       0.175  -4.927   1.144  0.00  0.00    +0.080 C 
ATOM      4  C   UNL     1       0.322  -6.380   1.375  0.00  0.00    +0.260 C 
ATOM      5  O   UNL     1       0.354  -7.174   0.453  0.00  0.00    -0.269 OA
ATOM      6  N   UNL     1       0.416  -6.773   2.634  0.00  0.00    -0.227 N 
ATOM      7  C   UNL     1       0.379  -5.890   3.652  0.00  0.00    +0.286 C 
ATOM      8  O   UNL     1       0.454  -6.110   4.846  0.00  0.00    -0.262 OA
ATOM      9  S   UNL     1       0.203  -4.317   2.824  0.00  0.00    -0.026 S 
BRANCH   2  14
ATOM     10  C   UNL     1      -1.210   1.361   0.047  0.00  0.00    +0.044 C 
ATOM     11  C   UNL     1      -0.877  -0.108   0.029  0.00  0.00    -0.050 A 
ATOM     12  C   UNL     1      -0.516  -0.718  -1.160  0.00  0.00    +0.004 A 
ATOM     13  C   UNL     1      -0.210  -2.062  -1.185  0.00  0.00    +0.008 A 
ATOM     14  C   UNL     1      -0.266  -2.810  -0.004  0.00  0.00    -0.024 A 
ATOM     15  C   UNL     1      -0.631  -2.186   1.194  0.00  0.00    +0.008 A 
ATOM     16  C   UNL     1      -0.928  -0.840   1.203  0.00  0.00    +0.004 A 
ENDBRANCH   2  14
ENDBRANCH   1   6
BRANCH   1  17
ATOM     17  C   UNL     1       2.049  -8.562   2.966  0.00  0.00    +0.123 C 
BRANCH  17  18
ATOM     18  N   UNL     1       2.196  -9.990   3.262  0.00  0.00    -0.313 N 
ATOM     19  C   UNL     1       3.425 -10.538   3.345  0.00  0.00    +0.219 C 
ATOM     20  O   UNL     1       4.409  -9.849   3.175  0.00  0.00    -0.275 OA
ATOM     21  H   UNL     1       1.410 -10.541   3.398  0.00  0.00    +0.149 HD
BRANCH  19  22
ATOM     22  C   UNL     1       3.576 -12.006   3.649  0.00  0.00    +0.049 C 
ATOM     23  C   UNL     1       2.878 -12.826   2.562  0.00  0.00    +0.019 C 
ATOM     24  C   UNL     1       3.032 -14.317   2.870  0.00  0.00    -0.008 C 
ATOM     25  C   UNL     1       4.518 -14.680   2.908  0.00  0.00    +0.007 C 
ATOM     26  C   UNL     1       5.216 -13.859   3.995  0.00  0.00    -0.008 C 
ATOM     27  C   UNL     1       5.062 -12.368   3.686  0.00  0.00    +0.019 C 
ATOM     28  C   UNL     1       4.582 -14.167   5.352  0.00  0.00    +0.026 C 
ATOM     29  C   UNL     1       3.096 -13.805   5.315  0.00  0.00    +0.047 C 
ATOM     30  C   UNL     1       2.398 -14.625   4.228  0.00  0.00    +0.026 C 
ATOM     31  C   UNL     1       2.942 -12.314   5.006  0.00  0.00    +0.039 C 
ATOM     32 CL   UNL     1       2.348 -14.167   6.915  0.00  0.00    -0.118 Cl
ENDBRANCH  19  22
ENDBRANCH  17  18
ENDBRANCH   1  17
TORSDOF 5
