REMARK  Name = ZINC36306485
REMARK  16 active torsions:
REMARK  status: ('A' for Active; 'I' for Inactive)
REMARK    1  A    between atoms: C_1  and  C_2
REMARK    2  A    between atoms: C_2  and  C_3
REMARK    3  A    between atoms: C_3  and  N_4
REMARK    4  A    between atoms: N_4  and  C_5
REMARK    5  A    between atoms: N_4  and  C_26
REMARK    6  A    between atoms: C_5  and  C_6
REMARK    7  A    between atoms: C_7  and  C_20
REMARK    8  A    between atoms: N_9  and  C_19
REMARK    9  A    between atoms: C_10  and  O_11
REMARK   10  A    between atoms: O_11  and  C_12
REMARK   11  A    between atoms: C_16  and  C_18
REMARK   12  A    between atoms: C_26  and  C_27
REMARK   13  A    between atoms: C_27  and  C_29
REMARK   14  A    between atoms: C_27  and  O_33
REMARK   15  A    between atoms: C_29  and  C_30
REMARK   16  A    between atoms: C_30  and  C_31
REMARK                            x       y       z     vdW  Elec       q    Type
REMARK                         _______ _______ _______ _____ _____    ______ ____
ROOT
ATOM      1  C   UNL     1       0.945  -2.007  -1.403  0.00  0.00    +0.025 A 
ATOM      2  C   UNL     1       0.224  -3.131  -1.849  0.00  0.00    +0.098 A 
ATOM      3  N   UNL     1      -0.255  -2.862  -3.045  0.00  0.00    -0.168 NA
ATOM      4  N   UNL     1       0.142  -1.565  -3.396  0.00  0.00    -0.235 N 
ATOM      5  C   UNL     1       0.873  -1.057  -2.371  0.00  0.00    +0.221 A 
ATOM      6  C   UNL     1      -0.180  -0.876  -4.648  0.00  0.00    +0.176 C 
ENDROOT
BRANCH   2   7
ATOM      7  C   UNL     1       0.038  -4.399  -1.101  0.00  0.00    +0.002 A 
ATOM      8  C   UNL     1       1.104  -4.961  -0.401  0.00  0.00    +0.010 A 
ATOM      9  C   UNL     1       0.926  -6.140   0.293  0.00  0.00    +0.001 A 
ATOM     10  C   UNL     1      -0.308  -6.765   0.295  0.00  0.00    +0.000 A 
ATOM     11  C   UNL     1      -1.370  -6.212  -0.399  0.00  0.00    +0.001 A 
ATOM     12  C   UNL     1      -1.204  -5.030  -1.092  0.00  0.00    +0.010 A 
ENDBRANCH   2   7
BRANCH   1  13
ATOM     13  C   UNL     1       1.662  -1.878  -0.084  0.00  0.00    -0.035 C 
BRANCH  13  14
ATOM     14  N   UNL     1       3.070  -2.260  -0.253  0.00  0.00    +0.384 N 
ATOM     15  H   UNL     1       3.122  -3.178  -0.668  0.00  0.00    -0.081 HD
BRANCH  14  16
ATOM     16  C   UNL     1       3.734  -2.276   1.058  0.00  0.00    -0.079 C 
BRANCH  16  18
ATOM     17  C   UNL     1       3.911  -3.492   3.233  0.00  0.00    +0.002 C 
ATOM     18  C   UNL     1       3.134  -3.389   1.919  0.00  0.00    -0.022 C 
ENDBRANCH  16  18
ENDBRANCH  14  16
BRANCH  14  19
ATOM     19  C   UNL     1       3.739  -1.288  -1.129  0.00  0.00    -0.047 C 
BRANCH  19  20
ATOM     20  C   UNL     1       5.170  -1.753  -1.405  0.00  0.00    +0.098 C 
BRANCH  20  21
ATOM     21  O   UNL     1       5.140  -2.973  -2.148  0.00  0.00    -0.394 OA
ATOM     22  H   UNL     1       4.693  -2.903  -3.002  0.00  0.00    +0.210 HD
ENDBRANCH  20  21
BRANCH  20  23
ATOM     23  C   UNL     1       5.907  -0.682  -2.213  0.00  0.00    +0.033 C 
BRANCH  23  24
ATOM     24  C   UNL     1       7.372  -1.089  -2.384  0.00  0.00    +0.029 C 
BRANCH  24  25
ATOM     25  C   UNL     1       8.097  -0.035  -3.179  0.00  0.00    -0.034 C 
ATOM     26  C   UNL     1       9.177   0.525  -2.694  0.00  0.00    +0.004 C 
ENDBRANCH  24  25
ENDBRANCH  23  24
ENDBRANCH  20  23
ENDBRANCH  19  20
ENDBRANCH  14  19
ENDBRANCH  13  14
ENDBRANCH   1  13
BRANCH   5  27
ATOM     27  O   UNL     1       1.434   0.178  -2.323  0.00  0.00    -0.438 OA
BRANCH  27  28
ATOM     28  C   UNL     1       0.684   1.201  -1.834  0.00  0.00    +0.131 A 
ATOM     29  C   UNL     1      -0.573   0.949  -1.304  0.00  0.00    +0.046 A 
ATOM     30  C   UNL     1      -1.333   1.990  -0.807  0.00  0.00    +0.004 A 
ATOM     31  C   UNL     1      -0.842   3.283  -0.839  0.00  0.00    +0.003 A 
ATOM     32  C   UNL     1       0.410   3.536  -1.367  0.00  0.00    -0.047 A 
ATOM     33  C   UNL     1       1.177   2.497  -1.859  0.00  0.00    +0.049 A 
ATOM     34  C   UNL     1       0.942   4.946  -1.400  0.00  0.00    +0.044 C 
ENDBRANCH  27  28
ENDBRANCH   5  27
TORSDOF 13
