REMARK  Name = ZINC13008058
REMARK  8 active torsions:
REMARK  status: ('A' for Active; 'I' for Inactive)
REMARK    1  A    between atoms: C_1  and  C_2
REMARK    2  A    between atoms: N_12  and  C_13
REMARK    3  A    between atoms: C_13  and  C_15
REMARK    4  A    between atoms: N_17  and  C_18
REMARK    5  A    between atoms: C_18  and  C_19
REMARK    6  A    between atoms: C_19  and  C_21
REMARK    7  A    between atoms: C_19  and  N_31
REMARK    8  A    between atoms: N_29  and  C_30
REMARK                            x       y       z     vdW  Elec       q    Type
REMARK                         _______ _______ _______ _____ _____    ______ ____
ROOT
ATOM      1  C   UNL     1       1.710  -4.369  -6.393  0.00  0.00    +0.301 C 
ATOM      2  O   UNL     1       0.875  -4.510  -5.523  0.00  0.00    -0.265 OA
ATOM      3  N   UNL     1       1.550  -3.416  -7.332  0.00  0.00    -0.309 N 
ATOM      4  H   UNL     1       2.217  -3.303  -8.027  0.00  0.00    +0.149 HD
ENDROOT
BRANCH   1   5
ATOM      5  C   UNL     1       2.913  -5.250  -6.422  0.00  0.00    +0.323 C 
ATOM      6  O   UNL     1       3.751  -5.108  -7.295  0.00  0.00    -0.263 OA
BRANCH   5  18
ATOM      7  C   UNL     1       3.409  -9.521  -9.016  0.00  0.00    +0.063 C 
ATOM      8  C   UNL     1       3.476  -9.137  -7.560  0.00  0.00    +0.015 A 
ATOM      9  C   UNL     1       3.242  -7.849  -7.215  0.00  0.00    +0.046 A 
ATOM     10  C   UNL     1       3.297  -7.459  -5.861  0.00  0.00    +0.068 A 
ATOM     11  C   UNL     1       3.613  -8.493  -4.863  0.00  0.00    +0.021 A 
ATOM     12  C   UNL     1       3.687  -8.194  -3.501  0.00  0.00    +0.012 A 
ATOM     13  C   UNL     1       3.983  -9.184  -2.607  0.00  0.00    +0.001 A 
ATOM     14  C   UNL     1       4.210 -10.484  -3.042  0.00  0.00    +0.002 A 
ATOM     15  C   UNL     1       4.141 -10.801  -4.381  0.00  0.00    +0.026 A 
ATOM     16  C   UNL     1       3.841  -9.808  -5.310  0.00  0.00    +0.048 A 
ATOM     17  N   UNL     1       3.760 -10.091  -6.653  0.00  0.00    -0.358 N 
ATOM     18  N   UNL     1       3.071  -6.189  -5.496  0.00  0.00    -0.172 NA
ATOM     19  H   UNL     1       3.915 -11.000  -6.955  0.00  0.00    +0.166 HD
ENDBRANCH   5  18
ENDBRANCH   1   5
BRANCH   3  20
ATOM     20  C   UNL     1       0.368  -2.550  -7.304  0.00  0.00    +0.094 C 
BRANCH  20  21
ATOM     21  C   UNL     1       0.365  -1.650  -8.541  0.00  0.00    -0.020 C 
BRANCH  21  22
ATOM     22  C   UNL     1       0.244  -2.499  -9.780  0.00  0.00    -0.059 A 
ATOM     23  C   UNL     1      -0.992  -2.977 -10.175  0.00  0.00    +0.004 A 
ATOM     24  C   UNL     1      -1.107  -3.754 -11.307  0.00  0.00    +0.023 A 
ATOM     25  C   UNL     1       0.024  -4.065 -12.065  0.00  0.00    +0.033 A 
ATOM     26  C   UNL     1       1.259  -3.581 -11.661  0.00  0.00    -0.025 A 
ATOM     27  C   UNL     1       1.367  -2.798 -10.528  0.00  0.00    +0.007 A 
ATOM     28  C   UNL     1       2.306  -4.056 -12.643  0.00  0.00    +0.056 C 
ATOM     29  C   UNL     1       1.521  -4.882 -13.675  0.00  0.00    +0.109 C 
ATOM     30  N   UNL     1       0.126  -4.827 -13.231  0.00  0.00    -0.332 N 
ATOM     31  C   UNL     1      -0.998  -5.476 -13.910  0.00  0.00    +0.129 C 
ENDBRANCH  21  22
BRANCH  21  32
ATOM     32  N   UNL     1      -0.772  -0.723  -8.470  0.00  0.00    +0.385 N 
ATOM     33  C   UNL     1      -0.828   0.076  -9.699  0.00  0.00    -0.078 C 
ATOM     34  C   UNL     1      -2.058   0.987  -9.665  0.00  0.00    -0.019 C 
ATOM     35  C   UNL     1      -1.963   1.918  -8.453  0.00  0.00    -0.004 C 
ATOM     36  C   UNL     1      -1.830   1.074  -7.182  0.00  0.00    -0.019 C 
ATOM     37  C   UNL     1      -0.609   0.160  -7.309  0.00  0.00    -0.078 C 
ATOM     38  H   UNL     1      -1.628  -1.249  -8.373  0.00  0.00    -0.081 HD
ENDBRANCH  21  32
ENDBRANCH  20  21
ENDBRANCH   3  20
TORSDOF 6
