REMARK  Name = ZINC25021407
REMARK  7 active torsions:
REMARK  status: ('A' for Active; 'I' for Inactive)
REMARK    1  A    between atoms: C_13  and  N_17
REMARK    2  A    between atoms: C_18  and  C_20
REMARK    3  A    between atoms: C_20  and  S_21
REMARK    4  A    between atoms: S_21  and  C_22
REMARK    5  A    between atoms: C_25  and  C_33
REMARK    6  A    between atoms: N_26  and  C_27
REMARK    7  A    between atoms: C_27  and  C_28
REMARK                            x       y       z     vdW  Elec       q    Type
REMARK                         _______ _______ _______ _____ _____    ______ ____
ROOT
ATOM      1  N   UNL     1       2.434   5.475   0.007  0.00  0.00    -0.284 N 
ATOM      2  C   UNL     1       3.595   6.154   0.101  0.00  0.00    +0.228 C 
ATOM      3  O   UNL     1       4.650   5.556   0.088  0.00  0.00    -0.275 OA
ATOM      4  H   UNL     1       1.483   6.021  -0.072  0.00  0.00    +0.155 HD
ENDROOT
BRANCH   1  17
ATOM      5  C   UNL     1      -2.877   1.912  -3.072  0.00  0.00    +0.001 A 
ATOM      6  C   UNL     1      -2.892   3.295  -3.081  0.00  0.00    +0.001 A 
ATOM      7  C   UNL     1      -1.876   4.012  -2.474  0.00  0.00    +0.012 A 
ATOM      8  C   UNL     1      -0.820   3.339  -1.866  0.00  0.00    +0.033 A 
ATOM      9  C   UNL     1      -0.801   1.933  -1.862  0.00  0.00    +0.033 A 
ATOM     10  C   UNL     1      -1.838   1.227  -2.466  0.00  0.00    +0.012 A 
ATOM     11  C   UNL     1       0.313   1.210  -1.213  0.00  0.00    +0.195 C 
ATOM     12  O   UNL     1       0.327  -0.005  -1.204  0.00  0.00    -0.287 OA
ATOM     13  C   UNL     1       1.412   1.968  -0.580  0.00  0.00    +0.035 A 
ATOM     14  C   UNL     1       2.467   1.297   0.028  0.00  0.00    +0.012 A 
ATOM     15  C   UNL     1       3.496   2.011   0.621  0.00  0.00    +0.003 A 
ATOM     16  C   UNL     1       3.487   3.390   0.615  0.00  0.00    +0.024 A 
ATOM     17  C   UNL     1       2.440   4.085   0.012  0.00  0.00    +0.045 A 
ATOM     18  C   UNL     1       1.394   3.376  -0.590  0.00  0.00    +0.054 A 
ATOM     19  C   UNL     1       0.280   4.096  -1.232  0.00  0.00    +0.196 C 
ATOM     20  O   UNL     1       0.266   5.311  -1.241  0.00  0.00    -0.287 OA
ENDBRANCH   1  17
BRANCH   2  21
ATOM     21  C   UNL     1       3.582   7.656   0.223  0.00  0.00    +0.173 C 
BRANCH  21  22
ATOM     22  S   UNL     1       5.282   8.268   0.329  0.00  0.00    -0.077 S 
BRANCH  22  23
ATOM     23  C   UNL     1       4.978   9.998   0.459  0.00  0.00    +0.192 A 
ATOM     24  N   UNL     1       3.804  10.586   0.462  0.00  0.00    -0.122 NA
ATOM     25  N   UNL     1       3.952  11.858   0.574  0.00  0.00    -0.133 NA
ATOM     26  C   UNL     1       5.219  12.156   0.641  0.00  0.00    +0.138 A 
ATOM     27  N   UNL     1       5.918  10.982   0.570  0.00  0.00    -0.298 N 
BRANCH  26  28
ATOM     28  C   UNL     1       5.806  13.538   0.772  0.00  0.00    +0.057 C 
ATOM     29  C   UNL     1       4.839  14.693   1.040  0.00  0.00    +0.012 C 
ATOM     30  C   UNL     1       5.494  14.546  -0.336  0.00  0.00    +0.012 C 
ENDBRANCH  26  28
BRANCH  27  31
ATOM     31  C   UNL     1       7.373  10.815   0.606  0.00  0.00    +0.199 C 
BRANCH  31  32
ATOM     32  C   UNL     1       7.920  10.871  -0.797  0.00  0.00    +0.125 A 
ATOM     33  C   UNL     1       8.322  11.982  -1.441  0.00  0.00    +0.046 A 
ATOM     34  C   UNL     1       8.760  11.577  -2.722  0.00  0.00    +0.041 A 
ATOM     35  C   UNL     1       8.592  10.244  -2.788  0.00  0.00    +0.195 A 
ATOM     36  O   UNL     1       8.083   9.822  -1.619  0.00  0.00    -0.466 OA
ENDBRANCH  31  32
ENDBRANCH  27  31
ENDBRANCH  22  23
ENDBRANCH  21  22
ENDBRANCH   2  21
TORSDOF 7
