REMARK  Name = ZINC00705583
REMARK  2 active torsions:
REMARK  status: ('A' for Active; 'I' for Inactive)
REMARK    1  A    between atoms: C_9  and  C_20
REMARK    2  A    between atoms: C_10  and  N_19
REMARK                            x       y       z     vdW  Elec       q    Type
REMARK                         _______ _______ _______ _____ _____    ______ ____
ROOT
ATOM      1  C   UNL     1       1.161   1.814   0.001  0.00  0.00    +0.017 A 
ATOM      2  C   UNL     1      -0.013   1.076   0.008  0.00  0.00    +0.025 A 
ATOM      3  C   UNL     1      -1.214   1.786   0.017  0.00  0.00    +0.038 A 
ATOM      4  C   UNL     1      -1.205   3.187   0.032  0.00  0.00    -0.000 A 
ATOM      5  C   UNL     1      -0.035   3.914   0.024  0.00  0.00    +0.022 A 
ATOM      6  C   UNL     1       1.156   3.194   0.008  0.00  0.00    +0.018 A 
ATOM      7 BR   UNL     1       2.802   4.126  -0.004  0.00  0.00    -0.050 Br
ATOM      8  C   UNL     1      -2.639   3.615   0.049  0.00  0.00    +0.144 C 
ATOM      9  C   UNL     1      -2.954   4.400   1.288  0.00  0.00    +0.110 C 
ATOM     10  C   UNL     1      -3.122   5.744   1.220  0.00  0.00    +0.199 C 
ATOM     11  O   UNL     1      -3.008   6.404   0.057  0.00  0.00    -0.445 OA
ATOM     12  C   UNL     1      -3.145   5.746  -1.110  0.00  0.00    +0.115 C 
ATOM     13  C   UNL     1      -2.973   4.412  -1.186  0.00  0.00    +0.058 C 
ATOM     14  C   UNL     1      -3.096   3.728  -2.410  0.00  0.00    +0.164 C 
ATOM     15  O   UNL     1      -2.948   2.522  -2.437  0.00  0.00    -0.292 OA
ATOM     16  C   UNL     1      -3.407   4.462  -3.686  0.00  0.00    +0.080 C 
ATOM     17  C   UNL     1      -2.875   5.895  -3.576  0.00  0.00    +0.016 C 
ATOM     18  C   UNL     1      -3.496   6.549  -2.340  0.00  0.00    +0.075 C 
ATOM     19  C   UNL     1      -3.417   2.316   0.045  0.00  0.00    +0.238 C 
ATOM     20  O   UNL     1      -4.624   2.199   0.053  0.00  0.00    -0.274 OA
ATOM     21  N   UNL     1      -2.514   1.313   0.032  0.00  0.00    -0.284 N 
ATOM     22  H   UNL     1      -2.749   0.372   0.028  0.00  0.00    +0.155 HD
ENDROOT
BRANCH  10  23
ATOM     23  N   UNL     1      -3.416   6.444   2.363  0.00  0.00    -0.328 N 
ATOM     24  H   UNL     1      -3.538   7.406   2.326  0.00  0.00    +0.145 HD
ATOM     25  H   UNL     1      -3.501   5.978   3.209  0.00  0.00    +0.145 HD
ENDBRANCH  10  23
BRANCH   9  26
ATOM     26  C   UNL     1      -3.076   3.728   2.547  0.00  0.00    +0.102 C 
ATOM     27  N   UNL     1      -3.174   3.195   3.545  0.00  0.00    -0.191 NA
ENDBRANCH   9  26
TORSDOF 2
