REMARK  Name = ZINC12311323
REMARK  6 active torsions:
REMARK  status: ('A' for Active; 'I' for Inactive)
REMARK    1  A    between atoms: C_1  and  O_2
REMARK    2  A    between atoms: O_2  and  C_3
REMARK    3  A    between atoms: C_3  and  C_5
REMARK    4  A    between atoms: C_5  and  N_49
REMARK    5  A    between atoms: C_6  and  C_25
REMARK    6  A    between atoms: C_15  and  C_17
REMARK                            x       y       z     vdW  Elec       q    Type
REMARK                         _______ _______ _______ _____ _____    ______ ____
ROOT
ATOM      1  C   UNL     1      -0.622   3.365  -1.100  0.00  0.00    -0.001 C 
ATOM      2  C   UNL     1      -1.051   3.956   0.216  0.00  0.00    -0.035 A 
ATOM      3  C   UNL     1      -1.365   5.301   0.291  0.00  0.00    +0.019 A 
ATOM      4  C   UNL     1      -1.759   5.857   1.494  0.00  0.00    +0.018 A 
ATOM      5  C   UNL     1      -1.842   5.072   2.630  0.00  0.00    +0.017 A 
ATOM      6  C   UNL     1      -1.531   3.728   2.564  0.00  0.00    +0.024 A 
ATOM      7  C   UNL     1      -1.136   3.168   1.356  0.00  0.00    +0.028 A 
ATOM      8  N   UNL     1      -0.825   1.804   1.287  0.00  0.00    -0.353 N 
ATOM      9  C   UNL     1      -0.144   1.308   0.081  0.00  0.00    +0.049 C 
ATOM     10 BR   UNL     1      -2.187   7.697   1.587  0.00  0.00    -0.050 Br
ATOM     11  H   UNL     1      -1.052   1.204   2.014  0.00  0.00    +0.145 HD
ATOM     12  N   UNL     1      -0.829   1.904  -1.087  0.00  0.00    +0.409 N 
ATOM     13  H   UNL     1      -1.835   1.710  -1.020  0.00  0.00    -0.076 HD
ENDROOT
BRANCH   9  14
ATOM     14  C   UNL     1      -0.256  -0.193   0.014  0.00  0.00    -0.044 A 
ATOM     15  C   UNL     1      -1.498  -0.797   0.066  0.00  0.00    +0.004 A 
ATOM     16  C   UNL     1      -1.601  -2.174   0.000  0.00  0.00    +0.015 A 
ATOM     17  C   UNL     1      -0.460  -2.948  -0.107  0.00  0.00    +0.018 A 
ATOM     18  C   UNL     1       0.783  -2.344  -0.153  0.00  0.00    +0.015 A 
ATOM     19  C   UNL     1       0.885  -0.967  -0.093  0.00  0.00    +0.004 A 
ATOM     20 BR   UNL     1      -0.600  -4.832  -0.191  0.00  0.00    -0.050 Br
ENDBRANCH   9  14
BRANCH   1  21
ATOM     21  C   UNL     1      -1.449   3.963  -2.209  0.00  0.00    -0.057 A 
ATOM     22  C   UNL     1      -2.716   3.473  -2.467  0.00  0.00    +0.002 A 
ATOM     23  C   UNL     1      -3.477   4.025  -3.481  0.00  0.00    +0.000 A 
ATOM     24  C   UNL     1      -2.967   5.060  -4.242  0.00  0.00    +0.000 A 
ATOM     25  C   UNL     1      -1.699   5.546  -3.987  0.00  0.00    +0.000 A 
ATOM     26  C   UNL     1      -0.940   4.998  -2.971  0.00  0.00    +0.002 A 
ENDBRANCH   1  21
BRANCH  12  27
ATOM     27  C   UNL     1      -0.307   1.310  -2.338  0.00  0.00    +0.048 C 
BRANCH  27  28
ATOM     28  C   UNL     1       1.170   1.581  -2.473  0.00  0.00    +0.290 C 
ATOM     29  O   UNL     1       1.763   2.150  -1.588  0.00  0.00    -0.253 OA
BRANCH  28  31
ATOM     30  C   UNL     1       3.216   1.589  -3.695  0.00  0.00    +0.280 C 
ATOM     31  O   UNL     1       1.825   1.189  -3.577  0.00  0.00    -0.469 OA
ENDBRANCH  28  31
ENDBRANCH  27  28
ENDBRANCH  12  27
TORSDOF 5
