REMARK  Name = ZINC35420526
REMARK  11 active torsions:
REMARK  status: ('A' for Active; 'I' for Inactive)
REMARK    1  A    between atoms: C_1  and  C_2
REMARK    2  A    between atoms: C_3  and  C_34
REMARK    3  A    between atoms: C_8  and  C_25
REMARK    4  A    between atoms: C_10  and  C_15
REMARK    5  A    between atoms: C_15  and  C_17
REMARK    6  A    between atoms: C_18  and  C_19
REMARK    7  A    between atoms: C_28  and  O_33
REMARK    8  A    between atoms: C_29  and  O_31
REMARK    9  A    between atoms: O_31  and  C_32
REMARK   10  A    between atoms: C_34  and  O_36
REMARK   11  A    between atoms: O_36  and  C_37
REMARK                            x       y       z     vdW  Elec       q    Type
REMARK                         _______ _______ _______ _____ _____    ______ ____
ROOT
ATOM      1  C   UNL     1      -0.803  -0.082  -0.427  0.00  0.00    +0.067 C 
ATOM      2  C   UNL     1      -0.649  -1.528  -0.033  0.00  0.00    +0.062 A 
ATOM      3  C   UNL     1      -0.444  -2.527  -0.977  0.00  0.00    +0.120 A 
ATOM      4  S   UNL     1      -0.344  -3.963   0.080  0.00  0.00    -0.045 S 
ATOM      5  C   UNL     1      -0.564  -3.182   1.555  0.00  0.00    +0.169 A 
ATOM      6  N   UNL     1      -0.695  -1.912   1.217  0.00  0.00    -0.229 NA
ATOM      7  N   UNL     1      -0.595  -3.738   2.820  0.00  0.00    -0.232 N 
ATOM      8  C   UNL     1      -0.432  -5.160   3.143  0.00  0.00    +0.152 C 
ATOM      9  C   UNL     1      -0.542  -5.265   4.646  0.00  0.00    +0.076 C 
ATOM     10  C   UNL     1      -0.748  -4.011   5.111  0.00  0.00    +0.250 C 
ATOM     11  C   UNL     1      -0.774  -3.070   3.974  0.00  0.00    +0.293 C 
ATOM     12  O   UNL     1      -0.937  -1.869   4.067  0.00  0.00    -0.266 OA
ATOM     13  O   UNL     1      -0.901  -3.672   6.413  0.00  0.00    -0.282 OA
ENDROOT
BRANCH   8  14
ATOM     14  C   UNL     1       0.920  -5.644   2.686  0.00  0.00    -0.018 A 
ATOM     15  C   UNL     1       1.027  -6.826   1.977  0.00  0.00    +0.009 A 
ATOM     16  C   UNL     1       2.265  -7.274   1.555  0.00  0.00    +0.049 A 
ATOM     17  C   UNL     1       3.403  -6.537   1.843  0.00  0.00    +0.158 A 
ATOM     18  C   UNL     1       3.296  -5.347   2.557  0.00  0.00    +0.162 A 
ATOM     19  C   UNL     1       2.051  -4.902   2.972  0.00  0.00    +0.055 A 
BRANCH  18  20
ATOM     20  O   UNL     1       4.409  -4.621   2.842  0.00  0.00    -0.491 OA
ATOM     21  C   UNL     1       4.238  -3.468   3.668  0.00  0.00    +0.277 C 
ENDBRANCH  18  20
BRANCH  17  22
ATOM     22  O   UNL     1       4.622  -6.976   1.430  0.00  0.00    -0.503 OA
ATOM     23  H   UNL     1       4.878  -6.658   0.553  0.00  0.00    +0.292 HD
ENDBRANCH  17  22
ENDBRANCH   8  14
BRANCH   9  24
ATOM     24  C   UNL     1      -0.445  -6.491   5.448  0.00  0.00    +0.188 C 
ATOM     25  O   UNL     1      -0.444  -6.425   6.665  0.00  0.00    -0.287 OA
BRANCH  24  26
ATOM     26  C   UNL     1      -0.348  -7.793   4.786  0.00  0.00    +0.052 C 
ATOM     27  C   UNL     1      -0.293  -8.923   5.523  0.00  0.00    +0.011 C 
BRANCH  27  28
ATOM     28  C   UNL     1      -0.314 -10.236   4.860  0.00  0.00    -0.025 A 
ATOM     29  C   UNL     1      -0.278 -10.319   3.463  0.00  0.00    +0.008 A 
ATOM     30  C   UNL     1      -0.298 -11.553   2.849  0.00  0.00    +0.001 A 
ATOM     31  C   UNL     1      -0.352 -12.708   3.610  0.00  0.00    +0.000 A 
ATOM     32  C   UNL     1      -0.388 -12.634   4.992  0.00  0.00    +0.001 A 
ATOM     33  C   UNL     1      -0.363 -11.408   5.622  0.00  0.00    +0.008 A 
ENDBRANCH  27  28
ENDBRANCH  24  26
ENDBRANCH   9  24
BRANCH   3  34
ATOM     34  C   UNL     1      -0.339  -2.429  -2.431  0.00  0.00    +0.347 C 
ATOM     35  O   UNL     1      -0.435  -1.346  -2.977  0.00  0.00    -0.244 OA
BRANCH  34  36
ATOM     36  O   UNL     1      -0.136  -3.541  -3.169  0.00  0.00    -0.464 OA
ATOM     37  C   UNL     1      -0.044  -3.372  -4.585  0.00  0.00    +0.280 C 
ENDBRANCH  34  36
ENDBRANCH   3  34
TORSDOF 8
