REMARK  Name = ZINC63070829
REMARK  6 active torsions:
REMARK  status: ('A' for Active; 'I' for Inactive)
REMARK    1  A    between atoms: C_7  and  C_10
REMARK    2  A    between atoms: C_10  and  C_11
REMARK    3  A    between atoms: C_11  and  N_12
REMARK    4  A    between atoms: C_13  and  C_15
REMARK    5  A    between atoms: C_23  and  C_32
REMARK    6  A    between atoms: C_26  and  C_28
REMARK                            x       y       z     vdW  Elec       q    Type
REMARK                         _______ _______ _______ _____ _____    ______ ____
ROOT
ATOM      1  C   UNL     1      -1.107  -6.931  -3.041  0.00  0.00    +0.123 C 
ATOM      2  C   UNL     1      -2.300  -6.366  -2.228  0.00  0.00    +0.114 C 
ATOM      3  N   UNL     1      -3.484  -6.474  -3.126  0.00  0.00    -0.251 NA
ATOM      4  N   UNL     1      -3.150  -7.553  -4.040  0.00  0.00    -0.213 NA
ATOM      5  C   UNL     1      -1.726  -7.289  -4.397  0.00  0.00    +0.153 C 
ATOM      6  N   UNL     1      -1.193  -8.505  -5.003  0.00  0.00    -0.290 NA
ATOM      7  C   UNL     1      -1.898  -8.757  -6.275  0.00  0.00    +0.123 C 
ATOM      8  C   UNL     1      -3.405  -8.873  -6.049  0.00  0.00    +0.056 C 
ATOM      9  C   UNL     1      -3.934  -7.651  -5.264  0.00  0.00    +0.180 C 
ATOM     10  H   UNL     1      -3.638  -5.611  -3.626  0.00  0.00    +0.141 HD
ATOM     11  H   UNL     1      -0.198  -8.430  -5.150  0.00  0.00    +0.124 HD
ENDROOT
BRANCH   7  12
ATOM     12  C   UNL     1      -1.627  -7.620  -7.225  0.00  0.00    +0.122 A 
ATOM     13  C   UNL     1      -0.522  -6.852  -7.239  0.00  0.00    +0.046 A 
ATOM     14  C   UNL     1      -0.686  -5.916  -8.285  0.00  0.00    +0.041 A 
ATOM     15  C   UNL     1      -1.881  -6.167  -8.849  0.00  0.00    +0.195 A 
ATOM     16  O   UNL     1      -2.444  -7.204  -8.207  0.00  0.00    -0.466 OA
ENDBRANCH   7  12
BRANCH   1  18
ATOM     17  N   UNL     1       0.606  -5.399  -2.125  0.00  0.00    -0.315 N 
ATOM     18  C   UNL     1      -0.036  -5.884  -3.207  0.00  0.00    +0.220 C 
ATOM     19  O   UNL     1       0.249  -5.478  -4.313  0.00  0.00    -0.275 OA
ATOM     20  H   UNL     1       0.378  -5.724  -1.240  0.00  0.00    +0.149 HD
BRANCH  17  21
ATOM     21  C   UNL     1       1.647  -4.381  -2.286  0.00  0.00    +0.108 C 
BRANCH  21  22
ATOM     22  C   UNL     1       2.210  -4.006  -0.914  0.00  0.00    +0.052 C 
BRANCH  22  29
ATOM     23  C   UNL     1       2.131   0.576  -0.675  0.00  0.00    +0.001 A 
ATOM     24  C   UNL     1       3.379   1.172  -0.899  0.00  0.00    +0.002 A 
ATOM     25  C   UNL     1       4.493   0.456  -1.160  0.00  0.00    +0.026 A 
ATOM     26  C   UNL     1       4.437  -0.964  -1.218  0.00  0.00    +0.043 A 
ATOM     27  N   UNL     1       5.361  -1.866  -1.449  0.00  0.00    -0.380 N 
ATOM     28  C   UNL     1       4.743  -3.195  -1.389  0.00  0.00    +0.144 C 
ATOM     29  C   UNL     1       3.281  -2.959  -1.080  0.00  0.00    -0.040 C 
ATOM     30  C   UNL     1       3.130  -1.619  -0.984  0.00  0.00    -0.001 A 
ATOM     31  C   UNL     1       1.968  -0.766  -0.706  0.00  0.00    +0.010 A 
ATOM     32  H   UNL     1       6.296  -1.684  -1.631  0.00  0.00    +0.160 HD
ENDBRANCH  22  29
ENDBRANCH  21  22
ENDBRANCH  17  21
ENDBRANCH   1  18
BRANCH   9  33
ATOM     33  C   UNL     1      -3.759  -6.380  -6.098  0.00  0.00    +0.406 C 
ATOM     34  F   UNL     1      -2.395  -6.133  -6.292  0.00  0.00    -0.169 F 
ATOM     35  F   UNL     1      -4.384  -6.546  -7.339  0.00  0.00    -0.169 F 
ATOM     36  F   UNL     1      -4.337  -5.298  -5.426  0.00  0.00    -0.169 F 
ENDBRANCH   9  33
TORSDOF 6
