REMARK  Name = ZINC01052109
REMARK  15 active torsions:
REMARK  status: ('A' for Active; 'I' for Inactive)
REMARK    1  A    between atoms: C_1  and  C_2
REMARK    2  A    between atoms: C_3  and  C_35
REMARK    3  A    between atoms: C_4  and  C_33
REMARK    4  A    between atoms: C_5  and  S_9
REMARK    5  A    between atoms: C_7  and  C_8
REMARK    6  A    between atoms: S_9  and  C_10
REMARK    7  A    between atoms: C_10  and  C_11
REMARK    8  A    between atoms: C_12  and  C_27
REMARK    9  A    between atoms: C_13  and  C_21
REMARK   10  A    between atoms: C_15  and  C_19
REMARK   11  A    between atoms: C_16  and  N_18
REMARK   12  A    between atoms: C_27  and  O_29
REMARK   13  A    between atoms: O_29  and  C_30
REMARK   14  A    between atoms: C_30  and  C_31
REMARK   15  A    between atoms: C_30  and  C_32
REMARK                            x       y       z     vdW  Elec       q    Type
REMARK                         _______ _______ _______ _____ _____    ______ ____
ROOT
ATOM      1  C   UNL     1       5.774   0.051  -1.056  0.00  0.00    +0.128 C 
ATOM      2  C   UNL     1       4.537  -0.423  -1.247  0.00  0.00    +0.088 C 
ATOM      3  C   UNL     1       3.477  -0.279  -0.189  0.00  0.00    +0.105 C 
ATOM      4  C   UNL     1       4.118   0.061   1.130  0.00  0.00    +0.098 C 
ATOM      5  C   UNL     1       5.394   0.512   1.184  0.00  0.00    +0.198 C 
ATOM      6  O   UNL     1       6.135   0.676   0.074  0.00  0.00    -0.444 OA
ENDROOT
BRANCH   3   7
ATOM      7  C   UNL     1       2.524   0.821  -0.581  0.00  0.00    -0.034 A 
ATOM      8  C   UNL     1       1.183   0.540  -0.764  0.00  0.00    +0.004 A 
ATOM      9  C   UNL     1       0.309   1.549  -1.123  0.00  0.00    +0.000 A 
ATOM     10  C   UNL     1       0.775   2.838  -1.300  0.00  0.00    +0.000 A 
ATOM     11  C   UNL     1       2.117   3.118  -1.118  0.00  0.00    +0.000 A 
ATOM     12  C   UNL     1       2.991   2.110  -0.759  0.00  0.00    +0.004 A 
ENDBRANCH   3   7
BRANCH   5  13
ATOM     13  N   UNL     1       5.946   0.810   2.405  0.00  0.00    -0.328 N 
ATOM     14  H   UNL     1       5.423   0.696   3.214  0.00  0.00    +0.145 HD
ATOM     15  H   UNL     1       6.859   1.134   2.459  0.00  0.00    +0.145 HD
ENDBRANCH   5  13
BRANCH   4  16
ATOM     16  C   UNL     1       3.370  -0.093   2.341  0.00  0.00    +0.101 C 
ATOM     17  N   UNL     1       2.776  -0.216   3.302  0.00  0.00    -0.191 NA
ENDBRANCH   4  16
BRANCH   2  18
ATOM     18  C   UNL     1       4.220  -1.073  -2.465  0.00  0.00    +0.340 C 
ATOM     19  O   UNL     1       4.883  -0.854  -3.462  0.00  0.00    -0.245 OA
BRANCH  18  20
ATOM     20  O   UNL     1       3.184  -1.936  -2.520  0.00  0.00    -0.459 OA
BRANCH  20  21
ATOM     21  C   UNL     1       2.922  -2.555  -3.781  0.00  0.00    +0.171 C 
ATOM     22  C   UNL     1       3.713  -3.861  -3.882  0.00  0.00    +0.052 C 
ATOM     23  C   UNL     1       1.426  -2.854  -3.901  0.00  0.00    +0.052 C 
ENDBRANCH  20  21
ENDBRANCH  18  20
ENDBRANCH   2  18
BRANCH   1  24
ATOM     24  C   UNL     1       6.797  -0.123  -2.149  0.00  0.00    +0.150 C 
BRANCH  24  25
ATOM     25  S   UNL     1       7.035   1.451  -3.010  0.00  0.00    -0.097 S 
BRANCH  25  30
ATOM     26  C   UNL     1      11.148  -0.291  -7.018  0.00  0.00    +0.046 C 
ATOM     27  C   UNL     1      10.117   0.192  -6.031  0.00  0.00    -0.025 A 
ATOM     28  C   UNL     1       9.697   1.510  -6.050  0.00  0.00    -0.026 A 
ATOM     29  C   UNL     1       8.734   1.915  -5.119  0.00  0.00    +0.087 A 
ATOM     30  C   UNL     1       8.243   0.971  -4.199  0.00  0.00    +0.115 A 
ATOM     31  N   UNL     1       8.681  -0.279  -4.225  0.00  0.00    -0.244 NA
ATOM     32  C   UNL     1       9.584  -0.680  -5.099  0.00  0.00    +0.043 A 
ATOM     33  C   UNL     1      10.043  -2.115  -5.081  0.00  0.00    +0.066 C 
ATOM     34  C   UNL     1      10.258   2.485  -7.053  0.00  0.00    +0.045 C 
BRANCH  29  35
ATOM     35  C   UNL     1       8.261   3.266  -5.099  0.00  0.00    +0.102 C 
ATOM     36  N   UNL     1       7.885   4.338  -5.084  0.00  0.00    -0.191 NA
ENDBRANCH  29  35
ENDBRANCH  25  30
ENDBRANCH  24  25
ENDBRANCH   1  24
TORSDOF 10
