REMARK  Name = ZINC39380463
REMARK  6 active torsions:
REMARK  status: ('A' for Active; 'I' for Inactive)
REMARK    1  A    between atoms: C_7  and  C_10
REMARK    2  A    between atoms: C_10  and  C_11
REMARK    3  A    between atoms: C_11  and  N_12
REMARK    4  A    between atoms: C_25  and  N_29
REMARK    5  A    between atoms: N_29  and  C_30
REMARK    6  A    between atoms: C_30  and  C_31
REMARK                            x       y       z     vdW  Elec       q    Type
REMARK                         _______ _______ _______ _____ _____    ______ ____
ROOT
ATOM      1  N   UNL     1      -4.962   5.047  -1.362  0.00  0.00    -0.262 N 
ATOM      2  C   UNL     1      -6.317   5.265  -1.446  0.00  0.00    +0.186 C 
ATOM      3  N   UNL     1      -6.843   6.372  -1.067  0.00  0.00    -0.261 NA
ATOM      4  C   UNL     1      -6.060   7.479  -0.528  0.00  0.00    +0.184 C 
ATOM      5  C   UNL     1      -4.644   7.478  -1.159  0.00  0.00    +0.137 C 
ATOM      6  C   UNL     1      -4.119   6.094  -1.262  0.00  0.00    +0.230 C 
ATOM      7  O   UNL     1      -2.922   5.903  -1.244  0.00  0.00    -0.274 OA
ATOM      8  C   UNL     1      -4.674   8.094  -2.535  0.00  0.00    -0.046 C 
ATOM      9  C   UNL     1      -5.665   8.943  -2.797  0.00  0.00    -0.014 C 
ATOM     10  S   UNL     1      -6.688   9.040  -1.295  0.00  0.00    -0.102 S 
ATOM     11  C   UNL     1      -5.899   9.691  -4.077  0.00  0.00    +0.026 C 
ATOM     12  C   UNL     1      -4.626   9.621  -4.929  0.00  0.00    -0.066 C 
ATOM     13  C   UNL     1      -4.145   8.167  -4.966  0.00  0.00    -0.011 C 
ATOM     14  C   UNL     1      -3.618   7.768  -3.587  0.00  0.00    +0.031 C 
ENDROOT
BRANCH  12  15
ATOM     15  N   UNL     1      -4.918  10.083  -6.293  0.00  0.00    +0.384 N 
ATOM     16  H   UNL     1      -4.101   9.959  -6.872  0.00  0.00    -0.085 HD
ATOM     17  H   UNL     1      -5.684   9.547  -6.672  0.00  0.00    -0.085 HD
BRANCH  15  18
ATOM     18  C   UNL     1      -5.284  11.505  -6.260  0.00  0.00    -0.043 C 
BRANCH  18  19
ATOM     19  C   UNL     1      -5.584  11.979  -7.659  0.00  0.00    -0.026 A 
ATOM     20  C   UNL     1      -4.627  12.676  -8.373  0.00  0.00    +0.005 A 
ATOM     21  C   UNL     1      -4.900  13.111  -9.656  0.00  0.00    +0.003 A 
ATOM     22  C   UNL     1      -6.131  12.850 -10.229  0.00  0.00    +0.041 A 
ATOM     23  C   UNL     1      -7.091  12.152  -9.517  0.00  0.00    +0.159 A 
ATOM     24  C   UNL     1      -6.815  11.711  -8.231  0.00  0.00    +0.160 A 
ATOM     25  F   UNL     1      -7.748  11.025  -7.537  0.00  0.00    -0.202 F 
ATOM     26  F   UNL     1      -8.295  11.897 -10.075  0.00  0.00    -0.202 F 
ENDBRANCH  18  19
ENDBRANCH  15  18
ENDBRANCH  12  15
BRANCH   1  27
ATOM     27  C   UNL     1      -4.437   3.680  -1.374  0.00  0.00    +0.119 C 
BRANCH  27  28
ATOM     28  C   UNL     1      -4.358   3.151   0.060  0.00  0.00    +0.056 C 
BRANCH  28  35
ATOM     29  C   UNL     1      -0.017   1.384   0.010  0.00  0.00    +0.001 A 
ATOM     30  C   UNL     1       0.002  -0.004   0.002  0.00  0.00    +0.002 A 
ATOM     31  C   UNL     1      -1.173  -0.723   0.009  0.00  0.00    +0.026 A 
ATOM     32  C   UNL     1      -2.392  -0.053   0.024  0.00  0.00    +0.047 A 
ATOM     33  N   UNL     1      -3.704  -0.472   0.034  0.00  0.00    -0.360 N 
ATOM     34  C   UNL     1      -4.539   0.612   0.047  0.00  0.00    +0.087 A 
ATOM     35  C   UNL     1      -3.818   1.744   0.047  0.00  0.00    -0.021 A 
ATOM     36  C   UNL     1      -2.406   1.353   0.032  0.00  0.00    +0.003 A 
ATOM     37  C   UNL     1      -1.203   2.062   0.030  0.00  0.00    +0.010 A 
ATOM     38  H   UNL     1      -3.993  -1.398   0.030  0.00  0.00    +0.165 HD
ENDBRANCH  28  35
ENDBRANCH  27  28
ENDBRANCH   1  27
TORSDOF 6
