REMARK  Name = ZINC22973557
REMARK  7 active torsions:
REMARK  status: ('A' for Active; 'I' for Inactive)
REMARK    1  A    between atoms: C_1  and  C_2
REMARK    2  A    between atoms: C_2  and  C_3
REMARK    3  A    between atoms: C_2  and  C_4
REMARK    4  A    between atoms: C_2  and  C_5
REMARK    5  A    between atoms: N_13  and  C_17
REMARK    6  A    between atoms: C_17  and  C_18
REMARK    7  A    between atoms: C_24  and  C_26
REMARK                            x       y       z     vdW  Elec       q    Type
REMARK                         _______ _______ _______ _____ _____    ______ ____
ROOT
ATOM      1  C   UNL     1      -2.488   1.601   0.024  0.00  0.00    +0.213 C 
ENDROOT
BRANCH   1  10
ATOM      2  C   UNL     1      -6.133   5.295   3.162  0.00  0.00    -0.005 C 
ATOM      3  C   UNL     1      -4.719   5.641   2.692  0.00  0.00    +0.006 C 
ATOM      4  C   UNL     1      -4.665   5.593   1.163  0.00  0.00    +0.035 C 
ATOM      5  C   UNL     1      -5.052   4.199   0.681  0.00  0.00    +0.113 C 
ATOM      6  C   UNL     1      -6.450   3.830   1.163  0.00  0.00    +0.035 C 
ATOM      7  C   UNL     1      -6.497   3.885   2.692  0.00  0.00    +0.006 C 
ATOM      8  C   UNL     1      -4.047   3.174   1.155  0.00  0.00    +0.247 C 
ATOM      9  O   UNL     1      -3.774   2.890   2.302  0.00  0.00    -0.273 OA
ATOM     10  N   UNL     1      -3.517   2.644   0.034  0.00  0.00    -0.215 N 
ATOM     11  C   UNL     1      -4.051   3.185  -1.068  0.00  0.00    +0.310 C 
ATOM     12  O   UNL     1      -3.736   2.866  -2.198  0.00  0.00    -0.252 OA
ATOM     13  N   UNL     1      -4.976   4.121  -0.783  0.00  0.00    -0.285 N 
ATOM     14  H   UNL     1      -5.615   4.769  -1.402  0.00  0.00    +0.151 HD
BRANCH   2  16
ATOM     15  C   UNL     1      -5.829   6.764   5.160  0.00  0.00    +0.011 C 
ATOM     16  C   UNL     1      -6.192   5.354   4.690  0.00  0.00    -0.035 C 
ATOM     17  C   UNL     1      -7.606   5.008   5.160  0.00  0.00    +0.011 C 
ATOM     18  C   UNL     1      -5.199   4.349   5.277  0.00  0.00    +0.011 C 
ENDBRANCH   2  16
ENDBRANCH   1  10
BRANCH   1  19
ATOM     19  C   UNL     1      -1.124   2.240   0.020  0.00  0.00    +0.234 C 
ATOM     20  O   UNL     1      -1.021   3.449   0.025  0.00  0.00    -0.274 OA
ATOM     21  N   UNL     1      -0.018   1.470   0.010  0.00  0.00    -0.293 N 
ATOM     22  C   UNL     1       0.002  -0.004   0.002  0.00  0.00    +0.108 C 
ATOM     23  C   UNL     1       1.380  -0.385   0.599  0.00  0.00    +0.021 C 
ATOM     24  C   UNL     1       2.292   0.724   0.011  0.00  0.00    +0.029 C 
ATOM     25  C   UNL     1       1.368   1.960  -0.001  0.00  0.00    +0.106 C 
BRANCH  25  26
ATOM     26  C   UNL     1       1.615   2.773  -1.246  0.00  0.00    -0.023 A 
ATOM     27  C   UNL     1       1.089   2.358  -2.455  0.00  0.00    +0.009 A 
ATOM     28  C   UNL     1       1.311   3.102  -3.599  0.00  0.00    +0.050 A 
ATOM     29  C   UNL     1       2.069   4.261  -3.537  0.00  0.00    +0.162 A 
ATOM     30  C   UNL     1       2.600   4.677  -2.322  0.00  0.00    +0.162 A 
ATOM     31  C   UNL     1       2.371   3.928  -1.177  0.00  0.00    +0.055 A 
ATOM     32  O   UNL     1       3.340   5.816  -2.238  0.00  0.00    -0.485 OA
ATOM     33  C   UNL     1       3.859   6.338  -3.465  0.00  0.00    +0.270 C 
ATOM     34  C   UNL     1       2.732   6.329  -4.507  0.00  0.00    +0.270 C 
ATOM     35  O   UNL     1       2.288   4.978  -4.674  0.00  0.00    -0.485 OA
ENDBRANCH  25  26
ENDBRANCH   1  19
TORSDOF 4
