REMARK  Name = ZINC11338495
REMARK  10 active torsions:
REMARK  status: ('A' for Active; 'I' for Inactive)
REMARK    1  A    between atoms: C_4  and  C_7
REMARK    2  A    between atoms: C_7  and  N_8
REMARK    3  A    between atoms: C_9  and  N_37
REMARK    4  A    between atoms: C_10  and  N_17
REMARK    5  A    between atoms: N_17  and  C_18
REMARK    6  A    between atoms: N_17  and  C_26
REMARK    7  A    between atoms: C_18  and  C_19
REMARK    8  A    between atoms: C_19  and  C_20
REMARK    9  A    between atoms: C_26  and  C_27
REMARK   10  A    between atoms: N_29  and  C_30
REMARK                            x       y       z     vdW  Elec       q    Type
REMARK                         _______ _______ _______ _____ _____    ______ ____
ROOT
ATOM      1  N   UNL     1      -0.590   5.045  -4.284  0.00  0.00    -0.314 N 
ENDROOT
BRANCH   1   4
ATOM      2  N   UNL     1       1.550   7.585  -5.847  0.00  0.00    -0.276 N 
ATOM      3  C   UNL     1       0.503   7.014  -5.159  0.00  0.00    +0.127 A 
ATOM      4  C   UNL     1       0.472   5.656  -4.991  0.00  0.00    +0.134 A 
ATOM      5  C   UNL     1       1.508   4.877  -5.537  0.00  0.00    +0.277 A 
ATOM      6  O   UNL     1       1.500   3.665  -5.404  0.00  0.00    -0.266 OA
ATOM      7  N   UNL     1       2.511   5.479  -6.206  0.00  0.00    -0.273 N 
ATOM      8  H   UNL     1       3.248   4.926  -6.595  0.00  0.00    +0.173 HD
ATOM      9  C   UNL     1       2.529   6.815  -6.358  0.00  0.00    +0.331 A 
ATOM     10  O   UNL     1       3.443   7.336  -6.966  0.00  0.00    -0.246 OA
BRANCH   3  11
ATOM     11  N   UNL     1      -0.500   7.801  -4.641  0.00  0.00    -0.343 N 
ATOM     12  H   UNL     1      -1.234   7.394  -4.155  0.00  0.00    +0.144 HD
ATOM     13  H   UNL     1      -0.473   8.763  -4.763  0.00  0.00    +0.144 HD
ENDBRANCH   3  11
BRANCH   2  14
ATOM     14  C   UNL     1       1.596   9.037  -6.028  0.00  0.00    +0.163 C 
BRANCH  14  18
ATOM     15  C   UNL     1      -0.435  10.088  -9.636  0.00  0.00    +0.000 A 
ATOM     16  C   UNL     1      -1.132  10.027  -8.443  0.00  0.00    +0.000 A 
ATOM     17  C   UNL     1      -0.474   9.686  -7.276  0.00  0.00    +0.005 A 
ATOM     18  C   UNL     1       0.879   9.408  -7.301  0.00  0.00    -0.028 A 
ATOM     19  C   UNL     1       1.577   9.475  -8.492  0.00  0.00    +0.005 A 
ATOM     20  C   UNL     1       0.918   9.810  -9.661  0.00  0.00    +0.000 A 
ENDBRANCH  14  18
ENDBRANCH   2  14
ENDBRANCH   1   4
BRANCH   1  21
ATOM     21  C   UNL     1      -0.089   4.308  -3.116  0.00  0.00    +0.110 C 
BRANCH  21  22
ATOM     22  C   UNL     1       0.289   5.298  -2.013  0.00  0.00    +0.049 C 
BRANCH  22  23
ATOM     23  C   UNL     1       0.685   4.540  -0.772  0.00  0.00    -0.072 C 
ATOM     24  C   UNL     1       1.944   4.303  -0.581  0.00  0.00    -0.028 C 
ATOM     25  C   UNL     1       2.489   3.554   0.599  0.00  0.00    +0.027 C 
ATOM     26  C   UNL     1       1.444   3.486   1.713  0.00  0.00    +0.004 C 
ATOM     27  C   UNL     1       0.116   3.016   1.107  0.00  0.00    +0.005 C 
ATOM     28  C   UNL     1      -0.403   4.105   0.165  0.00  0.00    +0.030 C 
ENDBRANCH  22  23
ENDBRANCH  21  22
ENDBRANCH   1  21
BRANCH   1  29
ATOM     29  C   UNL     1      -1.372   4.167  -5.165  0.00  0.00    +0.201 C 
BRANCH  29  30
ATOM     30  C   UNL     1      -2.729   3.924  -4.557  0.00  0.00    +0.235 C 
ATOM     31  O   UNL     1      -2.986   4.361  -3.454  0.00  0.00    -0.274 OA
ATOM     32  N   UNL     1      -3.657   3.222  -5.237  0.00  0.00    -0.282 N 
ATOM     33  H   UNL     1      -3.425   2.802  -6.080  0.00  0.00    +0.155 HD
BRANCH  32  34
ATOM     34  C   UNL     1      -4.955   3.099  -4.726  0.00  0.00    +0.069 A 
ATOM     35  C   UNL     1      -5.521   4.143  -4.007  0.00  0.00    +0.026 A 
ATOM     36  C   UNL     1      -6.804   4.021  -3.509  0.00  0.00    +0.002 A 
ATOM     37  C   UNL     1      -7.521   2.856  -3.717  0.00  0.00    +0.003 A 
ATOM     38  C   UNL     1      -6.959   1.812  -4.428  0.00  0.00    +0.040 A 
ATOM     39  C   UNL     1      -5.677   1.929  -4.934  0.00  0.00    +0.144 A 
ATOM     40  F   UNL     1      -5.128   0.909  -5.628  0.00  0.00    -0.204 F 
ENDBRANCH  32  34
ENDBRANCH  29  30
ENDBRANCH   1  29
TORSDOF 10
