REMARK  Name = ZINC43288301
REMARK  6 active torsions:
REMARK  status: ('A' for Active; 'I' for Inactive)
REMARK    1  A    between atoms: C_4  and  O_11
REMARK    2  A    between atoms: C_5  and  C_7
REMARK    3  A    between atoms: O_11  and  C_12
REMARK    4  A    between atoms: C_12  and  C_14
REMARK    5  A    between atoms: C_12  and  C_16
REMARK    6  A    between atoms: C_14  and  N_15
REMARK                            x       y       z     vdW  Elec       q    Type
REMARK                         _______ _______ _______ _____ _____    ______ ____
ROOT
ATOM      1  C   UNL     1       4.769   0.160  -0.156  0.00  0.00    +0.193 C 
ENDROOT
BRANCH   1   2
ATOM      2  C   UNL     1       5.791  -0.585  -0.975  0.00  0.00    +0.029 A 
ATOM      3  C   UNL     1       6.706  -0.096  -1.848  0.00  0.00    +0.030 A 
ATOM      4  C   UNL     1       7.553  -0.976  -2.495  0.00  0.00    +0.025 A 
ATOM      5  C   UNL     1       7.444  -2.303  -2.236  0.00  0.00    +0.060 A 
ATOM      6  S   UNL     1       6.118  -2.338  -1.041  0.00  0.00    -0.097 S 
ATOM      7 BR   UNL     1       8.844  -0.341  -3.722  0.00  0.00    -0.050 Br
ENDBRANCH   1   2
BRANCH   1   8
ATOM      8  O   UNL     1       3.586  -0.632  -0.037  0.00  0.00    -0.485 OA
BRANCH   8  12
ATOM      9  C   UNL     1      -0.023   1.364  -0.149  0.00  0.00    +0.001 A 
ATOM     10  C   UNL     1       1.161   2.078  -0.141  0.00  0.00    +0.004 A 
ATOM     11  C   UNL     1       2.370   1.412  -0.103  0.00  0.00    +0.046 A 
ATOM     12  C   UNL     1       2.397   0.025  -0.073  0.00  0.00    +0.133 A 
ATOM     13  C   UNL     1       1.208  -0.689  -0.081  0.00  0.00    +0.096 A 
ATOM     14  C   UNL     1       0.000  -0.018  -0.119  0.00  0.00    +0.016 A 
BRANCH  13  15
ATOM     15  C   UNL     1       1.233  -2.195  -0.049  0.00  0.00    +0.421 C 
ATOM     16  F   UNL     1      -0.078  -2.684  -0.064  0.00  0.00    -0.166 F 
ATOM     17  F   UNL     1       1.921  -2.674  -1.169  0.00  0.00    -0.166 F 
ATOM     18  F   UNL     1       1.878  -2.626   1.115  0.00  0.00    -0.166 F 
ENDBRANCH  13  15
ENDBRANCH   8  12
ENDBRANCH   1   8
BRANCH   1  19
ATOM     19  C   UNL     1       5.337   0.440   1.237  0.00  0.00    -0.036 C 
BRANCH  19  20
ATOM     20  N   UNL     1       4.340   1.166   2.036  0.00  0.00    +0.381 N 
ATOM     21  H   UNL     1       4.117   2.039   1.582  0.00  0.00    -0.090 HD
ATOM     22  H   UNL     1       3.505   0.607   2.120  0.00  0.00    -0.090 HD
ATOM     23  H   UNL     1       4.715   1.351   2.954  0.00  0.00    -0.090 HD
ENDBRANCH  19  20
ENDBRANCH   1  19
TORSDOF 6
