REMARK  Name = ZINC01819013
REMARK  6 active torsions:
REMARK  status: ('A' for Active; 'I' for Inactive)
REMARK    1  A    between atoms: C_11  and  C_19
REMARK    2  A    between atoms: C_13  and  C_17
REMARK    3  A    between atoms: C_14  and  N_16
REMARK    4  A    between atoms: C_25  and  N_36
REMARK    5  A    between atoms: C_26  and  C_34
REMARK    6  A    between atoms: C_27  and  C_29
REMARK                            x       y       z     vdW  Elec       q    Type
REMARK                         _______ _______ _______ _____ _____    ______ ____
ROOT
ATOM      1  C   UNL     1      -2.226  -0.314   4.936  0.00  0.00    +0.001 A 
ATOM      2  C   UNL     1      -1.513  -0.640   3.784  0.00  0.00    +0.001 A 
ATOM      3  C   UNL     1      -1.847  -0.105   2.578  0.00  0.00    +0.009 A 
ATOM      4  C   UNL     1      -2.927   0.791   2.491  0.00  0.00    -0.010 A 
ATOM      5  C   UNL     1      -3.652   1.121   3.661  0.00  0.00    -0.010 A 
ATOM      6  C   UNL     1      -3.278   0.549   4.889  0.00  0.00    +0.009 A 
ATOM      7  C   UNL     1      -4.734   2.016   3.577  0.00  0.00    +0.019 A 
ATOM      8  C   UNL     1      -5.072   2.556   2.373  0.00  0.00    +0.177 A 
ATOM      9  C   UNL     1      -4.347   2.229   1.207  0.00  0.00    +0.177 A 
ATOM     10  C   UNL     1      -3.298   1.368   1.259  0.00  0.00    +0.019 A 
ATOM     11  C   UNL     1      -2.521   1.012   0.019  0.00  0.00    +0.099 C 
ATOM     12  C   UNL     1      -3.307   1.382  -1.208  0.00  0.00    +0.098 C 
ATOM     13  C   UNL     1      -4.351   2.243  -1.132  0.00  0.00    +0.199 C 
ATOM     14  O   UNL     1      -4.722   2.798   0.033  0.00  0.00    -0.437 OA
ATOM     15  O   UNL     1      -6.114   3.420   2.265  0.00  0.00    -0.437 OA
ATOM     16  C   UNL     1      -6.571   4.062   3.352  0.00  0.00    +0.199 C 
ATOM     17  C   UNL     1      -6.316   3.609   4.604  0.00  0.00    +0.098 C 
ATOM     18  C   UNL     1      -5.505   2.363   4.823  0.00  0.00    +0.099 C 
ENDROOT
BRANCH  11  19
ATOM     19  C   UNL     1      -1.213   1.761   0.017  0.00  0.00    -0.028 A 
ATOM     20  C   UNL     1      -0.013   1.076   0.008  0.00  0.00    +0.012 A 
ATOM     21  C   UNL     1       1.146   1.780   0.001  0.00  0.00    +0.045 A 
ATOM     22  S   UNL     1       0.555   3.464   0.015  0.00  0.00    -0.105 S 
ATOM     23  C   UNL     1      -1.196   3.116   0.030  0.00  0.00    +0.049 A 
ENDBRANCH  11  19
BRANCH  18  24
ATOM     24  C   UNL     1      -6.427   1.222   5.170  0.00  0.00    -0.028 A 
ATOM     25  C   UNL     1      -6.301   0.559   6.376  0.00  0.00    +0.012 A 
ATOM     26  C   UNL     1      -7.146  -0.462   6.656  0.00  0.00    +0.045 A 
ATOM     27  S   UNL     1      -8.164  -0.512   5.190  0.00  0.00    -0.105 S 
ATOM     28  C   UNL     1      -7.396   0.835   4.305  0.00  0.00    +0.049 A 
ENDBRANCH  18  24
BRANCH  13  29
ATOM     29  N   UNL     1      -5.045   2.556  -2.274  0.00  0.00    -0.328 N 
ATOM     30  H   UNL     1      -4.787   2.162  -3.122  0.00  0.00    +0.145 HD
ATOM     31  H   UNL     1      -5.794   3.171  -2.233  0.00  0.00    +0.145 HD
ENDBRANCH  13  29
BRANCH  16  32
ATOM     32  N   UNL     1      -7.315   5.204   3.192  0.00  0.00    -0.328 N 
ATOM     33  H   UNL     1      -7.505   5.538   2.301  0.00  0.00    +0.145 HD
ATOM     34  H   UNL     1      -7.651   5.678   3.969  0.00  0.00    +0.145 HD
ENDBRANCH  16  32
BRANCH  12  35
ATOM     35  C   UNL     1      -2.950   0.815  -2.473  0.00  0.00    +0.101 C 
ATOM     36  N   UNL     1      -2.666   0.366  -3.477  0.00  0.00    -0.191 NA
ENDBRANCH  12  35
BRANCH  17  37
ATOM     37  C   UNL     1      -6.826   4.328   5.732  0.00  0.00    +0.101 C 
ATOM     38  N   UNL     1      -7.230   4.898   6.628  0.00  0.00    -0.191 NA
ENDBRANCH  17  37
TORSDOF 6
