REMARK  Name = ZINC12419361
REMARK  6 active torsions:
REMARK  status: ('A' for Active; 'I' for Inactive)
REMARK    1  A    between atoms: C_1  and  C_2
REMARK    2  A    between atoms: C_5  and  N_8
REMARK    3  A    between atoms: N_8  and  C_9
REMARK    4  A    between atoms: C_10  and  S_19
REMARK    5  A    between atoms: C_12  and  C_14
REMARK    6  A    between atoms: S_19  and  C_22
REMARK                            x       y       z     vdW  Elec       q    Type
REMARK                         _______ _______ _______ _____ _____    ______ ____
ROOT
ATOM      1  C   UNL     1       0.004  -0.014   0.124  0.00  0.00    +0.237 A 
ATOM      2  C   UNL     1      -0.012   1.321   0.353  0.00  0.00    +0.243 A 
ATOM      3  N   UNL     1       1.260   1.745   0.395  0.00  0.00    -0.186 NA
ATOM      4  C   UNL     1       2.054   0.715   0.199  0.00  0.00    +0.267 A 
ATOM      5  O   UNL     1       1.297  -0.387   0.029  0.00  0.00    -0.417 OA
ENDROOT
BRANCH   4   6
ATOM      6  C   UNL     1       3.522   0.759   0.170  0.00  0.00    +0.189 A 
ATOM      7  C   UNL     1       4.351  -0.305  -0.032  0.00  0.00    +0.055 A 
ATOM      8  C   UNL     1       5.667   0.192   0.020  0.00  0.00    +0.042 A 
ATOM      9  C   UNL     1       5.582   1.518   0.250  0.00  0.00    +0.196 A 
ATOM     10  O   UNL     1       4.285   1.858   0.334  0.00  0.00    -0.458 OA
ENDBRANCH   4   6
BRANCH   2  11
ATOM     11  S   UNL     1      -1.447   2.324   0.553  0.00  0.00    +0.047 S 
ATOM     12  O   UNL     1      -1.066   3.651   0.214  0.00  0.00    -0.163 OA
ATOM     13  O   UNL     1      -2.511   1.646  -0.101  0.00  0.00    -0.163 OA
BRANCH  11  14
ATOM     14  C   UNL     1      -1.839   2.336   2.271  0.00  0.00    +0.095 A 
ATOM     15  C   UNL     1      -2.691   1.381   2.792  0.00  0.00    +0.027 A 
ATOM     16  C   UNL     1      -2.995   1.387   4.141  0.00  0.00    +0.002 A 
ATOM     17  C   UNL     1      -2.454   2.355   4.966  0.00  0.00    +0.000 A 
ATOM     18  C   UNL     1      -1.606   3.314   4.444  0.00  0.00    +0.002 A 
ATOM     19  C   UNL     1      -1.298   3.304   3.096  0.00  0.00    +0.027 A 
ENDBRANCH  11  14
ENDBRANCH   2  11
BRANCH   1  20
ATOM     20  N   UNL     1      -1.106  -0.845   0.009  0.00  0.00    -0.283 N 
ATOM     21  H   UNL     1      -1.999  -0.465   0.008  0.00  0.00    +0.155 HD
BRANCH  20  26
ATOM     22  C   UNL     1      -0.411  -6.454  -0.457  0.00  0.00    +0.044 C 
ATOM     23  C   UNL     1      -0.596  -4.964  -0.333  0.00  0.00    -0.050 A 
ATOM     24  C   UNL     1       0.335  -4.208   0.356  0.00  0.00    +0.005 A 
ATOM     25  C   UNL     1       0.169  -2.842   0.471  0.00  0.00    +0.023 A 
ATOM     26  C   UNL     1      -0.935  -2.227  -0.106  0.00  0.00    +0.034 A 
ATOM     27  C   UNL     1      -1.872  -2.990  -0.793  0.00  0.00    +0.023 A 
ATOM     28  C   UNL     1      -1.696  -4.354  -0.909  0.00  0.00    +0.005 A 
ENDBRANCH  20  26
ENDBRANCH   1  20
TORSDOF 5
