REMARK  Name = ZINC01253890
REMARK  8 active torsions:
REMARK  status: ('A' for Active; 'I' for Inactive)
REMARK    1  A    between atoms: C_1  and  C_2
REMARK    2  A    between atoms: C_5  and  N_8
REMARK    3  A    between atoms: C_9  and  C_11
REMARK    4  A    between atoms: C_11  and  S_12
REMARK    5  A    between atoms: S_12  and  C_13
REMARK    6  A    between atoms: N_29  and  C_30
REMARK    7  A    between atoms: C_30  and  C_31
REMARK    8  A    between atoms: C_31  and  C_32
REMARK                            x       y       z     vdW  Elec       q    Type
REMARK                         _______ _______ _______ _____ _____    ______ ____
ROOT
ATOM      1  C   UNL     1       0.593  -8.709   2.636  0.00  0.00    +0.198 A 
ATOM      2  N   UNL     1       0.602  -9.363   1.501  0.00  0.00    -0.120 NA
ATOM      3  N   UNL     1       0.736 -10.727   1.787  0.00  0.00    -0.109 NA
ATOM      4  C   UNL     1       0.804 -10.866   3.090  0.00  0.00    +0.240 A 
ATOM      5  N   UNL     1       0.724  -9.618   3.652  0.00  0.00    -0.249 N 
ATOM      6  C   UNL     1       0.777  -9.468   5.022  0.00  0.00    +0.102 A 
ATOM      7  C   UNL     1       0.915 -10.559   5.872  0.00  0.00    +0.074 A 
ATOM      8  C   UNL     1       0.959 -10.245   7.300  0.00  0.00    -0.023 A 
ATOM      9  C   UNL     1       0.856  -8.933   7.595  0.00  0.00    -0.004 A 
ATOM     10  S   UNL     1       0.706  -8.132   6.026  0.00  0.00    -0.074 S 
ATOM     11  C   UNL     1       0.867  -8.313   8.959  0.00  0.00    +0.043 C 
ATOM     12  C   UNL     1       0.636  -9.423   9.995  0.00  0.00    +0.005 C 
ATOM     13  C   UNL     1       1.566 -10.598   9.678  0.00  0.00    +0.005 C 
ATOM     14  C   UNL     1       1.108 -11.293   8.393  0.00  0.00    +0.037 C 
ATOM     15  C   UNL     1       1.002 -11.890   5.228  0.00  0.00    +0.264 A 
ATOM     16  O   UNL     1       1.123 -12.892   5.910  0.00  0.00    -0.267 OA
ATOM     17  N   UNL     1       0.938 -11.988   3.890  0.00  0.00    -0.276 N 
ENDROOT
BRANCH   1  18
ATOM     18  S   UNL     1       0.446  -6.963   2.823  0.00  0.00    -0.076 S 
BRANCH  18  19
ATOM     19  C   UNL     1       0.309  -6.349   1.121  0.00  0.00    +0.173 C 
BRANCH  19  21
ATOM     20  N   UNL     1       0.059  -4.170  -0.021  0.00  0.00    -0.285 N 
ATOM     21  C   UNL     1       0.175  -4.848   1.138  0.00  0.00    +0.227 C 
ATOM     22  O   UNL     1       0.173  -4.251   2.193  0.00  0.00    -0.275 OA
ATOM     23  H   UNL     1      -0.017  -4.651  -0.860  0.00  0.00    +0.155 HD
BRANCH  20  28
ATOM     24  C   UNL     1       0.008   1.503   0.007  0.00  0.00    +0.044 C 
ATOM     25  C   UNL     1       0.022  -0.004  -0.001  0.00  0.00    -0.050 A 
ATOM     26  C   UNL     1       0.777  -0.692   0.931  0.00  0.00    +0.005 A 
ATOM     27  C   UNL     1       0.791  -2.073   0.927  0.00  0.00    +0.023 A 
ATOM     28  C   UNL     1       0.046  -2.771  -0.014  0.00  0.00    +0.033 A 
ATOM     29  C   UNL     1      -0.712  -2.077  -0.948  0.00  0.00    +0.023 A 
ATOM     30  C   UNL     1      -0.726  -0.696  -0.936  0.00  0.00    +0.005 A 
ENDBRANCH  20  28
ENDBRANCH  19  21
ENDBRANCH  18  19
ENDBRANCH   1  18
BRANCH  17  31
ATOM     31  C   UNL     1       1.026 -13.309   3.263  0.00  0.00    +0.133 C 
BRANCH  31  32
ATOM     32  C   UNL     1       2.493 -13.643   2.981  0.00  0.00    +0.057 C 
BRANCH  32  33
ATOM     33  C   UNL     1       2.584 -15.002   2.336  0.00  0.00    -0.046 A 
ATOM     34  C   UNL     1       2.712 -16.133   3.121  0.00  0.00    +0.004 A 
ATOM     35  C   UNL     1       2.796 -17.379   2.529  0.00  0.00    +0.000 A 
ATOM     36  C   UNL     1       2.751 -17.494   1.152  0.00  0.00    +0.000 A 
ATOM     37  C   UNL     1       2.622 -16.364   0.367  0.00  0.00    +0.000 A 
ATOM     38  C   UNL     1       2.534 -15.118   0.959  0.00  0.00    +0.004 A 
ENDBRANCH  32  33
ENDBRANCH  31  32
ENDBRANCH  17  31
TORSDOF 7
