REMARK  Name = ZINC40919812
REMARK  13 active torsions:
REMARK  status: ('A' for Active; 'I' for Inactive)
REMARK    1  A    between atoms: C_1  and  C_2
REMARK    2  A    between atoms: C_2  and  O_3
REMARK    3  A    between atoms: O_3  and  C_4
REMARK    4  A    between atoms: C_6  and  C_19
REMARK    5  A    between atoms: C_9  and  O_10
REMARK    6  A    between atoms: O_10  and  C_11
REMARK    7  A    between atoms: C_11  and  C_12
REMARK    8  A    between atoms: C_21  and  C_30
REMARK    9  A    between atoms: C_22  and  C_29
REMARK   10  A    between atoms: C_30  and  O_32
REMARK   11  A    between atoms: O_32  and  C_33
REMARK   12  A    between atoms: C_33  and  C_34
REMARK   13  A    between atoms: C_33  and  C_35
REMARK                            x       y       z     vdW  Elec       q    Type
REMARK                         _______ _______ _______ _____ _____    ______ ____
ROOT
ATOM      1  C   UNL     1      -1.756  -1.977  -0.369  0.00  0.00    +0.162 A 
ATOM      2  C   UNL     1      -0.609  -2.736  -0.204  0.00  0.00    +0.055 A 
ATOM      3  C   UNL     1      -0.688  -4.116  -0.196  0.00  0.00    -0.015 A 
ATOM      4  C   UNL     1      -1.911  -4.742  -0.352  0.00  0.00    +0.010 A 
ATOM      5  C   UNL     1      -3.059  -3.991  -0.517  0.00  0.00    +0.050 A 
ATOM      6  C   UNL     1      -2.988  -2.607  -0.520  0.00  0.00    +0.162 A 
ENDROOT
BRANCH   3   7
ATOM      7  C   UNL     1       0.561  -4.940  -0.017  0.00  0.00    +0.181 C 
ATOM      8  C   UNL     1       0.428  -5.793   1.216  0.00  0.00    +0.082 C 
ATOM      9  C   UNL     1       0.247  -7.122   1.173  0.00  0.00    +0.020 C 
ATOM     10  N   UNL     1       0.180  -7.814  -0.011  0.00  0.00    -0.286 N 
ATOM     11  C   UNL     1       0.562  -7.144  -1.164  0.00  0.00    +0.240 A 
ATOM     12  N   UNL     1       0.749  -5.798  -1.181  0.00  0.00    -0.201 N 
ATOM     13  N   UNL     1       1.128  -5.489  -2.486  0.00  0.00    -0.042 NA
ATOM     14  N   UNL     1       1.141  -6.606  -3.139  0.00  0.00    -0.021 NA
ATOM     15  N   UNL     1       0.806  -7.583  -2.366  0.00  0.00    -0.092 NA
ATOM     16  C   UNL     1       0.113  -7.881   2.468  0.00  0.00    +0.061 C 
ATOM     17  H   UNL     1      -0.122  -8.736  -0.040  0.00  0.00    +0.155 HD
BRANCH   8  18
ATOM     18  C   UNL     1       0.497  -5.165   2.480  0.00  0.00    +0.339 C 
ATOM     19  O   UNL     1       1.568  -4.779   2.910  0.00  0.00    -0.245 OA
BRANCH  18  20
ATOM     20  O   UNL     1      -0.626  -4.991   3.209  0.00  0.00    -0.459 OA
BRANCH  20  21
ATOM     21  C   UNL     1      -0.482  -4.348   4.478  0.00  0.00    +0.171 C 
ATOM     22  C   UNL     1      -0.640  -2.837   4.304  0.00  0.00    +0.052 C 
ATOM     23  C   UNL     1      -1.556  -4.867   5.436  0.00  0.00    +0.052 C 
ENDBRANCH  20  21
ENDBRANCH  18  20
ENDBRANCH   8  18
ENDBRANCH   3   7
BRANCH   1  24
ATOM     24  O   UNL     1      -1.680  -0.619  -0.377  0.00  0.00    -0.489 OA
BRANCH  24  26
ATOM     25  C   UNL     1      -0.496   1.484  -0.251  0.00  0.00    +0.048 C 
ATOM     26  C   UNL     1      -0.383  -0.042  -0.216  0.00  0.00    +0.226 C 
ENDBRANCH  24  26
ENDBRANCH   1  24
BRANCH   6  27
ATOM     27  O   UNL     1      -4.118  -1.867  -0.676  0.00  0.00    -0.484 OA
BRANCH  27  28
ATOM     28  C   UNL     1      -5.346  -2.581  -0.826  0.00  0.00    +0.264 C 
BRANCH  28  29
ATOM     29  C   UNL     1      -6.480  -1.602  -0.986  0.00  0.00    -0.010 A 
ATOM     30  C   UNL     1      -7.151  -1.133   0.128  0.00  0.00    +0.008 A 
ATOM     31  C   UNL     1      -8.191  -0.235  -0.018  0.00  0.00    +0.020 A 
ATOM     32  C   UNL     1      -8.562   0.195  -1.279  0.00  0.00    +0.041 A 
ATOM     33  C   UNL     1      -7.890  -0.274  -2.394  0.00  0.00    +0.020 A 
ATOM     34  C   UNL     1      -6.846  -1.168  -2.247  0.00  0.00    +0.008 A 
ATOM     35 CL   UNL     1      -9.869   1.323  -1.464  0.00  0.00    -0.084 Cl
ENDBRANCH  28  29
ENDBRANCH  27  28
ENDBRANCH   6  27
TORSDOF 9
