REMARK  Name = ZINC12009706
REMARK  3 active torsions:
REMARK  status: ('A' for Active; 'I' for Inactive)
REMARK    1  A    between atoms: C_3  and  C_6
REMARK    2  A    between atoms: C_8  and  N_22
REMARK    3  A    between atoms: C_23  and  C_25
REMARK                            x       y       z     vdW  Elec       q    Type
REMARK                         _______ _______ _______ _____ _____    ______ ____
ROOT
ATOM      1  C   UNL     1       5.759   6.549  -0.016  0.00  0.00    +0.130 A 
ATOM      2  C   UNL     1       4.840   5.478  -0.014  0.00  0.00    +0.077 A 
ATOM      3  C   UNL     1       3.590   6.004   0.001  0.00  0.00    +0.133 A 
ATOM      4  N   UNL     1       3.712   7.365   0.002  0.00  0.00    -0.184 N 
ATOM      5  N   UNL     1       5.078   7.676  -0.003  0.00  0.00    -0.159 NA
ATOM      6  C   UNL     1       2.672   8.274   0.009  0.00  0.00    +0.234 A 
ATOM      7  N   UNL     1       2.949   9.605   0.015  0.00  0.00    -0.291 N 
ATOM      8  H   UNL     1       3.870   9.911   0.013  0.00  0.00    +0.172 HD
ATOM      9  C   UNL     1       1.937  10.498   0.018  0.00  0.00    +0.256 A 
ATOM     10  O   UNL     1       2.166  11.696   0.018  0.00  0.00    -0.267 OA
ATOM     11  C   UNL     1       0.612  10.021   0.025  0.00  0.00    +0.038 A 
ATOM     12  C   UNL     1       0.394   8.675   0.024  0.00  0.00    +0.053 A 
ATOM     13  N   UNL     1       1.433   7.836   0.017  0.00  0.00    -0.217 NA
ATOM     14  C   UNL     1      -1.093   8.393   0.033  0.00  0.00    +0.056 C 
ATOM     15  C   UNL     1      -1.752   9.717   0.476  0.00  0.00    +0.011 C 
ATOM     16  C   UNL     1      -0.705  10.763   0.035  0.00  0.00    +0.043 C 
ENDROOT
BRANCH   1  19
ATOM     17  C   UNL     1       9.406   6.886  -0.048  0.00  0.00    +0.042 A 
ATOM     18  C   UNL     1       8.118   7.458  -0.038  0.00  0.00    +0.051 A 
ATOM     19  C   UNL     1       7.232   6.427  -0.030  0.00  0.00    +0.155 A 
ATOM     20  O   UNL     1       7.929   5.274  -0.043  0.00  0.00    -0.461 OA
ATOM     21  C   UNL     1       9.244   5.548  -0.054  0.00  0.00    +0.196 A 
ENDBRANCH   1  19
BRANCH   3  22
ATOM     22  N   UNL     1       2.396   5.287   0.008  0.00  0.00    -0.266 N 
ATOM     23  C   UNL     1       2.420   3.939   0.001  0.00  0.00    +0.251 C 
ATOM     24  O   UNL     1       3.484   3.350  -0.012  0.00  0.00    -0.270 OA
ATOM     25  H   UNL     1       1.548   5.757   0.018  0.00  0.00    +0.157 HD
BRANCH  23  26
ATOM     26  C   UNL     1       1.154   3.178   0.008  0.00  0.00    +0.057 A 
ATOM     27  C   UNL     1      -0.069   3.852   0.023  0.00  0.00    +0.034 A 
ATOM     28  C   UNL     1      -1.248   3.134   0.031  0.00  0.00    +0.042 A 
ATOM     29  C   UNL     1      -1.220   1.749   0.017  0.00  0.00    +0.021 A 
ATOM     30  C   UNL     1      -0.013   1.076   0.008  0.00  0.00    +0.022 A 
ATOM     31  C   UNL     1       1.175   1.781   0.000  0.00  0.00    +0.053 A 
ATOM     32 CL   UNL     1       2.690   0.934  -0.018  0.00  0.00    -0.083 Cl
ATOM     33 CL   UNL     1      -2.770   3.969   0.049  0.00  0.00    -0.084 Cl
ENDBRANCH  23  26
ENDBRANCH   3  22
TORSDOF 3
