REMARK  Name = ZINC22337203
REMARK  11 active torsions:
REMARK  status: ('A' for Active; 'I' for Inactive)
REMARK    1  A    between atoms: C_1  and  C_2
REMARK    2  A    between atoms: C_5  and  C_28
REMARK    3  A    between atoms: C_6  and  C_8
REMARK    4  A    between atoms: C_8  and  C_10
REMARK    5  A    between atoms: C_8  and  N_11
REMARK    6  A    between atoms: C_12  and  C_14
REMARK    7  A    between atoms: C_14  and  N_15
REMARK    8  A    between atoms: N_15  and  C_16
REMARK    9  A    between atoms: N_15  and  S_24
REMARK   10  A    between atoms: C_21  and  C_22
REMARK   11  A    between atoms: S_24  and  C_27
REMARK                            x       y       z     vdW  Elec       q    Type
REMARK                         _______ _______ _______ _____ _____    ______ ____
ROOT
ATOM      1  N   UNL     1       6.413  -1.236  -2.333  0.00  0.00    -0.307 N 
ATOM      2  C   UNL     1       5.699  -0.516  -1.445  0.00  0.00    +0.233 C 
ATOM      3  O   UNL     1       5.921   0.668  -1.305  0.00  0.00    -0.274 OA
ATOM      4  H   UNL     1       6.212  -2.309  -2.459  0.00  0.00    +0.149 HD
ENDROOT
BRANCH   1   5
ATOM      5  C   UNL     1       7.458  -0.587  -3.129  0.00  0.00    +0.100 C 
ATOM      6  C   UNL     1       8.789  -0.656  -2.376  0.00  0.00    +0.033 C 
BRANCH   5  12
ATOM      7  C   UNL     1       6.821  -4.676  -5.942  0.00  0.00    +0.044 C 
ATOM      8  C   UNL     1       7.288  -3.251  -5.798  0.00  0.00    -0.050 A 
ATOM      9  C   UNL     1       7.840  -2.592  -6.881  0.00  0.00    +0.003 A 
ATOM     10  C   UNL     1       8.269  -1.285  -6.750  0.00  0.00    +0.004 A 
ATOM     11  C   UNL     1       8.146  -0.636  -5.535  0.00  0.00    -0.046 A 
ATOM     12  C   UNL     1       7.593  -1.294  -4.453  0.00  0.00    -0.024 A 
ATOM     13  C   UNL     1       7.169  -2.604  -4.583  0.00  0.00    +0.009 A 
ATOM     14  C   UNL     1       8.613   0.790  -5.391  0.00  0.00    +0.044 C 
ENDBRANCH   5  12
ENDBRANCH   1   5
BRANCH   2  15
ATOM     15  C   UNL     1       4.624  -1.183  -0.626  0.00  0.00    +0.226 C 
BRANCH  15  16
ATOM     16  N   UNL     1       4.053  -0.214   0.313  0.00  0.00    -0.199 N 
BRANCH  16  17
ATOM     17  C   UNL     1       3.001   0.612  -0.089  0.00  0.00    +0.056 A 
ATOM     18  C   UNL     1       3.268   1.825  -0.711  0.00  0.00    +0.025 A 
ATOM     19  C   UNL     1       2.226   2.641  -1.107  0.00  0.00    +0.003 A 
ATOM     20  C   UNL     1       0.918   2.251  -0.886  0.00  0.00    +0.020 A 
ATOM     21  C   UNL     1       0.648   1.042  -0.267  0.00  0.00    +0.046 A 
ATOM     22  C   UNL     1       1.687   0.222   0.132  0.00  0.00    -0.010 A 
ATOM     23  C   UNL     1       1.393  -1.093   0.806  0.00  0.00    +0.047 C 
ATOM     24 CL   UNL     1      -0.996   0.557   0.008  0.00  0.00    -0.083 Cl
ENDBRANCH  16  17
BRANCH  16  25
ATOM     25  S   UNL     1       4.655  -0.099   1.851  0.00  0.00    +0.043 S 
ATOM     26  O   UNL     1       6.039  -0.397   1.723  0.00  0.00    -0.155 OA
ATOM     27  O   UNL     1       4.229   1.176   2.313  0.00  0.00    -0.155 OA
ATOM     28  C   UNL     1       3.817  -1.411   2.780  0.00  0.00    +0.218 C 
ENDBRANCH  16  25
ENDBRANCH  15  16
ENDBRANCH   2  15
TORSDOF 6
