REMARK  Name = ZINC35664207
REMARK  10 active torsions:
REMARK  status: ('A' for Active; 'I' for Inactive)
REMARK    1  A    between atoms: C_1  and  C_2
REMARK    2  A    between atoms: C_2  and  N_3
REMARK    3  A    between atoms: C_4  and  C_23
REMARK    4  A    between atoms: C_5  and  C_18
REMARK    5  A    between atoms: C_6  and  C_11
REMARK    6  A    between atoms: C_18  and  O_20
REMARK    7  A    between atoms: O_20  and  C_21
REMARK    8  A    between atoms: C_21  and  C_22
REMARK    9  A    between atoms: C_23  and  N_24
REMARK   10  A    between atoms: C_31  and  C_33
REMARK                            x       y       z     vdW  Elec       q    Type
REMARK                         _______ _______ _______ _____ _____    ______ ____
ROOT
ATOM      1  N   UNL     1       1.007  -0.199   1.458  0.00  0.00    -0.261 N 
ATOM      2  C   UNL     1       2.193  -0.776   1.101  0.00  0.00    +0.010 C 
ATOM      3  C   UNL     1       2.895  -1.525   1.979  0.00  0.00    +0.076 C 
ATOM      4  C   UNL     1       2.322  -1.703   3.370  0.00  0.00    +0.144 C 
ATOM      5  N   UNL     1       1.038  -1.039   3.654  0.00  0.00    -0.288 N 
ATOM      6  C   UNL     1       0.459  -0.319   2.673  0.00  0.00    +0.307 C 
ATOM      7  O   UNL     1      -0.599   0.236   2.898  0.00  0.00    -0.252 OA
ATOM      8  H   UNL     1       0.622  -1.116   4.526  0.00  0.00    +0.151 HD
ENDROOT
BRANCH   4   9
ATOM      9  C   UNL     1       3.337  -1.190   4.359  0.00  0.00    -0.020 A 
ATOM     10  C   UNL     1       3.444   0.168   4.599  0.00  0.00    +0.006 A 
ATOM     11  C   UNL     1       4.375   0.639   5.506  0.00  0.00    +0.003 A 
ATOM     12  C   UNL     1       5.200  -0.246   6.173  0.00  0.00    +0.038 A 
ATOM     13  C   UNL     1       5.094  -1.605   5.934  0.00  0.00    +0.124 A 
ATOM     14  C   UNL     1       4.157  -2.077   5.030  0.00  0.00    +0.044 A 
ATOM     15  F   UNL     1       5.901  -2.471   6.586  0.00  0.00    -0.205 F 
ENDBRANCH   4   9
BRANCH   1  17
ATOM     16  C   UNL     1       0.772   2.054   0.535  0.00  0.00    +0.025 C 
ATOM     17  C   UNL     1       0.299   0.601   0.455  0.00  0.00    +0.111 C 
ENDBRANCH   1  17
BRANCH   3  18
ATOM     18  C   UNL     1       4.122  -2.124   1.611  0.00  0.00    +0.339 C 
ATOM     19  O   UNL     1       4.608  -1.895   0.519  0.00  0.00    -0.245 OA
BRANCH  18  20
ATOM     20  O   UNL     1       4.755  -2.949   2.471  0.00  0.00    -0.462 OA
BRANCH  20  21
ATOM     21  C   UNL     1       5.990  -3.519   2.034  0.00  0.00    +0.229 C 
ATOM     22  C   UNL     1       6.555  -4.419   3.134  0.00  0.00    +0.048 C 
ENDBRANCH  20  21
ENDBRANCH  18  20
ENDBRANCH   3  18
BRANCH   2  23
ATOM     23  C   UNL     1       2.726  -0.573  -0.293  0.00  0.00    -0.026 C 
BRANCH  23  24
ATOM     24  N   UNL     1       2.430  -1.760  -1.108  0.00  0.00    +0.384 N 
ATOM     25  C   UNL     1       3.181  -1.660  -2.357  0.00  0.00    -0.077 C 
ATOM     26  C   UNL     1       3.496  -3.051  -2.862  0.00  0.00    +0.000 C 
ATOM     27  C   UNL     1       2.403  -3.498  -3.850  0.00  0.00    +0.106 C 
ATOM     28  N   UNL     1       1.065  -3.075  -3.388  0.00  0.00    -0.303 N 
ATOM     29  C   UNL     1       0.660  -3.163  -2.000  0.00  0.00    +0.089 C 
ATOM     30  C   UNL     1       1.029  -1.856  -1.262  0.00  0.00    -0.059 C 
ATOM     31  C   UNL     1       0.190  -2.589  -4.290  0.00  0.00    +0.219 C 
ATOM     32  O   UNL     1      -0.914  -2.236  -3.935  0.00  0.00    -0.275 OA
ATOM     33  H   UNL     1       2.752  -2.575  -0.609  0.00  0.00    -0.081 HD
BRANCH  31  34
ATOM     34  C   UNL     1       0.583  -2.485  -5.742  0.00  0.00    +0.075 C 
ATOM     35  C   UNL     1       1.395  -1.221  -6.071  0.00  0.00    +0.013 C 
ATOM     36  C   UNL     1       0.581  -1.132  -7.372  0.00  0.00    +0.001 C 
ATOM     37  C   UNL     1      -0.525  -1.912  -6.641  0.00  0.00    +0.013 C 
ENDBRANCH  31  34
ENDBRANCH  23  24
ENDBRANCH   2  23
TORSDOF 8
