REMARK  Name = ZINC02090188
REMARK  11 active torsions:
REMARK  status: ('A' for Active; 'I' for Inactive)
REMARK    1  A    between atoms: C_1  and  C_2
REMARK    2  A    between atoms: C_2  and  C_3
REMARK    3  A    between atoms: C_3  and  C_4
REMARK    4  A    between atoms: C_3  and  C_5
REMARK    5  A    between atoms: C_3  and  C_6
REMARK    6  A    between atoms: C_13  and  N_19
REMARK    7  A    between atoms: C_14  and  C_15
REMARK    8  A    between atoms: C_15  and  O_17
REMARK    9  A    between atoms: O_17  and  C_18
REMARK   10  A    between atoms: C_20  and  C_22
REMARK   11  A    between atoms: C_22  and  C_27
REMARK                            x       y       z     vdW  Elec       q    Type
REMARK                         _______ _______ _______ _____ _____    ______ ____
ROOT
ATOM      1  C   UNL     1       0.289  -2.802  -0.397  0.00  0.00    -0.000 C 
ATOM      2  C   UNL     1      -0.874  -2.282   0.455  0.00  0.00    +0.009 C 
ATOM      3  C   UNL     1      -1.253  -0.869   0.011  0.00  0.00    +0.037 C 
ATOM      4  C   UNL     1       0.002  -0.004   0.002  0.00  0.00    -0.021 A 
ATOM      5  C   UNL     1       1.232  -0.563  -0.013  0.00  0.00    -0.004 A 
ATOM      6  S   UNL     1       2.352   0.808  -0.016  0.00  0.00    -0.077 S 
ATOM      7  C   UNL     1       1.205   2.107   0.002  0.00  0.00    +0.086 A 
ATOM      8  C   UNL     1      -0.018   1.449   0.010  0.00  0.00    +0.091 A 
ATOM      9  C   UNL     1       1.560  -2.024  -0.025  0.00  0.00    +0.046 C 
ENDROOT
BRANCH   7  10
ATOM     10  N   UNL     1       1.450   3.471   0.006  0.00  0.00    -0.279 N 
ATOM     11  C   UNL     1       2.717   3.929  -0.003  0.00  0.00    +0.226 C 
ATOM     12  O   UNL     1       3.644   3.147  -0.016  0.00  0.00    -0.275 OA
ATOM     13  H   UNL     1       0.708   4.097   0.016  0.00  0.00    +0.155 HD
BRANCH  11  14
ATOM     14  C   UNL     1       2.983   5.413   0.002  0.00  0.00    +0.071 C 
ATOM     15  C   UNL     1       4.443   5.869  -0.010  0.00  0.00    +0.048 C 
ATOM     16  C   UNL     1       3.582   6.027  -1.265  0.00  0.00    +0.096 C 
ATOM     17 BR   UNL     1       3.947   4.821  -2.774  0.00  0.00    -0.071 Br
ATOM     18 BR   UNL     1       3.010   7.844  -1.750  0.00  0.00    -0.071 Br
ATOM     19  C   UNL     1       1.984   6.259   0.794  0.00  0.00    +0.023 C 
ENDBRANCH  11  14
ENDBRANCH   7  10
BRANCH   1  20
ATOM     20  C   UNL     1       0.500  -4.292  -0.121  0.00  0.00    -0.032 C 
ATOM     21  C   UNL     1       0.807  -4.497   1.364  0.00  0.00    +0.011 C 
ATOM     22  C   UNL     1      -0.767  -5.064  -0.491  0.00  0.00    +0.011 C 
BRANCH  20  24
ATOM     23  C   UNL     1       1.885  -6.294  -0.684  0.00  0.00    +0.004 C 
ATOM     24  C   UNL     1       1.673  -4.804  -0.959  0.00  0.00    +0.003 C 
ENDBRANCH  20  24
ENDBRANCH   1  20
BRANCH   8  25
ATOM     25  C   UNL     1      -1.280   2.192   0.020  0.00  0.00    +0.342 C 
ATOM     26  O   UNL     1      -1.799   2.495   1.078  0.00  0.00    -0.245 OA
BRANCH  25  27
ATOM     27  O   UNL     1      -1.867   2.540  -1.143  0.00  0.00    -0.464 OA
ATOM     28  C   UNL     1      -3.116   3.275  -1.057  0.00  0.00    +0.280 C 
ENDBRANCH  25  27
ENDBRANCH   8  25
TORSDOF 6
