REMARK  Name = ZINC38605644
REMARK  8 active torsions:
REMARK  status: ('A' for Active; 'I' for Inactive)
REMARK    1  A    between atoms: C_1  and  C_2
REMARK    2  A    between atoms: N_5  and  C_8
REMARK    3  A    between atoms: C_8  and  C_10
REMARK    4  A    between atoms: C_8  and  C_11
REMARK    5  A    between atoms: N_13  and  C_14
REMARK    6  A    between atoms: C_22  and  C_24
REMARK    7  A    between atoms: C_24  and  O_26
REMARK    8  A    between atoms: O_26  and  C_27
REMARK                            x       y       z     vdW  Elec       q    Type
REMARK                         _______ _______ _______ _____ _____    ______ ____
ROOT
ATOM      1  C   UNL     1       3.652  -6.427   2.841  0.00  0.00    +0.053 C 
ATOM      2  C   UNL     1       4.349  -7.456   3.450  0.00  0.00    +0.019 A 
ATOM      3  C   UNL     1       4.312  -8.862   3.286  0.00  0.00    +0.026 A 
ATOM      4  C   UNL     1       5.125  -9.647   4.036  0.00  0.00    +0.019 A 
ATOM      5  C   UNL     1       6.007  -9.103   4.976  0.00  0.00    +0.017 A 
ATOM      6  C   UNL     1       6.095  -7.768   5.186  0.00  0.00    +0.027 A 
ATOM      7  C   UNL     1       5.276  -6.880   4.439  0.00  0.00    +0.045 A 
ATOM      8  N   UNL     1       5.173  -5.567   4.456  0.00  0.00    -0.367 N 
ATOM      9  C   UNL     1       4.170  -5.152   3.471  0.00  0.00    +0.234 C 
ATOM     10 BR   UNL     1       5.065 -11.523   3.806  0.00  0.00    -0.050 Br
ATOM     11  H   UNL     1       5.683  -4.969   5.025  0.00  0.00    +0.161 HD
ENDROOT
BRANCH   1  14
ATOM     12  C   UNL     1       2.183  -5.430   1.305  0.00  0.00    +0.203 C 
ATOM     13  O   UNL     1       2.623  -4.338   1.596  0.00  0.00    -0.277 OA
ATOM     14  N   UNL     1       2.702  -6.538   1.871  0.00  0.00    -0.288 N 
ATOM     15  H   UNL     1       2.398  -7.415   1.589  0.00  0.00    +0.155 HD
BRANCH  12  16
ATOM     16  C   UNL     1       1.057  -5.548   0.311  0.00  0.00    +0.016 C 
ATOM     17  C   UNL     1       1.552  -6.288  -0.934  0.00  0.00    -0.004 C 
BRANCH  16  22
ATOM     18  C   UNL     1      -0.583  -0.727  -2.255  0.00  0.00    +0.007 C 
ATOM     19  C   UNL     1      -0.092  -2.151  -1.991  0.00  0.00    -0.018 C 
ATOM     20  C   UNL     1       1.201  -2.103  -1.172  0.00  0.00    -0.015 C 
ATOM     21  C   UNL     1       1.644  -3.531  -0.844  0.00  0.00    -0.078 C 
ATOM     22  N   UNL     1       0.596  -4.206  -0.068  0.00  0.00    +0.387 N 
ATOM     23  C   UNL     1      -0.625  -4.319  -0.874  0.00  0.00    -0.078 C 
ATOM     24  C   UNL     1      -1.155  -2.922  -1.204  0.00  0.00    -0.015 C 
ATOM     25  H   UNL     1       0.399  -3.672   0.765  0.00  0.00    -0.081 HD
ENDBRANCH  16  22
ENDBRANCH  12  16
ENDBRANCH   1  14
BRANCH   9  26
ATOM     26  C   UNL     1       3.046  -4.419   4.157  0.00  0.00    +0.335 C 
ATOM     27  O   UNL     1       2.675  -4.769   5.252  0.00  0.00    -0.248 OA
BRANCH  26  28
ATOM     28  O   UNL     1       2.457  -3.376   3.551  0.00  0.00    -0.466 OA
ATOM     29  C   UNL     1       1.398  -2.728   4.259  0.00  0.00    +0.280 C 
ENDBRANCH  26  28
ENDBRANCH   9  26
TORSDOF 5
