REMARK  Name = ZINC03366947
REMARK  6 active torsions:
REMARK  status: ('A' for Active; 'I' for Inactive)
REMARK    1  A    between atoms: C_1  and  C_2
REMARK    2  A    between atoms: N_11  and  C_15
REMARK    3  A    between atoms: C_15  and  C_16
REMARK    4  A    between atoms: C_16  and  O_18
REMARK    5  A    between atoms: O_18  and  C_19
REMARK    6  A    between atoms: C_19  and  C_20
REMARK                            x       y       z     vdW  Elec       q    Type
REMARK                         _______ _______ _______ _____ _____    ______ ____
ROOT
ATOM      1  O   UNL     1      -4.299  -2.725   2.605  0.00  0.00    -0.454 OA
ENDROOT
BRANCH   1   2
ATOM      2  C   UNL     1      -3.350  -1.837   2.270  0.00  0.00    +0.326 C 
ATOM      3  O   UNL     1      -2.423  -2.178   1.574  0.00  0.00    -0.249 OA
BRANCH   2   4
ATOM      4  C   UNL     1      -3.442  -0.415   2.761  0.00  0.00    +0.238 C 
BRANCH   4  14
ATOM      5  C   UNL     1      -1.797   3.662   2.169  0.00  0.00    +0.010 C 
ATOM      6  C   UNL     1      -1.021   3.166   0.948  0.00  0.00    +0.018 C 
ATOM      7  C   UNL     1      -1.757   3.582  -0.328  0.00  0.00    +0.006 C 
ATOM      8  C   UNL     1      -0.990   3.067  -1.548  0.00  0.00    +0.000 C 
ATOM      9  C   UNL     1      -0.906   1.540  -1.494  0.00  0.00    +0.003 C 
ATOM     10  C   UNL     1      -0.167   1.117  -0.222  0.00  0.00    +0.035 C 
ATOM     11  C   UNL     1      -0.910   1.646   1.000  0.00  0.00    +0.115 C 
ATOM     12  C   UNL     1      -2.283   1.020   1.092  0.00  0.00    +0.247 C 
ATOM     13  O   UNL     1      -3.184   1.105   0.285  0.00  0.00    -0.273 OA
ATOM     14  N   UNL     1      -2.295   0.348   2.261  0.00  0.00    -0.213 N 
ATOM     15  C   UNL     1      -1.129   0.465   2.909  0.00  0.00    +0.310 C 
ATOM     16  O   UNL     1      -0.899  -0.053   3.984  0.00  0.00    -0.252 OA
ATOM     17  N   UNL     1      -0.241   1.220   2.235  0.00  0.00    -0.285 N 
ATOM     18  H   UNL     1       0.663   1.439   2.511  0.00  0.00    +0.151 HD
ENDBRANCH   4  14
ENDBRANCH   2   4
ENDBRANCH   1   2
BRANCH   1  19
ATOM     19  C   UNL     1      -4.147  -4.077   2.096  0.00  0.00    +0.328 C 
BRANCH  19  20
ATOM     20  C   UNL     1      -5.298  -4.926   2.572  0.00  0.00    +0.262 C 
ATOM     21  O   UNL     1      -6.072  -4.489   3.398  0.00  0.00    -0.271 OA
ATOM     22  N   UNL     1      -5.466  -6.169   2.081  0.00  0.00    -0.235 N 
ATOM     23  C   UNL     1      -6.613  -6.891   2.434  0.00  0.00    +0.055 A 
ATOM     24  C   UNL     1      -7.141  -6.792   3.708  0.00  0.00    +0.025 A 
ATOM     25  C   UNL     1      -8.277  -7.506   4.046  0.00  0.00    +0.002 A 
ATOM     26  C   UNL     1      -8.894  -8.320   3.115  0.00  0.00    +0.001 A 
ATOM     27  C   UNL     1      -8.379  -8.424   1.834  0.00  0.00    +0.017 A 
ATOM     28  C   UNL     1      -7.245  -7.711   1.492  0.00  0.00    +0.035 A 
ATOM     29  S   UNL     1      -6.565  -7.823  -0.134  0.00  0.00    -0.086 S 
ATOM     30  C   UNL     1      -4.851  -7.506   0.151  0.00  0.00    +0.035 A 
ATOM     31  C   UNL     1      -4.486  -6.706   1.237  0.00  0.00    +0.055 A 
ATOM     32  C   UNL     1      -3.144  -6.451   1.471  0.00  0.00    +0.025 A 
ATOM     33  C   UNL     1      -2.182  -6.986   0.634  0.00  0.00    +0.002 A 
ATOM     34  C   UNL     1      -2.548  -7.777  -0.439  0.00  0.00    +0.001 A 
ATOM     35  C   UNL     1      -3.885  -8.038  -0.683  0.00  0.00    +0.017 A 
ENDBRANCH  19  20
ENDBRANCH   1  19
TORSDOF 5
