REMARK  Name = ZINC13389360
REMARK  5 active torsions:
REMARK  status: ('A' for Active; 'I' for Inactive)
REMARK    1  A    between atoms: C_1  and  C_2
REMARK    2  A    between atoms: C_5  and  O_27
REMARK    3  A    between atoms: C_15  and  C_18
REMARK    4  A    between atoms: C_21  and  N_24
REMARK    5  A    between atoms: O_27  and  C_28
REMARK                            x       y       z     vdW  Elec       q    Type
REMARK                         _______ _______ _______ _____ _____    ______ ____
ROOT
ATOM      1  C   UNL     1      -2.262   1.559  -0.071  0.00  0.00    +0.044 C 
ATOM      2  C   UNL     1      -0.822   1.123   0.018  0.00  0.00    -0.045 A 
ATOM      3  C   UNL     1       0.179   2.075   0.068  0.00  0.00    +0.007 A 
ATOM      4  C   UNL     1       1.500   1.674   0.144  0.00  0.00    +0.048 A 
ATOM      5  C   UNL     1       1.818   0.330   0.178  0.00  0.00    +0.141 A 
ATOM      6  C   UNL     1       0.813  -0.643   0.135  0.00  0.00    +0.074 A 
ATOM      7  C   UNL     1      -0.515  -0.222   0.044  0.00  0.00    -0.013 A 
ATOM      8  C   UNL     1      -1.564  -1.261  -0.045  0.00  0.00    +0.049 C 
ATOM      9  C   UNL     1      -2.944  -1.048   0.456  0.00  0.00    -0.023 C 
ATOM     10  C   UNL     1      -3.421  -2.211   0.886  0.00  0.00    -0.030 C 
ATOM     11  C   UNL     1      -2.356  -3.300   0.734  0.00  0.00    +0.033 C 
ATOM     12  C   UNL     1      -1.066  -2.475   0.798  0.00  0.00    +0.029 C 
ATOM     13  C   UNL     1       0.145  -2.990   0.049  0.00  0.00    +0.105 C 
ATOM     14  N   UNL     1       1.206  -1.982   0.196  0.00  0.00    -0.334 N 
ATOM     15  H   UNL     1       1.761  -2.158   1.020  0.00  0.00    +0.147 HD
ENDROOT
BRANCH  13  16
ATOM     16  C   UNL     1      -0.192  -3.172  -1.409  0.00  0.00    -0.027 A 
ATOM     17  C   UNL     1      -0.747  -4.361  -1.847  0.00  0.00    +0.008 A 
ATOM     18  C   UNL     1      -1.061  -4.526  -3.183  0.00  0.00    +0.033 A 
ATOM     19  C   UNL     1      -0.810  -3.506  -4.083  0.00  0.00    +0.126 A 
ATOM     20  C   UNL     1      -0.251  -2.321  -3.646  0.00  0.00    +0.033 A 
ATOM     21  C   UNL     1       0.058  -2.154  -2.309  0.00  0.00    +0.008 A 
BRANCH  19  22
ATOM     22  N   UNL     1      -1.141  -3.686  -5.514  0.00  0.00    +0.056 N 
ATOM     23  O   UNL     1      -0.920  -2.788  -6.307  0.00  0.00    -0.126 OA
ATOM     24  O   UNL     1      -1.634  -4.731  -5.899  0.00  0.00    -0.126 OA
ENDBRANCH  19  22
ENDBRANCH  13  16
BRANCH   5  25
ATOM     25  O   UNL     1       3.121  -0.051   0.254  0.00  0.00    -0.493 OA
ATOM     26  C   UNL     1       4.100   0.988   0.294  0.00  0.00    +0.277 C 
ENDBRANCH   5  25
TORSDOF 3
