REMARK  Name = ZINC59198257
REMARK  10 active torsions:
REMARK  status: ('A' for Active; 'I' for Inactive)
REMARK    1  A    between atoms: C_1  and  C_2
REMARK    2  A    between atoms: C_2  and  O_3
REMARK    3  A    between atoms: O_3  and  C_4
REMARK    4  A    between atoms: C_4  and  C_6
REMARK    5  A    between atoms: C_6  and  O_7
REMARK    6  A    between atoms: O_7  and  C_8
REMARK    7  A    between atoms: C_11  and  C_17
REMARK    8  A    between atoms: C_13  and  C_14
REMARK    9  A    between atoms: C_14  and  C_15
REMARK   10  A    between atoms: N_24  and  C_27
REMARK                            x       y       z     vdW  Elec       q    Type
REMARK                         _______ _______ _______ _____ _____    ______ ____
ROOT
ATOM      1  C   UNL     1      -7.511  -6.938  -0.693  0.00  0.00    +0.026 C 
ATOM      2  C   UNL     1      -8.702  -6.241  -0.821  0.00  0.00    +0.102 C 
ATOM      3  C   UNL     1      -8.722  -4.787  -1.045  0.00  0.00    +0.276 C 
ATOM      4  O   UNL     1      -7.572  -4.086  -1.133  0.00  0.00    -0.268 OA
ATOM      5  N   UNL     1      -9.892  -4.183  -1.159  0.00  0.00    -0.123 NA
ATOM      6  C   UNL     1     -11.042  -4.848  -1.078  0.00  0.00    +0.340 C 
ATOM      7  O   UNL     1     -12.080  -4.221  -1.193  0.00  0.00    -0.250 OA
ATOM      8  N   UNL     1     -11.121  -6.172  -0.876  0.00  0.00    -0.188 N 
ATOM      9  C   UNL     1     -10.008  -6.925  -0.745  0.00  0.00    +0.264 C 
ATOM     10  O   UNL     1     -10.080  -8.127  -0.567  0.00  0.00    -0.269 OA
ENDROOT
BRANCH   8  11
ATOM     11  C   UNL     1     -12.380  -6.784  -0.804  0.00  0.00    +0.046 A 
ATOM     12  C   UNL     1     -12.976  -7.006   0.431  0.00  0.00    +0.025 A 
ATOM     13  C   UNL     1     -14.216  -7.609   0.499  0.00  0.00    +0.017 A 
ATOM     14  C   UNL     1     -14.866  -7.992  -0.661  0.00  0.00    +0.018 A 
ATOM     15  C   UNL     1     -14.274  -7.772  -1.893  0.00  0.00    +0.017 A 
ATOM     16  C   UNL     1     -13.036  -7.163  -1.967  0.00  0.00    +0.025 A 
ATOM     17 BR   UNL     1     -16.564  -8.818  -0.564  0.00  0.00    -0.050 Br
ENDBRANCH   8  11
BRANCH   1  21
ATOM     18  C   UNL     1      -3.887  -4.842  -0.132  0.00  0.00    +0.125 A 
ATOM     19  C   UNL     1      -5.024  -4.460   0.573  0.00  0.00    +0.046 A 
ATOM     20  C   UNL     1      -6.199  -5.133   0.396  0.00  0.00    +0.011 A 
ATOM     21  C   UNL     1      -6.258  -6.213  -0.499  0.00  0.00    -0.024 A 
ATOM     22  C   UNL     1      -5.106  -6.593  -1.207  0.00  0.00    +0.015 A 
ATOM     23  C   UNL     1      -3.939  -5.909  -1.025  0.00  0.00    -0.001 A 
BRANCH  18  24
ATOM     24  O   UNL     1      -2.723  -4.169   0.048  0.00  0.00    -0.481 OA
BRANCH  24  25
ATOM     25  C   UNL     1      -2.738  -3.085   0.979  0.00  0.00    +0.349 C 
BRANCH  25  26
ATOM     26  C   UNL     1      -1.367  -2.462   1.046  0.00  0.00    +0.345 C 
ATOM     27  O   UNL     1      -0.470  -2.901   0.366  0.00  0.00    -0.247 OA
BRANCH  26  28
ATOM     28  O   UNL     1      -1.144  -1.419   1.860  0.00  0.00    -0.463 OA
BRANCH  28  30
ATOM     29  C   UNL     1       0.240   0.295   2.854  0.00  0.00    +0.048 C 
ATOM     30  C   UNL     1       0.179  -0.878   1.873  0.00  0.00    +0.229 C 
ENDBRANCH  28  30
ENDBRANCH  26  28
ENDBRANCH  25  26
ENDBRANCH  24  25
ENDBRANCH  18  24
BRANCH  23  31
ATOM     31  C   UNL     1      -2.704  -6.312  -1.788  0.00  0.00    +0.065 C 
BRANCH  31  32
ATOM     32  C   UNL     1      -1.875  -7.245  -0.945  0.00  0.00    -0.030 C 
ATOM     33  C   UNL     1      -1.532  -8.420  -1.413  0.00  0.00    +0.004 C 
ENDBRANCH  31  32
ENDBRANCH  23  31
ENDBRANCH   1  21
TORSDOF 9
