REMARK  Name = ZINC36342120
REMARK  14 active torsions:
REMARK  status: ('A' for Active; 'I' for Inactive)
REMARK    1  A    between atoms: C_1  and  C_2
REMARK    2  A    between atoms: C_3  and  C_21
REMARK    3  A    between atoms: C_4  and  O_13
REMARK    4  A    between atoms: N_5  and  C_7
REMARK    5  A    between atoms: O_13  and  C_14
REMARK    6  A    between atoms: C_21  and  N_22
REMARK    7  A    between atoms: N_22  and  C_23
REMARK    8  A    between atoms: N_22  and  C_27
REMARK    9  A    between atoms: C_23  and  C_24
REMARK   10  A    between atoms: C_27  and  C_28
REMARK   11  A    between atoms: C_28  and  C_30
REMARK   12  A    between atoms: C_28  and  O_34
REMARK   13  A    between atoms: C_30  and  C_31
REMARK   14  A    between atoms: C_31  and  C_32
REMARK                            x       y       z     vdW  Elec       q    Type
REMARK                         _______ _______ _______ _____ _____    ______ ____
ROOT
ATOM      1  C   UNL     1      -0.162   1.916   0.536  0.00  0.00    +0.068 C 
ATOM      2  C   UNL     1       0.173   0.448   0.484  0.00  0.00    +0.065 A 
ATOM      3  C   UNL     1       0.233  -0.337  -0.671  0.00  0.00    +0.021 A 
ATOM      4  C   UNL     1       0.566  -1.602  -0.300  0.00  0.00    +0.225 A 
ATOM      5  N   UNL     1       0.709  -1.607   1.052  0.00  0.00    -0.200 N 
ATOM      6  N   UNL     1       0.462  -0.307   1.513  0.00  0.00    -0.168 NA
ENDROOT
BRANCH   5   7
ATOM      7  C   UNL     1       1.048  -2.713   1.843  0.00  0.00    +0.069 A 
ATOM      8  C   UNL     1       0.445  -3.943   1.613  0.00  0.00    +0.028 A 
ATOM      9  C   UNL     1       0.781  -5.031   2.394  0.00  0.00    +0.002 A 
ATOM     10  C   UNL     1       1.717  -4.897   3.404  0.00  0.00    +0.000 A 
ATOM     11  C   UNL     1       2.319  -3.674   3.635  0.00  0.00    +0.002 A 
ATOM     12  C   UNL     1       1.992  -2.583   2.853  0.00  0.00    +0.028 A 
ENDBRANCH   5   7
BRANCH   4  13
ATOM     13  O   UNL     1       0.725  -2.666  -1.128  0.00  0.00    -0.438 OA
BRANCH  13  14
ATOM     14  C   UNL     1      -0.379  -3.386  -1.462  0.00  0.00    +0.131 A 
ATOM     15  C   UNL     1      -1.635  -2.960  -1.054  0.00  0.00    +0.049 A 
ATOM     16  C   UNL     1      -2.755  -3.693  -1.394  0.00  0.00    +0.042 A 
ATOM     17  C   UNL     1      -2.626  -4.851  -2.141  0.00  0.00    +0.124 A 
ATOM     18  C   UNL     1      -1.373  -5.277  -2.549  0.00  0.00    +0.042 A 
ATOM     19  C   UNL     1      -0.251  -4.543  -2.215  0.00  0.00    +0.049 A 
ATOM     20  F   UNL     1      -3.723  -5.567  -2.473  0.00  0.00    -0.205 F 
ENDBRANCH  13  14
ENDBRANCH   4  13
BRANCH   3  21
ATOM     21  C   UNL     1      -0.025   0.136  -2.079  0.00  0.00    -0.036 C 
BRANCH  21  22
ATOM     22  N   UNL     1       1.234   0.601  -2.678  0.00  0.00    +0.384 N 
ATOM     23  H   UNL     1       1.632   1.328  -2.102  0.00  0.00    -0.081 HD
BRANCH  22  24
ATOM     24  C   UNL     1       2.176  -0.522  -2.770  0.00  0.00    -0.075 C 
BRANCH  24  25
ATOM     25  C   UNL     1       3.514  -0.021  -3.317  0.00  0.00    -0.028 C 
ATOM     26  C   UNL     1       3.957  -0.542  -4.686  0.00  0.00    +0.002 C 
ATOM     27  C   UNL     1       4.659  -1.031  -3.417  0.00  0.00    +0.002 C 
ENDBRANCH  24  25
ENDBRANCH  22  24
BRANCH  22  28
ATOM     28  C   UNL     1       0.970   1.130  -4.022  0.00  0.00    -0.047 C 
BRANCH  28  29
ATOM     29  C   UNL     1       0.139   2.410  -3.913  0.00  0.00    +0.098 C 
BRANCH  29  30
ATOM     30  O   UNL     1      -1.177   2.086  -3.459  0.00  0.00    -0.394 OA
ATOM     31  H   UNL     1      -1.657   1.484  -4.044  0.00  0.00    +0.210 HD
ENDBRANCH  29  30
BRANCH  29  32
ATOM     32  C   UNL     1       0.054   3.083  -5.284  0.00  0.00    +0.033 C 
BRANCH  32  33
ATOM     33  C   UNL     1      -0.670   4.424  -5.151  0.00  0.00    +0.029 C 
BRANCH  33  34
ATOM     34  C   UNL     1      -0.752   5.087  -6.502  0.00  0.00    -0.034 C 
ATOM     35  C   UNL     1      -1.915   5.456  -6.980  0.00  0.00    +0.004 C 
ENDBRANCH  33  34
ENDBRANCH  32  33
ENDBRANCH  29  32
ENDBRANCH  28  29
ENDBRANCH  22  28
ENDBRANCH  21  22
ENDBRANCH   3  21
TORSDOF 13
