REMARK  Name = ZINC16613995
REMARK  9 active torsions:
REMARK  status: ('A' for Active; 'I' for Inactive)
REMARK    1  A    between atoms: C_1  and  C_2
REMARK    2  A    between atoms: C_2  and  C_3
REMARK    3  A    between atoms: C_4  and  C_31
REMARK    4  A    between atoms: C_5  and  C_14
REMARK    5  A    between atoms: C_17  and  N_20
REMARK    6  A    between atoms: N_23  and  C_24
REMARK    7  A    between atoms: C_29  and  C_30
REMARK    8  A    between atoms: C_31  and  O_33
REMARK    9  A    between atoms: O_33  and  C_34
REMARK                            x       y       z     vdW  Elec       q    Type
REMARK                         _______ _______ _______ _____ _____    ______ ____
ROOT
ATOM      1  C   UNL     1       0.688  -1.597  -2.500  0.00  0.00    -0.022 A 
ATOM      2  C   UNL     1       0.229  -0.308  -2.694  0.00  0.00    +0.007 A 
ATOM      3  C   UNL     1       0.293   0.269  -3.947  0.00  0.00    +0.024 A 
ATOM      4  C   UNL     1       0.810  -0.451  -5.016  0.00  0.00    +0.035 A 
ATOM      5  C   UNL     1       1.265  -1.748  -4.819  0.00  0.00    +0.024 A 
ATOM      6  C   UNL     1       1.203  -2.318  -3.562  0.00  0.00    +0.007 A 
ENDROOT
BRANCH   1   9
ATOM      7  C   UNL     1      -1.654  -1.912  -0.199  0.00  0.00    +0.056 C 
ATOM      8  C   UNL     1      -0.780  -2.716  -0.868  0.00  0.00    +0.082 C 
ATOM      9  C   UNL     1       0.621  -2.222  -1.131  0.00  0.00    +0.145 C 
ATOM     10  N   UNL     1       0.969  -1.218  -0.109  0.00  0.00    -0.298 N 
ATOM     11  C   UNL     1       2.337  -1.220   0.403  0.00  0.00    +0.109 C 
ATOM     12  C   UNL     1       2.868   0.185   0.645  0.00  0.00    +0.030 C 
ATOM     13  C   UNL     1       2.016   0.864   1.724  0.00  0.00    +0.079 C 
ATOM     14  S   UNL     1       0.385   1.211   1.018  0.00  0.00    -0.090 S 
ATOM     15  C   UNL     1       0.005  -0.367   0.333  0.00  0.00    +0.157 C 
ATOM     16  N   UNL     1      -1.273  -0.732   0.276  0.00  0.00    -0.230 NA
BRANCH   7  18
ATOM     17  C   UNL     1      -3.156  -3.231   1.268  0.00  0.00    +0.010 C 
ATOM     18  C   UNL     1      -3.075  -2.370   0.006  0.00  0.00    +0.053 C 
ENDBRANCH   7  18
BRANCH   8  19
ATOM     19  C   UNL     1      -1.180  -3.989  -1.309  0.00  0.00    +0.339 C 
ATOM     20  O   UNL     1      -2.273  -4.425  -0.998  0.00  0.00    -0.245 OA
BRANCH  19  21
ATOM     21  O   UNL     1      -0.351  -4.728  -2.078  0.00  0.00    -0.465 OA
ATOM     22  C   UNL     1      -0.822  -6.013  -2.490  0.00  0.00    +0.280 C 
ENDBRANCH  19  21
ENDBRANCH   8  19
ENDBRANCH   1   9
BRANCH   4  23
ATOM     23  N   UNL     1       0.871   0.128  -6.288  0.00  0.00    -0.269 N 
ATOM     24  C   UNL     1       1.932  -0.107  -7.085  0.00  0.00    +0.308 C 
ATOM     25  O   UNL     1       2.877  -0.746  -6.666  0.00  0.00    -0.252 OA
ATOM     26  N   UNL     1       1.944   0.367  -8.347  0.00  0.00    -0.269 N 
ATOM     27  H   UNL     1       0.149   0.699  -6.596  0.00  0.00    +0.156 HD
ATOM     28  H   UNL     1       1.220   0.930  -8.661  0.00  0.00    +0.156 HD
BRANCH  26  29
ATOM     29  C   UNL     1       3.003   0.046  -9.204  0.00  0.00    +0.038 A 
ATOM     30  C   UNL     1       4.272  -0.182  -8.688  0.00  0.00    +0.023 A 
ATOM     31  C   UNL     1       5.313  -0.504  -9.536  0.00  0.00    +0.002 A 
ATOM     32  C   UNL     1       5.096  -0.589 -10.899  0.00  0.00    +0.000 A 
ATOM     33  C   UNL     1       3.835  -0.357 -11.417  0.00  0.00    +0.005 A 
ATOM     34  C   UNL     1       2.788  -0.040 -10.573  0.00  0.00    -0.029 A 
ATOM     35  C   UNL     1       1.414   0.212 -11.138  0.00  0.00    +0.045 C 
ENDBRANCH  26  29
ENDBRANCH   4  23
TORSDOF 6
