REMARK  Name = ZINC06194610
REMARK  10 active torsions:
REMARK  status: ('A' for Active; 'I' for Inactive)
REMARK    1  A    between atoms: C_1  and  C_2
REMARK    2  A    between atoms: C_2  and  O_3
REMARK    3  A    between atoms: O_3  and  C_4
REMARK    4  A    between atoms: C_4  and  C_6
REMARK    5  A    between atoms: C_11  and  C_13
REMARK    6  A    between atoms: C_11  and  C_27
REMARK    7  A    between atoms: C_11  and  N_69
REMARK    8  A    between atoms: C_17  and  C_26
REMARK    9  A    between atoms: C_18  and  C_25
REMARK   10  A    between atoms: N_31  and  C_32
REMARK                            x       y       z     vdW  Elec       q    Type
REMARK                         _______ _______ _______ _____ _____    ______ ____
ROOT
ATOM      1  C   UNL     1      -4.986   3.843   0.044  0.00  0.00    +0.039 C 
ENDROOT
BRANCH   1   2
ATOM      2  C   UNL     1      -3.602   3.253   0.131  0.00  0.00    +0.011 A 
ATOM      3  C   UNL     1      -2.523   4.070   0.203  0.00  0.00    +0.017 A 
ATOM      4  C   UNL     1      -1.192   3.464   0.281  0.00  0.00    -0.001 A 
ATOM      5  C   UNL     1      -0.040   4.255   0.341  0.00  0.00    +0.013 A 
ATOM      6  C   UNL     1       1.188   3.660   0.413  0.00  0.00    -0.047 A 
ATOM      7  C   UNL     1       1.302   2.276   0.426  0.00  0.00    -0.046 A 
ATOM      8  C   UNL     1       0.181   1.477   0.367  0.00  0.00    +0.030 A 
ATOM      9  C   UNL     1      -1.080   2.061   0.289  0.00  0.00    +0.049 A 
ATOM     10  N   UNL     1      -2.218   1.286   0.224  0.00  0.00    -0.322 N 
ATOM     11  H   UNL     1      -2.137   0.290   0.233  0.00  0.00    +0.169 HD
ATOM     12  C   UNL     1      -3.436   1.851   0.147  0.00  0.00    +0.251 A 
ATOM     13  O   UNL     1      -4.420   1.135   0.090  0.00  0.00    -0.268 OA
ATOM     14  C   UNL     1       2.666   1.641   0.504  0.00  0.00    +0.044 C 
ATOM     15  C   UNL     1       2.429   4.512   0.478  0.00  0.00    +0.044 C 
ENDBRANCH   1   2
BRANCH   1  21
ATOM     16  C   UNL     1      -7.529   3.305   3.440  0.00  0.00    +0.094 C 
ATOM     17  C   UNL     1      -6.077   2.822   3.501  0.00  0.00    -0.004 C 
ATOM     18  C   UNL     1      -5.258   3.548   2.432  0.00  0.00    -0.077 C 
ATOM     19  C   UNL     1      -7.206   3.774   1.009  0.00  0.00    -0.077 C 
ATOM     20  C   UNL     1      -8.084   3.054   2.035  0.00  0.00    -0.004 C 
ATOM     21  N   UNL     1      -5.828   3.246   1.102  0.00  0.00    +0.389 N 
ATOM     22  H   UNL     1      -5.852   2.228   0.973  0.00  0.00    -0.080 HD
BRANCH  16  23
ATOM     23  C   UNL     1      -8.354   2.551   4.450  0.00  0.00    +0.310 C 
ATOM     24  O   UNL     1      -7.835   1.713   5.149  0.00  0.00    -0.251 OA
BRANCH  23  25
ATOM     25  O   UNL     1      -9.665   2.812   4.575  0.00  0.00    -0.465 OA
BRANCH  25  27
ATOM     26  C   UNL     1     -11.865   2.479   5.565  0.00  0.00    +0.048 C 
ATOM     27  C   UNL     1     -10.397   2.047   5.569  0.00  0.00    +0.229 C 
ENDBRANCH  25  27
ENDBRANCH  23  25
ENDBRANCH  16  23
ENDBRANCH   1  21
BRANCH   1  28
ATOM     28  C   UNL     1      -5.587   3.521  -1.299  0.00  0.00    +0.143 A 
ATOM     29  N   UNL     1      -6.057   2.360  -1.688  0.00  0.00    -0.115 NA
ATOM     30  N   UNL     1      -6.484   2.489  -2.897  0.00  0.00    -0.023 NA
ATOM     31  N   UNL     1      -6.292   3.699  -3.292  0.00  0.00    -0.044 NA
ATOM     32  N   UNL     1      -5.740   4.366  -2.335  0.00  0.00    -0.227 N 
BRANCH  32  33
ATOM     33  C   UNL     1      -5.354   5.779  -2.370  0.00  0.00    +0.111 C 
ATOM     34  C   UNL     1      -6.583   6.656  -2.685  0.00  0.00    +0.027 C 
ATOM     35  C   UNL     1      -6.023   7.782  -3.590  0.00  0.00    +0.002 C 
ATOM     36  C   UNL     1      -4.987   7.035  -4.465  0.00  0.00    +0.002 C 
ATOM     37  C   UNL     1      -4.339   6.020  -3.501  0.00  0.00    +0.027 C 
ENDBRANCH  32  33
ENDBRANCH   1  28
TORSDOF 7
