REMARK  Name = ZINC65259982
REMARK  3 active torsions:
REMARK  status: ('A' for Active; 'I' for Inactive)
REMARK    1  A    between atoms: C_14  and  C_16
REMARK    2  A    between atoms: C_16  and  C_17
REMARK    3  A    between atoms: N_25  and  C_26
REMARK                            x       y       z     vdW  Elec       q    Type
REMARK                         _______ _______ _______ _____ _____    ______ ____
ROOT
ATOM      1  C   UNL     1      -0.017   1.378   0.010  0.00  0.00    +0.002 A 
ATOM      2  C   UNL     1       1.169   2.091   0.002  0.00  0.00    +0.002 A 
ATOM      3  C   UNL     1       2.380   1.425  -0.016  0.00  0.00    +0.025 A 
ATOM      4  C   UNL     1       2.408   0.038  -0.025  0.00  0.00    +0.053 A 
ATOM      5  C   UNL     1       1.213  -0.680  -0.013  0.00  0.00    +0.049 A 
ATOM      6  C   UNL     1       0.002  -0.004   0.002  0.00  0.00    +0.025 A 
ATOM      7  N   UNL     1       1.229  -2.083  -0.007  0.00  0.00    -0.329 N 
ATOM      8  C   UNL     1       2.464  -2.775  -0.398  0.00  0.00    +0.102 C 
ATOM      9  C   UNL     1       2.580  -2.811  -1.920  0.00  0.00    +0.036 C 
ATOM     10  C   UNL     1       1.386  -3.567  -2.508  0.00  0.00    +0.021 C 
ATOM     11  C   UNL     1       1.388  -5.005  -1.980  0.00  0.00    +0.108 C 
ATOM     12  N   UNL     1       1.409  -4.970  -0.511  0.00  0.00    -0.299 N 
ATOM     13  C   UNL     1       2.463  -4.197   0.161  0.00  0.00    +0.141 C 
ATOM     14  C   UNL     1       0.481  -5.634   0.205  0.00  0.00    +0.220 C 
ATOM     15  O   UNL     1       0.510  -5.597   1.417  0.00  0.00    -0.275 OA
ATOM     16  C   UNL     1       3.629  -2.000   0.183  0.00  0.00    +0.098 C 
ATOM     17  N   UNL     1       3.639  -0.637  -0.052  0.00  0.00    -0.301 N 
ATOM     18  N   UNL     1       4.564  -2.582   0.861  0.00  0.00    -0.372 N 
ATOM     19  H   UNL     1       0.441  -2.586   0.251  0.00  0.00    +0.147 HD
ATOM     20  H   UNL     1       4.531  -3.540   1.010  0.00  0.00    +0.161 HD
ATOM     21  H   UNL     1       4.468  -0.164  -0.230  0.00  0.00    +0.153 HD
ENDROOT
BRANCH  18  22
ATOM     22  C   UNL     1       5.674  -1.794   1.405  0.00  0.00    +0.080 C 
ATOM     23  C   UNL     1       6.803  -1.680   0.360  0.00  0.00    +0.024 C 
ATOM     24  C   UNL     1       8.104  -1.756   1.197  0.00  0.00    +0.002 C 
ATOM     25  C   UNL     1       7.752  -2.802   2.283  0.00  0.00    +0.002 C 
ATOM     26  C   UNL     1       6.277  -2.507   2.628  0.00  0.00    +0.024 C 
ENDBRANCH  18  22
BRANCH  14  27
ATOM     27  C   UNL     1      -0.593  -6.422  -0.499  0.00  0.00    +0.132 C 
BRANCH  27  28
ATOM     28  C   UNL     1      -1.497  -7.064   0.522  0.00  0.00    -0.021 A 
ATOM     29  C   UNL     1      -1.213  -8.329   1.015  0.00  0.00    +0.007 A 
ATOM     30  C   UNL     1      -2.072  -8.880   1.953  0.00  0.00    +0.020 A 
ATOM     31  C   UNL     1      -3.175  -8.155   2.363  0.00  0.00    +0.111 A 
ATOM     32  N   UNL     1      -3.414  -6.955   1.873  0.00  0.00    -0.263 NA
ATOM     33  C   UNL     1      -2.616  -6.397   0.984  0.00  0.00    +0.114 A 
ENDBRANCH  27  28
ENDBRANCH  14  27
TORSDOF 3
