REMARK  Name = ZINC38671552
REMARK  9 active torsions:
REMARK  status: ('A' for Active; 'I' for Inactive)
REMARK    1  A    between atoms: C_1  and  C_2
REMARK    2  A    between atoms: C_5  and  N_9
REMARK    3  A    between atoms: C_7  and  C_8
REMARK    4  A    between atoms: C_11  and  C_16
REMARK    5  A    between atoms: N_18  and  C_19
REMARK    6  A    between atoms: C_19  and  C_20
REMARK    7  A    between atoms: C_20  and  C_22
REMARK    8  A    between atoms: C_20  and  N_32
REMARK    9  A    between atoms: N_30  and  C_31
REMARK                            x       y       z     vdW  Elec       q    Type
REMARK                         _______ _______ _______ _____ _____    ______ ____
ROOT
ATOM      1  C   UNL     1       3.751  -7.748  -0.506  0.00  0.00    +0.093 C 
ENDROOT
BRANCH   1   4
ATOM      2  C   UNL     1       4.274  -5.453   0.122  0.00  0.00    +0.218 C 
ATOM      3  O   UNL     1       3.516  -5.074  -0.745  0.00  0.00    -0.275 OA
ATOM      4  N   UNL     1       4.462  -6.773   0.323  0.00  0.00    -0.316 N 
ATOM      5  H   UNL     1       5.069  -7.076   1.016  0.00  0.00    +0.149 HD
BRANCH   2   8
ATOM      6  N   UNL     1       5.652  -2.605  -0.414  0.00  0.00    -0.271 N 
ATOM      7  C   UNL     1       4.638  -3.005   0.569  0.00  0.00    +0.127 C 
ATOM      8  C   UNL     1       5.007  -4.449   0.975  0.00  0.00    +0.101 C 
ATOM      9  C   UNL     1       6.526  -4.481   0.687  0.00  0.00    +0.110 C 
ATOM     10  C   UNL     1       6.723  -3.416  -0.370  0.00  0.00    +0.221 C 
ATOM     11  O   UNL     1       7.705  -3.309  -1.073  0.00  0.00    -0.275 OA
BRANCH   6  16
ATOM     12  C   UNL     1       5.110   1.789  -3.962  0.00  0.00    +0.044 C 
ATOM     13  C   UNL     1       5.254   0.622  -3.020  0.00  0.00    -0.047 A 
ATOM     14  C   UNL     1       6.443  -0.083  -2.970  0.00  0.00    +0.005 A 
ATOM     15  C   UNL     1       6.578  -1.153  -2.108  0.00  0.00    +0.024 A 
ATOM     16  C   UNL     1       5.519  -1.521  -1.289  0.00  0.00    +0.037 A 
ATOM     17  C   UNL     1       4.326  -0.811  -1.340  0.00  0.00    +0.027 A 
ATOM     18  C   UNL     1       4.199   0.261  -2.202  0.00  0.00    -0.046 A 
ATOM     19  C   UNL     1       2.907   1.036  -2.254  0.00  0.00    +0.044 C 
ENDBRANCH   6  16
ENDBRANCH   2   8
ENDBRANCH   1   4
BRANCH   1  20
ATOM     20  C   UNL     1       4.046  -9.161   0.001  0.00  0.00    -0.020 C 
BRANCH  20  21
ATOM     21  C   UNL     1       5.515  -9.456  -0.160  0.00  0.00    -0.059 A 
ATOM     22  C   UNL     1       6.017  -9.826  -1.394  0.00  0.00    +0.004 A 
ATOM     23  C   UNL     1       7.360 -10.097  -1.545  0.00  0.00    +0.023 A 
ATOM     24  C   UNL     1       8.225  -9.998  -0.452  0.00  0.00    +0.033 A 
ATOM     25  C   UNL     1       7.712  -9.625   0.780  0.00  0.00    -0.025 A 
ATOM     26  C   UNL     1       6.366  -9.350   0.925  0.00  0.00    +0.007 A 
ATOM     27  C   UNL     1       8.845  -9.593   1.782  0.00  0.00    +0.056 C 
ATOM     28  C   UNL     1      10.088  -9.997   0.973  0.00  0.00    +0.109 C 
ATOM     29  N   UNL     1       9.601 -10.225  -0.391  0.00  0.00    -0.332 N 
ATOM     30  C   UNL     1      10.436 -10.632  -1.523  0.00  0.00    +0.129 C 
ENDBRANCH  20  21
BRANCH  20  31
ATOM     31  N   UNL     1       3.264 -10.134  -0.774  0.00  0.00    +0.385 N 
ATOM     32  C   UNL     1       1.833  -9.895  -0.553  0.00  0.00    -0.078 C 
ATOM     33  C   UNL     1       1.013 -10.852  -1.421  0.00  0.00    -0.019 C 
ATOM     34  C   UNL     1       1.355 -12.296  -1.042  0.00  0.00    -0.004 C 
ATOM     35  C   UNL     1       2.863 -12.512  -1.205  0.00  0.00    -0.019 C 
ATOM     36  C   UNL     1       3.614 -11.493  -0.346  0.00  0.00    -0.078 C 
ATOM     37  H   UNL     1       3.474 -10.027  -1.755  0.00  0.00    -0.081 HD
ENDBRANCH  20  31
ENDBRANCH   1  20
TORSDOF 6
