REMARK  Name = ZINC14925522
REMARK  7 active torsions:
REMARK  status: ('A' for Active; 'I' for Inactive)
REMARK    1  A    between atoms: C_1  and  C_2
REMARK    2  A    between atoms: C_5  and  N_9
REMARK    3  A    between atoms: C_10  and  C_12
REMARK    4  A    between atoms: C_12  and  C_14
REMARK    5  A    between atoms: C_12  and  N_51
REMARK    6  A    between atoms: N_17  and  C_20
REMARK    7  A    between atoms: C_25  and  N_26
REMARK                            x       y       z     vdW  Elec       q    Type
REMARK                         _______ _______ _______ _____ _____    ______ ____
ROOT
ATOM      1  C   UNL     1       1.341   3.510   0.081  0.00  0.00    -0.059 C 
ATOM      2  C   UNL     1       1.448   1.984   0.021  0.00  0.00    +0.086 C 
ATOM      3  N   UNL     1       0.103   1.398   0.089  0.00  0.00    -0.332 N 
ATOM      4  C   UNL     1      -0.732   1.871  -1.025  0.00  0.00    +0.086 C 
ATOM      5  C   UNL     1      -0.839   3.397  -0.965  0.00  0.00    -0.059 C 
ATOM      6  N   UNL     1       0.518   3.974  -1.056  0.00  0.00    +0.389 N 
ATOM      7  H   UNL     1       0.955   3.664  -1.933  0.00  0.00    -0.081 HD
ENDROOT
BRANCH   3   8
ATOM      8  C   UNL     1       0.165   0.002   0.109  0.00  0.00    +0.060 A 
ATOM      9  C   UNL     1       0.751  -0.684  -0.947  0.00  0.00    +0.027 A 
ATOM     10  C   UNL     1       0.812  -2.063  -0.923  0.00  0.00    +0.022 A 
ATOM     11  C   UNL     1       0.290  -2.763   0.151  0.00  0.00    +0.043 A 
ATOM     12  C   UNL     1      -0.295  -2.082   1.204  0.00  0.00    +0.054 A 
ATOM     13  C   UNL     1      -0.354  -0.702   1.188  0.00  0.00    +0.148 A 
ATOM     14 CL   UNL     1       0.368  -4.497   0.177  0.00  0.00    -0.083 Cl
BRANCH  13  15
ATOM     15  N   UNL     1      -0.974   0.026   2.318  0.00  0.00    +0.058 N 
ATOM     16  O   UNL     1      -1.429  -0.592   3.264  0.00  0.00    -0.126 OA
ATOM     17  O   UNL     1      -1.030   1.243   2.302  0.00  0.00    -0.126 OA
ENDBRANCH  13  15
ENDBRANCH   3   8
BRANCH   6  18
ATOM     18  C   UNL     1       0.441   5.450  -1.055  0.00  0.00    +0.017 C 
ATOM     19  C   UNL     1      -0.332   5.908  -2.293  0.00  0.00    -0.004 C 
BRANCH  18  21
ATOM     20  N   UNL     1      -0.479   7.259   0.360  0.00  0.00    -0.286 N 
ATOM     21  C   UNL     1      -0.262   5.940   0.185  0.00  0.00    +0.203 C 
ATOM     22  O   UNL     1      -0.632   5.148   1.026  0.00  0.00    -0.277 OA
ATOM     23  H   UNL     1      -0.230   7.888  -0.335  0.00  0.00    +0.155 HD
BRANCH  20  28
ATOM     24  C   UNL     1      -2.850   9.129   5.164  0.00  0.00    +0.044 C 
ATOM     25  C   UNL     1      -2.220   8.633   3.888  0.00  0.00    -0.049 A 
ATOM     26  C   UNL     1      -2.598   7.411   3.362  0.00  0.00    +0.005 A 
ATOM     27  C   UNL     1      -2.022   6.953   2.193  0.00  0.00    +0.024 A 
ATOM     28  C   UNL     1      -1.064   7.721   1.545  0.00  0.00    +0.047 A 
ATOM     29  C   UNL     1      -0.683   8.946   2.078  0.00  0.00    +0.039 A 
ATOM     30  C   UNL     1      -1.266   9.400   3.246  0.00  0.00    +0.020 A 
ATOM     31 BR   UNL     1       0.627   9.992   1.204  0.00  0.00    -0.048 Br
ENDBRANCH  20  28
ENDBRANCH  18  21
ENDBRANCH   6  18
TORSDOF 5
