REMARK  Name = ZINC09523662
REMARK  6 active torsions:
REMARK  status: ('A' for Active; 'I' for Inactive)
REMARK    1  A    between atoms: C_7  and  C_18
REMARK    2  A    between atoms: N_9  and  C_10
REMARK    3  A    between atoms: C_10  and  C_11
REMARK    4  A    between atoms: C_18  and  C_19
REMARK    5  A    between atoms: C_26  and  C_27
REMARK    6  A    between atoms: C_26  and  N_64
REMARK                            x       y       z     vdW  Elec       q    Type
REMARK                         _______ _______ _______ _____ _____    ______ ____
ROOT
ATOM      1  C   UNL     1       8.988  -3.471  -0.274  0.00  0.00    +0.220 C 
ATOM      2  O   UNL     1      10.140  -3.258   0.040  0.00  0.00    -0.275 OA
ATOM      3  N   UNL     1       8.048  -2.527  -0.071  0.00  0.00    -0.305 N 
ATOM      4  C   UNL     1       8.397  -1.231   0.530  0.00  0.00    +0.089 C 
ATOM      5  C   UNL     1       7.440  -0.962   1.696  0.00  0.00    -0.059 C 
ATOM      6  C   UNL     1       5.757  -2.435   0.758  0.00  0.00    -0.059 C 
ATOM      7  C   UNL     1       6.646  -2.765  -0.446  0.00  0.00    +0.089 C 
ATOM      8  N   UNL     1       6.050  -1.054   1.200  0.00  0.00    +0.384 N 
ATOM      9  H   UNL     1       5.938  -0.419   0.401  0.00  0.00    -0.081 HD
ENDROOT
BRANCH   1  10
ATOM     10  C   UNL     1       8.608  -4.792  -0.892  0.00  0.00    +0.133 C 
BRANCH  10  17
ATOM     11  C   UNL     1      10.768  -7.703   2.080  0.00  0.00    +0.001 A 
ATOM     12  C   UNL     1      11.889  -8.307   1.526  0.00  0.00    +0.002 A 
ATOM     13  C   UNL     1      12.268  -8.032   0.231  0.00  0.00    +0.026 A 
ATOM     14  C   UNL     1      11.522  -7.140  -0.533  0.00  0.00    +0.050 A 
ATOM     15  C   UNL     1      10.387  -6.531   0.033  0.00  0.00    +0.003 A 
ATOM     16  C   UNL     1      10.021  -6.824   1.348  0.00  0.00    +0.010 A 
ATOM     17  C   UNL     1       9.832  -5.663  -1.009  0.00  0.00    -0.013 A 
ATOM     18  C   UNL     1      10.618  -5.795  -2.089  0.00  0.00    +0.091 A 
ATOM     19  N   UNL     1      11.636  -6.670  -1.821  0.00  0.00    -0.342 N 
BRANCH  19  20
ATOM     20  C   UNL     1      12.687  -7.053  -2.767  0.00  0.00    +0.157 C 
BRANCH  20  21
ATOM     21  C   UNL     1      12.292  -8.327  -3.468  0.00  0.00    -0.028 A 
ATOM     22  C   UNL     1      12.655  -9.550  -2.935  0.00  0.00    +0.007 A 
ATOM     23  C   UNL     1      12.288 -10.719  -3.574  0.00  0.00    +0.020 A 
ATOM     24  C   UNL     1      11.568 -10.665  -4.754  0.00  0.00    +0.041 A 
ATOM     25  C   UNL     1      11.210  -9.441  -5.290  0.00  0.00    +0.020 A 
ATOM     26  C   UNL     1      11.572  -8.273  -4.647  0.00  0.00    +0.007 A 
ATOM     27 CL   UNL     1      11.112 -12.133  -5.561  0.00  0.00    -0.084 Cl
ENDBRANCH  20  21
ENDBRANCH  19  20
ENDBRANCH  10  17
ENDBRANCH   1  10
BRANCH   8  28
ATOM     28  C   UNL     1       5.107  -0.655   2.265  0.00  0.00    -0.043 C 
BRANCH  28  29
ATOM     29  C   UNL     1       3.725  -0.548   1.674  0.00  0.00    -0.060 A 
ATOM     30  C   UNL     1       2.885  -1.646   1.677  0.00  0.00    +0.005 A 
ATOM     31  C   UNL     1       1.617  -1.553   1.135  0.00  0.00    +0.050 A 
ATOM     32  C   UNL     1       1.183  -0.356   0.589  0.00  0.00    +0.166 A 
ATOM     33  C   UNL     1       2.028   0.751   0.586  0.00  0.00    +0.166 A 
ATOM     34  C   UNL     1       3.298   0.650   1.131  0.00  0.00    +0.051 A 
ATOM     35  O   UNL     1       1.376   1.797  -0.001  0.00  0.00    -0.453 OA
ATOM     36  C   UNL     1      -0.018   1.436   0.010  0.00  0.00    +0.466 C 
ATOM     37  O   UNL     1       0.002  -0.004   0.002  0.00  0.00    -0.453 OA
ENDBRANCH  28  29
ENDBRANCH   8  28
TORSDOF 6
