REMARK  Name = ZINC47139156
REMARK  7 active torsions:
REMARK  status: ('A' for Active; 'I' for Inactive)
REMARK    1  A    between atoms: C_3  and  C_6
REMARK    2  A    between atoms: C_6  and  N_7
REMARK    3  A    between atoms: C_11  and  C_12
REMARK    4  A    between atoms: C_17  and  O_18
REMARK    5  A    between atoms: N_22  and  N_23
REMARK    6  A    between atoms: C_24  and  C_25
REMARK    7  A    between atoms: C_30  and  O_31
REMARK                            x       y       z     vdW  Elec       q    Type
REMARK                         _______ _______ _______ _____ _____    ______ ____
ROOT
ATOM      1  N   UNL     1       3.028   0.649   2.439  0.00  0.00    -0.237 N 
ATOM      2  C   UNL     1       3.300   1.663   3.243  0.00  0.00    +0.259 C 
ATOM      3  O   UNL     1       2.839   2.772   3.047  0.00  0.00    -0.269 OA
ATOM      4  C   UNL     1       4.188   1.388   4.389  0.00  0.00    +0.078 C 
ATOM      5  C   UNL     1       4.627   2.230   5.360  0.00  0.00    +0.032 C 
ATOM      6  S   UNL     1       4.529  -0.351   4.157  0.00  0.00    -0.047 S 
ATOM      7  C   UNL     1       3.554  -0.601   2.682  0.00  0.00    +0.190 C 
ATOM      8  N   UNL     1       3.383  -1.711   1.991  0.00  0.00    -0.126 NA
ENDROOT
BRANCH   5   9
ATOM      9  C   UNL     1       5.336   1.696   6.529  0.00  0.00    +0.019 A 
ATOM     10  C   UNL     1       5.234   0.339   6.855  0.00  0.00    +0.031 A 
ATOM     11  C   UNL     1       5.903  -0.155   7.955  0.00  0.00    +0.042 A 
ATOM     12  C   UNL     1       6.676   0.687   8.740  0.00  0.00    +0.023 A 
ATOM     13  C   UNL     1       6.784   2.029   8.429  0.00  0.00    +0.047 A 
ATOM     14  C   UNL     1       6.125   2.543   7.325  0.00  0.00    +0.124 A 
ATOM     15 CL   UNL     1       5.776  -1.839   8.359  0.00  0.00    -0.084 Cl
BRANCH  14  16
ATOM     16  O   UNL     1       6.237   3.860   7.016  0.00  0.00    -0.506 OA
ATOM     17  H   UNL     1       5.567   4.420   7.433  0.00  0.00    +0.292 HD
ENDBRANCH  14  16
ENDBRANCH   5   9
BRANCH   8  18
ATOM     18  N   UNL     1       3.994  -2.791   2.344  0.00  0.00    -0.155 NA
ATOM     19  C   UNL     1       3.869  -3.876   1.627  0.00  0.00    +0.146 C 
BRANCH  19  20
ATOM     20  C   UNL     1       3.118  -3.840   0.363  0.00  0.00    +0.038 A 
ATOM     21  C   UNL     1       2.857  -2.618  -0.265  0.00  0.00    +0.033 A 
ATOM     22  C   UNL     1       2.151  -2.592  -1.450  0.00  0.00    +0.042 A 
ATOM     23  C   UNL     1       1.701  -3.772  -2.021  0.00  0.00    +0.023 A 
ATOM     24  C   UNL     1       1.952  -4.986  -1.409  0.00  0.00    +0.047 A 
ATOM     25  C   UNL     1       2.664  -5.031  -0.222  0.00  0.00    +0.126 A 
ATOM     26 CL   UNL     1       1.827  -1.075  -2.230  0.00  0.00    -0.084 Cl
BRANCH  25  27
ATOM     27  O   UNL     1       2.916  -6.224   0.376  0.00  0.00    -0.506 OA
ATOM     28  H   UNL     1       2.199  -6.540   0.942  0.00  0.00    +0.292 HD
ENDBRANCH  25  27
ENDBRANCH  19  20
ENDBRANCH   8  18
BRANCH   1  29
ATOM     29  C   UNL     1       2.152   0.855   1.283  0.00  0.00    +0.190 C 
BRANCH  29  32
ATOM     30  C   UNL     1      -1.361   0.563   2.356  0.00  0.00    +0.041 A 
ATOM     31  C   UNL     1      -0.183   1.321   2.165  0.00  0.00    +0.046 A 
ATOM     32  C   UNL     1       0.738   0.487   1.651  0.00  0.00    +0.123 A 
ATOM     33  O   UNL     1       0.184  -0.729   1.522  0.00  0.00    -0.466 OA
ATOM     34  C   UNL     1      -1.089  -0.689   1.948  0.00  0.00    +0.195 A 
ENDBRANCH  29  32
ENDBRANCH   1  29
TORSDOF 7
