REMARK  Name = ZINC17878888
REMARK  4 active torsions:
REMARK  status: ('A' for Active; 'I' for Inactive)
REMARK    1  A    between atoms: C_7  and  C_18
REMARK    2  A    between atoms: C_7  and  O_26
REMARK    3  A    between atoms: N_10  and  C_11
REMARK    4  A    between atoms: C_11  and  N_48
REMARK                            x       y       z     vdW  Elec       q    Type
REMARK                         _______ _______ _______ _____ _____    ______ ____
ROOT
ATOM      1  C   UNL     1       1.165   3.163   0.007  0.00  0.00    +0.000 A 
ATOM      2  C   UNL     1       1.173   1.780   0.000  0.00  0.00    +0.002 A 
ATOM      3  C   UNL     1      -0.013   1.076   0.008  0.00  0.00    +0.024 A 
ATOM      4  C   UNL     1      -1.230   1.755   0.017  0.00  0.00    +0.041 A 
ATOM      5  C   UNL     1      -1.224   3.144   0.030  0.00  0.00    +0.016 A 
ATOM      6  C   UNL     1      -0.039   3.845   0.022  0.00  0.00    +0.009 A 
ATOM      7  C   UNL     1      -2.673   3.574   0.046  0.00  0.00    +0.189 C 
ATOM      8  C   UNL     1      -3.444   2.271   0.047  0.00  0.00    +0.256 C 
ATOM      9  O   UNL     1      -4.651   2.148   0.058  0.00  0.00    -0.272 OA
ATOM     10  N   UNL     1      -2.541   1.277   0.034  0.00  0.00    -0.285 N 
ENDROOT
BRANCH   7  11
ATOM     11  C   UNL     1      -3.003   4.391  -1.205  0.00  0.00    +0.187 C 
ATOM     12  C   UNL     1      -4.392   5.012  -1.114  0.00  0.00    +0.255 C 
ATOM     13  O   UNL     1      -5.409   4.350  -1.037  0.00  0.00    -0.272 OA
ATOM     14  N   UNL     1      -4.394   6.319  -1.126  0.00  0.00    -0.159 NA
ATOM     15  C   UNL     1      -3.303   7.064  -1.209  0.00  0.00    +0.145 C 
ATOM     16  S   UNL     1      -1.995   5.925  -1.290  0.00  0.00    -0.077 S 
ATOM     17  N   UNL     1      -3.224   8.425  -1.228  0.00  0.00    -0.340 N 
ATOM     18  H   UNL     1      -2.359   8.860  -1.293  0.00  0.00    +0.144 HD
ATOM     19  H   UNL     1      -4.032   8.959  -1.177  0.00  0.00    +0.144 HD
ENDBRANCH   7  11
BRANCH   7  20
ATOM     20  O   UNL     1      -2.958   4.329   1.225  0.00  0.00    -0.373 OA
ATOM     21  H   UNL     1      -2.795   3.849   2.048  0.00  0.00    +0.211 HD
ENDBRANCH   7  20
BRANCH  10  22
ATOM     22  C   UNL     1      -2.891  -0.145   0.030  0.00  0.00    +0.038 C 
BRANCH  22  29
ATOM     23  C   UNL     1      -4.300  -0.161  -1.950  0.00  0.00    -0.077 C 
ATOM     24  C   UNL     1      -4.605  -0.835  -3.260  0.00  0.00    -0.019 C 
ATOM     25  C   UNL     1      -5.492  -2.067  -2.983  0.00  0.00    -0.002 C 
ATOM     26  C   UNL     1      -4.720  -3.201  -2.488  0.00  0.00    -0.002 C 
ATOM     27  C   UNL     1      -4.012  -2.886  -1.154  0.00  0.00    -0.019 C 
ATOM     28  C   UNL     1      -2.782  -2.071  -1.448  0.00  0.00    -0.077 C 
ATOM     29  N   UNL     1      -2.979  -0.584  -1.372  0.00  0.00    +0.390 N 
ATOM     30  H   UNL     1      -2.231  -0.130  -1.909  0.00  0.00    -0.080 HD
ENDBRANCH  22  29
ENDBRANCH  10  22
TORSDOF 4
