REMARK  Name = ZINC54643208
REMARK  6 active torsions:
REMARK  status: ('A' for Active; 'I' for Inactive)
REMARK    1  A    between atoms: C_1  and  C_2
REMARK    2  A    between atoms: C_2  and  C_36
REMARK    3  A    between atoms: C_6  and  C_23
REMARK    4  A    between atoms: C_11  and  S_13
REMARK    5  A    between atoms: S_13  and  C_14
REMARK    6  A    between atoms: C_14  and  C_15
REMARK                            x       y       z     vdW  Elec       q    Type
REMARK                         _______ _______ _______ _____ _____    ______ ____
ROOT
ATOM      1  C   UNL     1      -0.019   1.526   0.010  0.00  0.00    +0.011 C 
ATOM      2  C   UNL     1       0.002  -0.004   0.002  0.00  0.00    -0.023 C 
ATOM      3  C   UNL     1      -1.431  -0.539   0.041  0.00  0.00    +0.058 C 
ATOM      4  C   UNL     1      -1.409  -2.049   0.077  0.00  0.00    +0.020 C 
ATOM      5  C   UNL     1      -0.393  -2.714   0.667  0.00  0.00    +0.041 C 
ATOM      6  C   UNL     1      -0.342  -4.225   0.717  0.00  0.00    +0.177 C 
ATOM      7  N   UNL     1      -1.642  -4.780   0.360  0.00  0.00    -0.220 N 
ATOM      8  C   UNL     1      -2.629  -4.054  -0.221  0.00  0.00    +0.219 A 
ATOM      9  N   UNL     1      -3.651  -4.841  -0.415  0.00  0.00    -0.187 NA
ATOM     10  C   UNL     1      -3.361  -6.072   0.032  0.00  0.00    +0.211 A 
ATOM     11  N   UNL     1      -2.137  -6.074   0.516  0.00  0.00    -0.141 NA
ATOM     12  N   UNL     1      -2.463  -2.709  -0.507  0.00  0.00    -0.287 N 
ATOM     13  C   UNL     1       0.675  -2.019   1.263  0.00  0.00    +0.164 C 
ATOM     14  O   UNL     1       1.563  -2.646   1.806  0.00  0.00    -0.292 OA
ATOM     15  C   UNL     1       0.742  -0.517   1.242  0.00  0.00    +0.086 C 
ATOM     16  C   UNL     1       0.706  -0.503  -1.262  0.00  0.00    +0.011 C 
ATOM     17  H   UNL     1      -3.074  -2.246  -1.101  0.00  0.00    +0.155 HD
ENDROOT
BRANCH   6  18
ATOM     18  C   UNL     1       0.695  -4.724  -0.256  0.00  0.00    +0.007 A 
ATOM     19  C   UNL     1       0.710  -4.518  -1.582  0.00  0.00    +0.089 A 
ATOM     20  N   UNL     1       1.807  -5.122  -2.135  0.00  0.00    -0.360 N 
ATOM     21  H   UNL     1       2.032  -5.111  -3.079  0.00  0.00    +0.165 HD
ATOM     22  C   UNL     1       2.543  -5.746  -1.153  0.00  0.00    +0.047 A 
ATOM     23  C   UNL     1       1.882  -5.519   0.068  0.00  0.00    +0.005 A 
ATOM     24  C   UNL     1       2.410  -6.036   1.252  0.00  0.00    +0.010 A 
ATOM     25  C   UNL     1       3.570  -6.759   1.219  0.00  0.00    +0.001 A 
ATOM     26  C   UNL     1       4.227  -6.982   0.018  0.00  0.00    +0.002 A 
ATOM     27  C   UNL     1       3.719  -6.489  -1.164  0.00  0.00    +0.026 A 
ENDBRANCH   6  18
BRANCH  10  28
ATOM     28  S   UNL     1      -4.443  -7.462  -0.021  0.00  0.00    -0.080 S 
BRANCH  28  29
ATOM     29  C   UNL     1      -5.952  -6.814  -0.792  0.00  0.00    +0.115 C 
BRANCH  29  30
ATOM     30  C   UNL     1      -6.974  -7.916  -0.898  0.00  0.00    -0.002 A 
ATOM     31  C   UNL     1      -7.013  -8.717  -2.024  0.00  0.00    +0.007 A 
ATOM     32  C   UNL     1      -7.950  -9.727  -2.122  0.00  0.00    +0.000 A 
ATOM     33  C   UNL     1      -8.850  -9.939  -1.094  0.00  0.00    +0.003 A 
ATOM     34  C   UNL     1      -8.813  -9.140   0.033  0.00  0.00    +0.038 A 
ATOM     35  C   UNL     1      -7.871  -8.130   0.134  0.00  0.00    +0.127 A 
ATOM     36  F   UNL     1      -7.831  -7.352   1.238  0.00  0.00    -0.205 F 
ENDBRANCH  29  30
ENDBRANCH  28  29
ENDBRANCH  10  28
TORSDOF 4
