REMARK  Name = ZINC18180963
REMARK  4 active torsions:
REMARK  status: ('A' for Active; 'I' for Inactive)
REMARK    1  A    between atoms: C_1  and  C_2
REMARK    2  A    between atoms: C_4  and  C_38
REMARK    3  A    between atoms: C_6  and  N_8
REMARK    4  A    between atoms: C_13  and  C_31
REMARK                            x       y       z     vdW  Elec       q    Type
REMARK                         _______ _______ _______ _____ _____    ______ ____
ROOT
ATOM      1  N   UNL     1       0.050  -2.798   2.395  0.00  0.00    -0.210 N 
ATOM      2  C   UNL     1       0.073  -4.162   2.473  0.00  0.00    +0.233 C 
ATOM      3  O   UNL     1       0.362  -4.941   1.589  0.00  0.00    -0.274 OA
ATOM      4  C   UNL     1      -0.333  -4.497   3.882  0.00  0.00    +0.125 C 
ATOM      5  C   UNL     1       0.446  -5.569   4.654  0.00  0.00    +0.164 C 
ATOM      6  O   UNL     1       0.439  -5.059   6.021  0.00  0.00    -0.348 OA
ATOM      7  C   UNL     1       0.341  -3.606   5.978  0.00  0.00    +0.206 C 
ATOM      8  C   UNL     1       0.387  -3.255   4.550  0.00  0.00    +0.138 C 
ATOM      9  C   UNL     1       0.048  -2.198   3.630  0.00  0.00    +0.234 C 
ATOM     10  O   UNL     1      -0.188  -1.037   3.890  0.00  0.00    -0.274 OA
ATOM     11  C   UNL     1      -0.935  -3.180   6.658  0.00  0.00    +0.204 C 
ATOM     12  O   UNL     1      -2.063  -3.455   6.308  0.00  0.00    -0.288 OA
ATOM     13  C   UNL     1      -0.556  -2.369   7.830  0.00  0.00    +0.031 A 
ATOM     14  C   UNL     1      -1.344  -1.733   8.791  0.00  0.00    +0.012 A 
ATOM     15  C   UNL     1      -0.749  -1.018   9.813  0.00  0.00    +0.001 A 
ATOM     16  C   UNL     1       0.630  -0.925   9.893  0.00  0.00    +0.001 A 
ATOM     17  C   UNL     1       1.428  -1.547   8.952  0.00  0.00    +0.012 A 
ATOM     18  C   UNL     1       0.847  -2.275   7.911  0.00  0.00    +0.031 A 
ATOM     19  C   UNL     1       1.463  -3.018   6.796  0.00  0.00    +0.204 C 
ATOM     20  O   UNL     1       2.650  -3.134   6.578  0.00  0.00    -0.288 OA
ENDROOT
BRANCH   1  26
ATOM     21  C   UNL     1      -0.018   1.503   0.010  0.00  0.00    +0.044 C 
ATOM     22  C   UNL     1       0.002  -0.004   0.002  0.00  0.00    -0.048 A 
ATOM     23  C   UNL     1       0.006  -0.688  -1.200  0.00  0.00    +0.006 A 
ATOM     24  C   UNL     1       0.024  -2.071  -1.211  0.00  0.00    -0.048 A 
ATOM     25  C   UNL     1       0.039  -2.773  -0.022  0.00  0.00    +0.027 A 
ATOM     26  C   UNL     1       0.035  -2.088   1.186  0.00  0.00    +0.044 A 
ATOM     27  C   UNL     1       0.023  -0.700   1.195  0.00  0.00    +0.027 A 
ATOM     28  C   UNL     1       0.027  -2.813  -2.523  0.00  0.00    +0.044 C 
ENDBRANCH   1  26
BRANCH   5  29
ATOM     29  C   UNL     1      -0.257  -6.900   4.574  0.00  0.00    +0.000 A 
ATOM     30  C   UNL     1      -1.122  -7.286   5.580  0.00  0.00    +0.007 A 
ATOM     31  C   UNL     1      -1.767  -8.507   5.507  0.00  0.00    +0.000 A 
ATOM     32  C   UNL     1      -1.546  -9.342   4.428  0.00  0.00    +0.001 A 
ATOM     33  C   UNL     1      -0.681  -8.957   3.421  0.00  0.00    +0.020 A 
ATOM     34  C   UNL     1      -0.040  -7.733   3.491  0.00  0.00    +0.047 A 
ATOM     35 CL   UNL     1       1.042  -7.246   2.224  0.00  0.00    -0.083 Cl
ENDBRANCH   5  29
TORSDOF 2
