REMARK  Name = ZINC59959508
REMARK  10 active torsions:
REMARK  status: ('A' for Active; 'I' for Inactive)
REMARK    1  A    between atoms: C_1  and  C_2
REMARK    2  A    between atoms: C_2  and  C_27
REMARK    3  A    between atoms: N_3  and  N_4
REMARK    4  A    between atoms: C_5  and  C_18
REMARK    5  A    between atoms: N_7  and  C_11
REMARK    6  A    between atoms: C_11  and  C_12
REMARK    7  A    between atoms: C_21  and  O_26
REMARK    8  A    between atoms: C_22  and  O_24
REMARK    9  A    between atoms: O_24  and  C_25
REMARK   10  A    between atoms: C_30  and  N_33
REMARK                            x       y       z     vdW  Elec       q    Type
REMARK                         _______ _______ _______ _____ _____    ______ ____
ROOT
ATOM      1  N   UNL     1       0.107   0.114   2.368  0.00  0.00    -0.170 N 
ATOM      2  C   UNL     1       0.153  -0.508   3.697  0.00  0.00    +0.202 C 
ATOM      3  N   UNL     1       0.572   0.558   4.636  0.00  0.00    -0.266 NA
ATOM      4  C   UNL     1       0.102   1.797   3.971  0.00  0.00    +0.184 C 
ATOM      5  C   UNL     1       0.076   1.455   2.497  0.00  0.00    +0.251 C 
ATOM      6  O   UNL     1       0.031   2.254   1.585  0.00  0.00    -0.272 OA
ENDROOT
BRANCH   2   7
ATOM      7  C   UNL     1       1.155  -1.634   3.709  0.00  0.00    -0.007 A 
ATOM      8  C   UNL     1       0.728  -2.935   3.898  0.00  0.00    +0.010 A 
ATOM      9  C   UNL     1       1.643  -3.971   3.909  0.00  0.00    +0.049 A 
ATOM     10  C   UNL     1       2.992  -3.707   3.731  0.00  0.00    +0.158 A 
ATOM     11  C   UNL     1       3.421  -2.397   3.540  0.00  0.00    +0.162 A 
ATOM     12  C   UNL     1       2.498  -1.363   3.525  0.00  0.00    +0.056 A 
BRANCH  11  13
ATOM     13  O   UNL     1       4.744  -2.132   3.365  0.00  0.00    -0.491 OA
ATOM     14  C   UNL     1       5.124  -0.757   3.279  0.00  0.00    +0.277 C 
ENDBRANCH  11  13
BRANCH  10  15
ATOM     15  O   UNL     1       3.893  -4.725   3.742  0.00  0.00    -0.503 OA
ATOM     16  H   UNL     1       4.057  -5.114   2.873  0.00  0.00    +0.292 HD
ENDBRANCH  10  15
ENDBRANCH   2   7
BRANCH   1  19
ATOM     17  C   UNL     1      -2.137   0.289   0.780  0.00  0.00    +0.068 C 
ATOM     18  C   UNL     1      -0.950  -0.557   0.394  0.00  0.00    +0.064 C 
ATOM     19  N   UNL     1       0.103  -0.581   1.151  0.00  0.00    -0.180 NA
BRANCH  18  20
ATOM     20  C   UNL     1      -0.987  -1.357  -0.844  0.00  0.00    -0.002 A 
ATOM     21  C   UNL     1       0.057  -2.236  -1.143  0.00  0.00    +0.012 A 
ATOM     22  C   UNL     1       0.016  -2.981  -2.303  0.00  0.00    +0.033 A 
ATOM     23  C   UNL     1      -1.056  -2.861  -3.169  0.00  0.00    +0.126 A 
ATOM     24  C   UNL     1      -2.094  -1.993  -2.879  0.00  0.00    +0.033 A 
ATOM     25  C   UNL     1      -2.069  -1.245  -1.720  0.00  0.00    +0.012 A 
BRANCH  23  26
ATOM     26  N   UNL     1      -1.093  -3.664  -4.412  0.00  0.00    +0.056 N 
ATOM     27  O   UNL     1      -0.187  -4.423  -4.668  0.00  0.00    -0.126 OA
ATOM     28  O   UNL     1      -2.028  -3.561  -5.171  0.00  0.00    -0.126 OA
ENDBRANCH  23  26
ENDBRANCH  18  20
ENDBRANCH   1  19
BRANCH   3  29
ATOM     29  C   UNL     1      -0.070   0.388   5.946  0.00  0.00    +0.122 C 
BRANCH  29  30
ATOM     30  C   UNL     1       0.558   1.331   6.940  0.00  0.00    -0.033 A 
ATOM     31  C   UNL     1       1.655   0.927   7.678  0.00  0.00    +0.005 A 
ATOM     32  C   UNL     1       2.231   1.792   8.589  0.00  0.00    +0.000 A 
ATOM     33  C   UNL     1       1.710   3.061   8.762  0.00  0.00    +0.000 A 
ATOM     34  C   UNL     1       0.614   3.465   8.024  0.00  0.00    +0.000 A 
ATOM     35  C   UNL     1       0.040   2.601   7.109  0.00  0.00    +0.005 A 
ENDBRANCH  29  30
ENDBRANCH   3  29
TORSDOF 8
