REMARK  Name = ZINC57608190
REMARK  10 active torsions:
REMARK  status: ('A' for Active; 'I' for Inactive)
REMARK    1  A    between atoms: C_1  and  C_2
REMARK    2  A    between atoms: C_2  and  C_3
REMARK    3  A    between atoms: C_10  and  C_15
REMARK    4  A    between atoms: C_15  and  C_17
REMARK    5  A    between atoms: C_15  and  N_28
REMARK    6  A    between atoms: N_21  and  C_22
REMARK    7  A    between atoms: N_28  and  C_29
REMARK    8  A    between atoms: N_28  and  C_35
REMARK    9  A    between atoms: C_29  and  C_30
REMARK   10  A    between atoms: C_35  and  C_36
REMARK                            x       y       z     vdW  Elec       q    Type
REMARK                         _______ _______ _______ _____ _____    ______ ____
ROOT
ATOM      1  C   UNL     1       6.691  -2.873  -4.135  0.00  0.00    +0.163 C 
ENDROOT
BRANCH   1   9
ATOM      2  C   UNL     1       1.749   0.792  -3.482  0.00  0.00    -0.047 A 
ATOM      3  C   UNL     1       1.496   0.955  -4.837  0.00  0.00    +0.005 A 
ATOM      4  C   UNL     1       2.295   0.347  -5.780  0.00  0.00    +0.026 A 
ATOM      5  C   UNL     1       3.368  -0.439  -5.372  0.00  0.00    +0.049 A 
ATOM      6  C   UNL     1       3.622  -0.602  -3.997  0.00  0.00    -0.001 A 
ATOM      7  C   UNL     1       2.800   0.030  -3.058  0.00  0.00    +0.013 A 
ATOM      8  C   UNL     1       4.753  -1.430  -3.578  0.00  0.00    +0.021 A 
ATOM      9  C   UNL     1       5.519  -2.014  -4.533  0.00  0.00    +0.042 A 
ATOM     10  C   UNL     1       5.221  -1.819  -5.899  0.00  0.00    +0.254 A 
ATOM     11  O   UNL     1       5.922  -2.352  -6.742  0.00  0.00    -0.268 OA
ATOM     12  N   UNL     1       4.184  -1.059  -6.294  0.00  0.00    -0.322 N 
ATOM     13  H   UNL     1       4.008  -0.946  -7.241  0.00  0.00    +0.169 HD
BRANCH   2  15
ATOM     14  C   UNL     1       1.414   2.859  -2.153  0.00  0.00    +0.009 C 
ATOM     15  C   UNL     1       0.860   1.468  -2.470  0.00  0.00    +0.032 C 
ENDBRANCH   2  15
ENDBRANCH   1   9
BRANCH   1  16
ATOM     16  C   UNL     1       7.953  -2.312  -4.739  0.00  0.00    +0.173 A 
ATOM     17  N   UNL     1       8.332  -2.409  -5.990  0.00  0.00    -0.111 NA
ATOM     18  N   UNL     1       9.462  -1.802  -6.111  0.00  0.00    -0.023 NA
ATOM     19  N   UNL     1       9.814  -1.321  -4.970  0.00  0.00    -0.044 NA
ATOM     20  N   UNL     1       8.906  -1.610  -4.099  0.00  0.00    -0.224 N 
BRANCH  20  21
ATOM     21  C   UNL     1       8.915  -1.246  -2.680  0.00  0.00    +0.111 C 
ATOM     22  C   UNL     1       9.013   0.275  -2.545  0.00  0.00    +0.027 C 
ATOM     23  C   UNL     1       9.022   0.656  -1.063  0.00  0.00    +0.002 C 
ATOM     24  C   UNL     1      10.223   0.004  -0.376  0.00  0.00    +0.000 C 
ATOM     25  C   UNL     1      10.124  -1.517  -0.511  0.00  0.00    +0.002 C 
ATOM     26  C   UNL     1      10.116  -1.898  -1.993  0.00  0.00    +0.027 C 
ENDBRANCH  20  21
ENDBRANCH   1  16
BRANCH   1  27
ATOM     27  N   UNL     1       6.481  -4.243  -4.623  0.00  0.00    -0.279 NA
BRANCH  27  28
ATOM     28  C   UNL     1       7.583  -5.123  -4.210  0.00  0.00    +0.159 C 
BRANCH  28  29
ATOM     29  C   UNL     1       8.765  -4.910  -5.120  0.00  0.00    +0.119 A 
ATOM     30  C   UNL     1       9.921  -4.311  -4.782  0.00  0.00    +0.046 A 
ATOM     31  C   UNL     1      10.742  -4.327  -5.932  0.00  0.00    +0.041 A 
ATOM     32  C   UNL     1      10.040  -4.935  -6.904  0.00  0.00    +0.195 A 
ATOM     33  O   UNL     1       8.845  -5.291  -6.405  0.00  0.00    -0.467 OA
ENDBRANCH  28  29
ENDBRANCH  27  28
BRANCH  27  34
ATOM     34  C   UNL     1       5.188  -4.771  -4.170  0.00  0.00    +0.117 C 
BRANCH  34  35
ATOM     35  C   UNL     1       4.093  -4.352  -5.154  0.00  0.00    +0.132 C 
ATOM     36  C   UNL     1       2.765  -5.048  -4.787  0.00  0.00    +0.035 C 
ATOM     37  C   UNL     1       2.180  -5.399  -6.183  0.00  0.00    +0.031 C 
ATOM     38  C   UNL     1       3.476  -5.699  -6.977  0.00  0.00    +0.160 C 
ATOM     39  O   UNL     1       4.448  -4.763  -6.479  0.00  0.00    -0.375 OA
ENDBRANCH  34  35
ENDBRANCH  27  34
ENDBRANCH   1  27
TORSDOF 9
