REMARK  Name = ZINC63625414
REMARK  9 active torsions:
REMARK  status: ('A' for Active; 'I' for Inactive)
REMARK    1  A    between atoms: C_1  and  C_2
REMARK    2  A    between atoms: C_2  and  O_3
REMARK    3  A    between atoms: O_3  and  C_4
REMARK    4  A    between atoms: C_4  and  C_6
REMARK    5  A    between atoms: C_7  and  C_36
REMARK    6  A    between atoms: C_8  and  C_13
REMARK    7  A    between atoms: C_10  and  C_12
REMARK    8  A    between atoms: C_18  and  C_21
REMARK    9  A    between atoms: C_21  and  C_22
REMARK                            x       y       z     vdW  Elec       q    Type
REMARK                         _______ _______ _______ _____ _____    ______ ____
ROOT
ATOM      1  C   UNL     1       1.550  -4.416  -5.125  0.00  0.00    +0.228 C 
ATOM      2  O   UNL     1       0.487  -4.910  -4.814  0.00  0.00    -0.275 OA
ATOM      3  N   UNL     1       1.985  -4.501  -6.398  0.00  0.00    -0.301 N 
ATOM      4  C   UNL     1       3.324  -4.021  -6.765  0.00  0.00    +0.108 C 
ATOM      5  C   UNL     1       3.193  -3.032  -7.927  0.00  0.00    +0.023 C 
ATOM      6  C   UNL     1       2.427  -3.696  -9.073  0.00  0.00    +0.001 C 
ATOM      7  C   UNL     1       1.022  -4.074  -8.599  0.00  0.00    +0.023 C 
ATOM      8  C   UNL     1       1.131  -5.081  -7.444  0.00  0.00    +0.108 C 
ENDROOT
BRANCH   1  11
ATOM      9  C   UNL     1       2.860  -4.602  -2.055  0.00  0.00    +0.148 C 
ATOM     10  C   UNL     1       3.257  -4.693  -3.337  0.00  0.00    -0.023 C 
ATOM     11  C   UNL     1       2.383  -3.707  -4.090  0.00  0.00    +0.147 C 
ATOM     12  C   UNL     1       1.507  -3.123  -2.999  0.00  0.00    +0.033 C 
ATOM     13  N   UNL     1       1.853  -3.697  -1.901  0.00  0.00    -0.249 NA
ATOM     14  C   UNL     1       0.435  -2.077  -3.169  0.00  0.00    +0.062 C 
ATOM     15  C   UNL     1       4.335  -5.582  -3.903  0.00  0.00    +0.042 C 
BRANCH   9  16
ATOM     16  C   UNL     1       3.441  -5.392  -0.951  0.00  0.00    +0.358 C 
ATOM     17  O   UNL     1       4.338  -6.180  -1.174  0.00  0.00    -0.243 OA
BRANCH  16  18
ATOM     18  O   UNL     1       2.975  -5.238   0.304  0.00  0.00    -0.460 OA
BRANCH  18  20
ATOM     19  C   UNL     1       2.929  -5.724   2.671  0.00  0.00    +0.048 C 
ATOM     20  C   UNL     1       3.583  -6.034   1.323  0.00  0.00    +0.229 C 
ENDBRANCH  18  20
ENDBRANCH  16  18
ENDBRANCH   9  16
ENDBRANCH   1  11
BRANCH   6  21
ATOM     21  C   UNL     1       2.324  -2.722 -10.249  0.00  0.00    +0.099 C 
BRANCH  21  22
ATOM     22  C   UNL     1       1.679  -3.417 -11.421  0.00  0.00    +0.216 C 
ATOM     23  O   UNL     1       1.337  -4.576 -11.325  0.00  0.00    -0.276 OA
ATOM     24  N   UNL     1       1.484  -2.749 -12.575  0.00  0.00    -0.298 N 
ATOM     25  C   UNL     1       1.900  -1.346 -12.708  0.00  0.00    +0.126 C 
ATOM     26  C   UNL     1       2.833  -1.223 -13.918  0.00  0.00    +0.125 C 
ATOM     27  N   UNL     1       2.201  -1.886 -15.068  0.00  0.00    -0.314 N 
ATOM     28  C   UNL     1       1.785  -3.289 -14.936  0.00  0.00    +0.125 C 
ATOM     29  C   UNL     1       0.857  -3.413 -13.727  0.00  0.00    +0.126 C 
ATOM     30  C   UNL     1       1.999  -1.197 -16.258  0.00  0.00    +0.099 A 
ATOM     31  C   UNL     1       2.297   0.160 -16.329  0.00  0.00    +0.042 A 
ATOM     32  C   UNL     1       2.091   0.833 -17.520  0.00  0.00    +0.005 A 
ATOM     33  C   UNL     1       1.594   0.123 -18.605  0.00  0.00    +0.018 A 
ATOM     34  C   UNL     1       1.320  -1.223 -18.464  0.00  0.00    +0.084 A 
ATOM     35  N   UNL     1       1.531  -1.840 -17.317  0.00  0.00    -0.350 N 
ATOM     36  H   UNL     1       1.335  -2.787 -17.246  0.00  0.00    +0.166 HD
ENDBRANCH  21  22
ENDBRANCH   6  21
TORSDOF 6
