REMARK  Name = ZINC64924252
REMARK  6 active torsions:
REMARK  status: ('A' for Active; 'I' for Inactive)
REMARK    1  A    between atoms: C_3  and  N_9
REMARK    2  A    between atoms: C_6  and  C_7
REMARK    3  A    between atoms: N_9  and  S_10
REMARK    4  A    between atoms: S_10  and  C_13
REMARK    5  A    between atoms: C_16  and  C_18
REMARK    6  A    between atoms: C_22  and  C_25
REMARK                            x       y       z     vdW  Elec       q    Type
REMARK                         _______ _______ _______ _____ _____    ______ ____
ROOT
ATOM      1  C   UNL     1       6.297   2.541  -0.045  0.00  0.00    +0.111 C 
ATOM      2  C   UNL     1       7.056   2.910  -1.072  0.00  0.00    +0.135 C 
ATOM      3  N   UNL     1       7.943   3.875  -0.734  0.00  0.00    -0.258 NA
ATOM      4  C   UNL     1       7.867   4.232   0.503  0.00  0.00    +0.069 C 
ATOM      5  C   UNL     1       6.761   3.398   1.118  0.00  0.00    +0.113 C 
ENDROOT
BRANCH   4   6
ATOM      6  C   UNL     1       8.706   5.274   1.197  0.00  0.00    +0.248 C 
ATOM      7  N   UNL     1      10.005   5.422   0.501  0.00  0.00    -0.222 NA
ATOM      8  N   UNL     1      10.967   5.622   1.599  0.00  0.00    -0.223 NA
ATOM      9  C   UNL     1      10.423   4.736   2.661  0.00  0.00    +0.233 C 
ATOM     10  O   UNL     1       8.990   4.858   2.541  0.00  0.00    -0.332 OA
ATOM     11  H   UNL     1      10.228   4.593  -0.029  0.00  0.00    +0.144 HD
ATOM     12  H   UNL     1      10.977   6.584   1.900  0.00  0.00    +0.144 HD
BRANCH   9  13
ATOM     13  C   UNL     1      10.879   5.204   4.019  0.00  0.00    -0.003 A 
ATOM     14  C   UNL     1      11.118   6.548   4.242  0.00  0.00    +0.010 A 
ATOM     15  C   UNL     1      11.535   6.978   5.487  0.00  0.00    +0.039 A 
ATOM     16  C   UNL     1      11.713   6.064   6.512  0.00  0.00    +0.123 A 
ATOM     17  C   UNL     1      11.473   4.719   6.287  0.00  0.00    +0.039 A 
ATOM     18  C   UNL     1      11.051   4.291   5.043  0.00  0.00    +0.010 A 
ATOM     19  F   UNL     1      12.121   6.484   7.729  0.00  0.00    -0.205 F 
ENDBRANCH   9  13
ENDBRANCH   4   6
BRANCH   1  20
ATOM     20  S   UNL     1       5.022   1.325  -0.039  0.00  0.00    +0.090 S 
ATOM     21  O   UNL     1       5.121   0.639   1.202  0.00  0.00    -0.149 OA
ATOM     22  O   UNL     1       5.097   0.652  -1.289  0.00  0.00    -0.149 OA
BRANCH  20  23
ATOM     23  N   UNL     1       3.576   2.131  -0.021  0.00  0.00    -0.098 NA
BRANCH  23  26
ATOM     24  C   UNL     1      -0.017   1.394   0.010  0.00  0.00    +0.021 A 
ATOM     25  C   UNL     1       1.167   2.097   0.002  0.00  0.00    +0.028 A 
ATOM     26  C   UNL     1       2.381   1.417  -0.013  0.00  0.00    +0.074 A 
ATOM     27  C   UNL     1       2.404   0.026  -0.021  0.00  0.00    +0.028 A 
ATOM     28  C   UNL     1       1.224  -0.683  -0.014  0.00  0.00    +0.021 A 
ATOM     29  C   UNL     1       0.002  -0.004   0.002  0.00  0.00    +0.052 A 
BRANCH  29  30
ATOM     30  C   UNL     1      -1.227  -0.739   0.010  0.00  0.00    +0.099 C 
ATOM     31  N   UNL     1      -2.202  -1.321   0.017  0.00  0.00    -0.191 NA
ENDBRANCH  29  30
ENDBRANCH  23  26
ENDBRANCH  20  23
ENDBRANCH   1  20
TORSDOF 6
