REMARK  Name = ZINC17201696
REMARK  12 active torsions:
REMARK  status: ('A' for Active; 'I' for Inactive)
REMARK    1  A    between atoms: C_1  and  C_2
REMARK    2  A    between atoms: C_2  and  N_3
REMARK    3  A    between atoms: N_3  and  C_4
REMARK    4  A    between atoms: N_3  and  C_6
REMARK    5  A    between atoms: C_4  and  C_5
REMARK    6  A    between atoms: C_9  and  C_12
REMARK    7  A    between atoms: C_13  and  C_14
REMARK    8  A    between atoms: C_13  and  N_28
REMARK    9  A    between atoms: N_16  and  N_17
REMARK   10  A    between atoms: C_18  and  C_19
REMARK   11  A    between atoms: C_23  and  N_25
REMARK   12  A    between atoms: C_29  and  C_31
REMARK                            x       y       z     vdW  Elec       q    Type
REMARK                         _______ _______ _______ _____ _____    ______ ____
ROOT
ATOM      1  C   UNL     1      -3.502  10.283   0.173  0.00  0.00    +0.036 C 
ATOM      2  C   UNL     1      -2.450   9.432   0.092  0.00  0.00    +0.098 C 
ENDROOT
BRANCH   1   6
ATOM      3  C   UNL     1      -7.464   8.771   0.120  0.00  0.00    +0.030 A 
ATOM      4  C   UNL     1      -7.178   9.944   0.814  0.00  0.00    +0.024 A 
ATOM      5  C   UNL     1      -5.894  10.438   0.833  0.00  0.00    +0.010 A 
ATOM      6  C   UNL     1      -4.874   9.759   0.155  0.00  0.00    -0.023 A 
ATOM      7  C   UNL     1      -5.167   8.583  -0.545  0.00  0.00    +0.010 A 
ATOM      8  C   UNL     1      -6.453   8.093  -0.555  0.00  0.00    +0.024 A 
BRANCH   3   9
ATOM      9  N   UNL     1      -8.765   8.275   0.103  0.00  0.00    -0.330 N 
BRANCH   9  11
ATOM     10  C   UNL     1      -8.897   5.841   0.308  0.00  0.00    +0.024 C 
ATOM     11  C   UNL     1      -9.069   7.041  -0.626  0.00  0.00    +0.102 C 
ENDBRANCH   9  11
BRANCH   9  12
ATOM     12  C   UNL     1      -9.831   8.987   0.813  0.00  0.00    +0.102 C 
ATOM     13  C   UNL     1     -10.479  10.005  -0.128  0.00  0.00    +0.024 C 
ENDBRANCH   9  12
ENDBRANCH   3   9
ENDBRANCH   1   6
BRANCH   2  14
ATOM     14  C   UNL     1      -2.676   7.982   0.123  0.00  0.00    +0.277 C 
ATOM     15  O   UNL     1      -2.482   7.315  -0.876  0.00  0.00    -0.267 OA
ATOM     16  N   UNL     1      -3.099   7.390   1.258  0.00  0.00    -0.202 N 
ATOM     17  H   UNL     1      -3.184   7.909   2.073  0.00  0.00    +0.178 HD
BRANCH  16  18
ATOM     18  N   UNL     1      -3.415   6.025   1.260  0.00  0.00    -0.187 NA
ATOM     19  C   UNL     1      -3.822   5.455   2.352  0.00  0.00    +0.138 C 
BRANCH  19  20
ATOM     20  C   UNL     1      -4.154   4.019   2.354  0.00  0.00    -0.003 A 
ATOM     21  C   UNL     1      -4.032   3.268   1.182  0.00  0.00    +0.009 A 
ATOM     22  C   UNL     1      -4.339   1.923   1.193  0.00  0.00    +0.003 A 
ATOM     23  C   UNL     1      -4.778   1.320   2.359  0.00  0.00    +0.033 A 
ATOM     24  C   UNL     1      -4.902   2.057   3.523  0.00  0.00    +0.127 A 
ATOM     25  C   UNL     1      -4.593   3.401   3.529  0.00  0.00    +0.042 A 
BRANCH  24  26
ATOM     26  N   UNL     1      -5.366   1.401   4.766  0.00  0.00    +0.056 N 
ATOM     27  O   UNL     1      -5.638   0.214   4.763  0.00  0.00    -0.126 OA
ATOM     28  O   UNL     1      -5.475   2.049   5.792  0.00  0.00    -0.126 OA
ENDBRANCH  24  26
ENDBRANCH  19  20
ENDBRANCH  16  18
ENDBRANCH   2  14
BRANCH   2  29
ATOM     29  N   UNL     1      -1.150   9.935  -0.022  0.00  0.00    -0.277 N 
ATOM     30  C   UNL     1      -0.099   9.092  -0.022  0.00  0.00    +0.248 C 
ATOM     31  O   UNL     1      -0.283   7.890  -0.014  0.00  0.00    -0.270 OA
ATOM     32  H   UNL     1      -1.005  10.891  -0.100  0.00  0.00    +0.155 HD
BRANCH  30  33
ATOM     33  C   UNL     1       1.279   9.628  -0.033  0.00  0.00    +0.037 A 
ATOM     34  C   UNL     1       1.494  11.007  -0.048  0.00  0.00    +0.013 A 
ATOM     35  C   UNL     1       2.783  11.501  -0.052  0.00  0.00    +0.001 A 
ATOM     36  C   UNL     1       3.860  10.632  -0.053  0.00  0.00    +0.000 A 
ATOM     37  C   UNL     1       3.653   9.264  -0.043  0.00  0.00    +0.001 A 
ATOM     38  C   UNL     1       2.370   8.757  -0.033  0.00  0.00    +0.013 A 
ENDBRANCH  30  33
ENDBRANCH   2  29
TORSDOF 10
