REMARK  Name = ZINC16115308
REMARK  9 active torsions:
REMARK  status: ('A' for Active; 'I' for Inactive)
REMARK    1  A    between atoms: C_1  and  C_2
REMARK    2  A    between atoms: N_4  and  C_5
REMARK    3  A    between atoms: C_8  and  S_11
REMARK    4  A    between atoms: S_11  and  O_14
REMARK    5  A    between atoms: O_14  and  C_15
REMARK    6  A    between atoms: C_18  and  C_21
REMARK    7  A    between atoms: N_22  and  N_23
REMARK    8  A    between atoms: C_28  and  C_31
REMARK    9  A    between atoms: C_31  and  C_32
REMARK                            x       y       z     vdW  Elec       q    Type
REMARK                         _______ _______ _______ _____ _____    ______ ____
ROOT
ATOM      1  C   UNL     1      -2.105  -6.858   2.401  0.00  0.00    +0.157 A 
ATOM      2  C   UNL     1      -2.495  -5.655   2.975  0.00  0.00    +0.049 A 
ATOM      3  C   UNL     1      -3.741  -5.536   3.552  0.00  0.00    +0.013 A 
ATOM      4  C   UNL     1      -4.613  -6.630   3.559  0.00  0.00    -0.005 A 
ATOM      5  C   UNL     1      -4.215  -7.840   2.979  0.00  0.00    +0.013 A 
ATOM      6  C   UNL     1      -2.969  -7.946   2.401  0.00  0.00    +0.049 A 
ENDROOT
BRANCH   4   7
ATOM      7  C   UNL     1      -5.944  -6.510   4.174  0.00  0.00    +0.143 C 
ATOM      8  N   UNL     1      -6.756  -7.532   4.179  0.00  0.00    -0.155 NA
BRANCH   8   9
ATOM      9  N   UNL     1      -7.923  -7.426   4.719  0.00  0.00    -0.127 NA
ATOM     10  C   UNL     1      -8.741  -8.457   4.724  0.00  0.00    +0.183 C 
ATOM     11  N   UNL     1      -8.525  -9.719   4.211  0.00  0.00    -0.263 N 
ATOM     12  C   UNL     1      -9.433 -10.677   4.278  0.00  0.00    +0.233 C 
ATOM     13  O   UNL     1      -9.236 -11.784   3.825  0.00  0.00    -0.274 OA
ATOM     14  C   UNL     1     -10.740 -10.304   4.959  0.00  0.00    +0.151 C 
ATOM     15  S   UNL     1     -10.391  -8.553   5.404  0.00  0.00    -0.075 S 
ATOM     16  H   UNL     1      -7.675  -9.910   3.785  0.00  0.00    +0.157 HD
BRANCH  14  17
ATOM     17  C   UNL     1     -10.975 -11.153   6.210  0.00  0.00    +0.149 C 
BRANCH  17  18
ATOM     18  C   UNL     1     -12.333 -10.838   6.783  0.00  0.00    +0.358 C 
ATOM     19  O   UNL     1     -13.046 -10.011   6.241  0.00  0.00    -0.246 OA
ATOM     20  O   UNL     1     -12.718 -11.410   7.789  0.00  0.00    -0.246 OA
ENDBRANCH  17  18
ENDBRANCH  14  17
ENDBRANCH   8   9
ENDBRANCH   4   7
BRANCH   1  21
ATOM     21  O   UNL     1      -0.875  -6.970   1.834  0.00  0.00    -0.342 OA
BRANCH  21  22
ATOM     22  S   UNL     1      -0.840  -6.603   0.357  0.00  0.00    +0.151 S 
ATOM     23  O   UNL     1      -2.038  -7.108  -0.216  0.00  0.00    -0.131 OA
ATOM     24  O   UNL     1       0.447  -6.970  -0.121  0.00  0.00    -0.131 OA
BRANCH  22  28
ATOM     25  C   UNL     1      -1.081  -2.089   0.091  0.00  0.00    +0.033 A 
ATOM     26  C   UNL     1       0.155  -2.716   0.178  0.00  0.00    +0.025 A 
ATOM     27  C   UNL     1       0.225  -4.092   0.259  0.00  0.00    +0.032 A 
ATOM     28  C   UNL     1      -0.934  -4.847   0.254  0.00  0.00    +0.128 A 
ATOM     29  C   UNL     1      -2.166  -4.226   0.168  0.00  0.00    +0.032 A 
ATOM     30  C   UNL     1      -2.244  -2.849   0.093  0.00  0.00    +0.025 A 
BRANCH  25  34
ATOM     31  C   UNL     1      -2.194   1.470   0.609  0.00  0.00    +0.109 C 
ATOM     32  C   UNL     1      -2.169  -0.037   0.608  0.00  0.00    +0.214 C 
ATOM     33  O   UNL     1      -3.061  -0.658   1.145  0.00  0.00    -0.276 OA
ATOM     34  N   UNL     1      -1.156  -0.694   0.009  0.00  0.00    -0.286 N 
ATOM     35  H   UNL     1      -0.478  -0.200  -0.478  0.00  0.00    +0.155 HD
ENDBRANCH  25  34
ENDBRANCH  22  28
ENDBRANCH  21  22
ENDBRANCH   1  21
TORSDOF 8
