REMARK  Name = ZINC27496747
REMARK  5 active torsions:
REMARK  status: ('A' for Active; 'I' for Inactive)
REMARK    1  A    between atoms: C_9  and  C_11
REMARK    2  A    between atoms: C_16  and  O_34
REMARK    3  A    between atoms: N_21  and  N_22
REMARK    4  A    between atoms: C_23  and  C_25
REMARK    5  A    between atoms: C_28  and  N_31
REMARK                            x       y       z     vdW  Elec       q    Type
REMARK                         _______ _______ _______ _____ _____    ______ ____
ROOT
ATOM      1  C   UNL     1       3.749  -3.285  -0.067  0.00  0.00    +0.079 A 
ATOM      2  C   UNL     1       3.115  -4.550   0.035  0.00  0.00    +0.028 A 
ATOM      3  C   UNL     1       3.917  -5.690   0.032  0.00  0.00    +0.018 A 
ATOM      4  C   UNL     1       3.361  -6.986   0.129  0.00  0.00    +0.015 A 
ATOM      5  C   UNL     1       4.181  -8.067   0.123  0.00  0.00    +0.046 A 
ATOM      6  C   UNL     1       5.573  -7.924   0.022  0.00  0.00    +0.120 A 
ATOM      7  C   UNL     1       6.165  -6.676  -0.076  0.00  0.00    +0.092 A 
ATOM      8  C   UNL     1       5.374  -5.538  -0.074  0.00  0.00    +0.141 A 
ATOM      9  O   UNL     1       5.914  -4.312  -0.168  0.00  0.00    -0.437 OA
ATOM     10  C   UNL     1       5.146  -3.209  -0.171  0.00  0.00    +0.223 A 
ATOM     11  N   UNL     1       5.728  -2.010  -0.272  0.00  0.00    -0.273 N 
ATOM     12  H   UNL     1       5.195  -1.204  -0.189  0.00  0.00    +0.188 HD
ENDROOT
BRANCH   1  21
ATOM     13  C   UNL     1      -0.022   1.370  -0.084  0.00  0.00    +0.002 A 
ATOM     14  C   UNL     1       1.164   2.094  -0.052  0.00  0.00    +0.002 A 
ATOM     15  C   UNL     1       2.370   1.457  -0.036  0.00  0.00    +0.030 A 
ATOM     16  C   UNL     1       2.419   0.054  -0.052  0.00  0.00    +0.089 A 
ATOM     17  C   UNL     1       1.213  -0.679  -0.085  0.00  0.00    +0.066 A 
ATOM     18  C   UNL     1      -0.002  -0.008  -0.101  0.00  0.00    +0.028 A 
ATOM     19  N   UNL     1       1.572  -2.009  -0.094  0.00  0.00    -0.338 N 
ATOM     20  H   UNL     1       0.970  -2.769  -0.115  0.00  0.00    +0.167 HD
ATOM     21  C   UNL     1       2.943  -2.055  -0.068  0.00  0.00    +0.144 A 
ATOM     22  N   UNL     1       3.426  -0.833  -0.043  0.00  0.00    -0.228 NA
ENDBRANCH   1  21
BRANCH  11  23
ATOM     23  N   UNL     1       6.998  -1.925  -0.479  0.00  0.00    -0.223 N 
ATOM     24  C   UNL     1       7.585  -0.715  -0.581  0.00  0.00    +0.262 C 
ATOM     25  O   UNL     1       6.917   0.294  -0.477  0.00  0.00    -0.269 OA
ATOM     26  H   UNL     1       7.531  -2.731  -0.562  0.00  0.00    +0.175 HD
BRANCH  24  27
ATOM     27  C   UNL     1       9.039  -0.618  -0.818  0.00  0.00    +0.038 A 
ATOM     28  C   UNL     1       9.809  -1.777  -0.943  0.00  0.00    +0.015 A 
ATOM     29  C   UNL     1      11.167  -1.678  -1.165  0.00  0.00    +0.033 A 
ATOM     30  C   UNL     1      11.766  -0.435  -1.263  0.00  0.00    +0.126 A 
ATOM     31  C   UNL     1      11.010   0.718  -1.139  0.00  0.00    +0.033 A 
ATOM     32  C   UNL     1       9.650   0.634  -0.923  0.00  0.00    +0.015 A 
BRANCH  30  33
ATOM     33  N   UNL     1      13.224  -0.337  -1.501  0.00  0.00    +0.056 N 
ATOM     34  O   UNL     1      13.947  -1.431  -1.619  0.00  0.00    -0.126 OA
ATOM     35  O   UNL     1      13.798   0.845  -1.595  0.00  0.00    -0.126 OA
ENDBRANCH  30  33
ENDBRANCH  24  27
ENDBRANCH  11  23
BRANCH   6  36
ATOM     36  O   UNL     1       6.354  -9.030   0.019  0.00  0.00    -0.507 OA
ATOM     37  H   UNL     1       6.521  -9.392  -0.862  0.00  0.00    +0.292 HD
ENDBRANCH   6  36
TORSDOF 5
