REMARK  Name = ZINC58969692
REMARK  8 active torsions:
REMARK  status: ('A' for Active; 'I' for Inactive)
REMARK    1  A    between atoms: C_3  and  C_6
REMARK    2  A    between atoms: C_8  and  C_30
REMARK    3  A    between atoms: C_10  and  S_12
REMARK    4  A    between atoms: S_12  and  C_13
REMARK    5  A    between atoms: C_13  and  C_14
REMARK    6  A    between atoms: C_14  and  C_15
REMARK    7  A    between atoms: N_17  and  C_18
REMARK    8  A    between atoms: C_19  and  C_28
REMARK                            x       y       z     vdW  Elec       q    Type
REMARK                         _______ _______ _______ _____ _____    ______ ____
ROOT
ATOM      1  C   UNL     1       7.335   5.460  -0.031  0.00  0.00    +0.086 C 
ENDROOT
BRANCH   1   2
ATOM      2  S   UNL     1       5.527   5.317  -0.012  0.00  0.00    -0.086 S 
BRANCH   2   7
ATOM      3  C   UNL     1       3.736   1.825  -0.024  0.00  0.00    +0.082 A 
ATOM      4  C   UNL     1       4.812   0.927  -0.045  0.00  0.00    +0.061 A 
ATOM      5  C   UNL     1       6.095   1.438  -0.055  0.00  0.00    +0.148 A 
ATOM      6  N   UNL     1       6.271   2.752  -0.045  0.00  0.00    -0.218 NA
ATOM      7  C   UNL     1       5.236   3.579  -0.025  0.00  0.00    +0.189 A 
ATOM      8  N   UNL     1       3.989   3.134  -0.020  0.00  0.00    -0.221 NA
BRANCH   3  11
ATOM      9  C   UNL     1      -0.016   1.355   0.009  0.00  0.00    +0.008 A 
ATOM     10  C   UNL     1       1.175   2.042   0.002  0.00  0.00    +0.017 A 
ATOM     11  C   UNL     1       2.347   1.329  -0.013  0.00  0.00    +0.038 A 
ATOM     12  S   UNL     1       1.752  -0.354  -0.017  0.00  0.00    -0.095 S 
ATOM     13  C   UNL     1       0.002  -0.004   0.002  0.00  0.00    +0.046 A 
ENDBRANCH   3  11
BRANCH   5  14
ATOM     14  C   UNL     1       7.284   0.512  -0.077  0.00  0.00    +0.434 C 
ATOM     15  F   UNL     1       7.636   0.237  -1.403  0.00  0.00    -0.164 F 
ATOM     16  F   UNL     1       8.361   1.120   0.575  0.00  0.00    -0.164 F 
ATOM     17  F   UNL     1       6.957  -0.682   0.575  0.00  0.00    -0.164 F 
ENDBRANCH   5  14
ENDBRANCH   2   7
ENDBRANCH   1   2
BRANCH   1  18
ATOM     18  C   UNL     1       7.730   6.938  -0.021  0.00  0.00    +0.107 C 
BRANCH  18  19
ATOM     19  C   UNL     1       9.233   7.056  -0.037  0.00  0.00    +0.218 C 
ATOM     20  O   UNL     1       9.919   6.056  -0.055  0.00  0.00    -0.275 OA
ATOM     21  N   UNL     1       9.813   8.272  -0.032  0.00  0.00    -0.279 N 
ATOM     22  H   UNL     1       9.264   9.072  -0.018  0.00  0.00    +0.155 HD
BRANCH  21  23
ATOM     23  C   UNL     1      11.197   8.381  -0.047  0.00  0.00    +0.090 A 
ATOM     24  C   UNL     1      11.959   9.535  -0.039  0.00  0.00    +0.084 A 
ATOM     25  C   UNL     1      13.407   9.382  -0.058  0.00  0.00    -0.018 A 
ATOM     26  C   UNL     1      13.821   8.098  -0.088  0.00  0.00    -0.004 A 
ATOM     27  S   UNL     1      12.329   7.143  -0.071  0.00  0.00    -0.077 S 
ATOM     28  C   UNL     1      15.229   7.591  -0.134  0.00  0.00    +0.043 C 
ATOM     29  C   UNL     1      16.055   8.304   0.946  0.00  0.00    +0.005 C 
ATOM     30  C   UNL     1      16.645   9.576   0.346  0.00  0.00    +0.001 C 
ATOM     31  C   UNL     1      15.688  10.165  -0.689  0.00  0.00    +0.005 C 
ATOM     32  C   UNL     1      14.369  10.561  -0.033  0.00  0.00    +0.037 C 
BRANCH  24  33
ATOM     33  C   UNL     1      11.348  10.830  -0.012  0.00  0.00    +0.102 C 
ATOM     34  N   UNL     1      10.864  11.857   0.009  0.00  0.00    -0.191 NA
ENDBRANCH  24  33
ENDBRANCH  21  23
ENDBRANCH  18  19
ENDBRANCH   1  18
TORSDOF 8
