REMARK  Name = ZINC15401579
REMARK  7 active torsions:
REMARK  status: ('A' for Active; 'I' for Inactive)
REMARK    1  A    between atoms: C_1  and  C_2
REMARK    2  A    between atoms: C_2  and  C_4
REMARK    3  A    between atoms: C_2  and  N_10
REMARK    4  A    between atoms: C_11  and  C_13
REMARK    5  A    between atoms: C_13  and  C_34
REMARK    6  A    between atoms: N_15  and  C_28
REMARK    7  A    between atoms: C_19  and  C_20
REMARK                            x       y       z     vdW  Elec       q    Type
REMARK                         _______ _______ _______ _____ _____    ______ ____
ROOT
ATOM      1  C   UNL     1       3.739   6.918   0.972  0.00  0.00    +0.144 C 
ATOM      2  C   UNL     1       3.378   7.654   2.104  0.00  0.00    +0.111 A 
ATOM      3  N   UNL     1       4.120   7.903   3.232  0.00  0.00    -0.269 N 
ATOM      4  C   UNL     1       3.625   8.628   4.221  0.00  0.00    +0.270 A 
ATOM      5  O   UNL     1       4.272   8.861   5.225  0.00  0.00    -0.266 OA
ATOM      6  C   UNL     1       2.250   9.137   4.053  0.00  0.00    +0.079 A 
ATOM      7  C   UNL     1       1.502   9.893   4.897  0.00  0.00    +0.028 C 
ATOM      8  S   UNL     1       1.837   8.491   2.438  0.00  0.00    -0.064 S 
ENDROOT
BRANCH   7   9
ATOM      9  C   UNL     1       1.984  10.172   6.256  0.00  0.00    -0.024 A 
ATOM     10  C   UNL     1       2.601   9.164   7.004  0.00  0.00    +0.011 A 
ATOM     11  C   UNL     1       3.056   9.435   8.276  0.00  0.00    +0.039 A 
ATOM     12  C   UNL     1       2.893  10.700   8.820  0.00  0.00    +0.123 A 
ATOM     13  C   UNL     1       2.277  11.703   8.085  0.00  0.00    +0.039 A 
ATOM     14  C   UNL     1       1.823  11.448   6.810  0.00  0.00    +0.011 A 
ATOM     15  F   UNL     1       3.336  10.958  10.070  0.00  0.00    -0.205 F 
ENDBRANCH   7   9
BRANCH   3  16
ATOM     16  C   UNL     1       5.418   7.386   3.335  0.00  0.00    +0.051 A 
ATOM     17  C   UNL     1       5.625   6.133   3.896  0.00  0.00    +0.026 A 
ATOM     18  C   UNL     1       6.905   5.623   3.992  0.00  0.00    +0.002 A 
ATOM     19  C   UNL     1       7.981   6.365   3.539  0.00  0.00    +0.000 A 
ATOM     20  C   UNL     1       7.779   7.615   2.985  0.00  0.00    +0.002 A 
ATOM     21  C   UNL     1       6.500   8.128   2.881  0.00  0.00    +0.026 A 
ENDBRANCH   3  16
BRANCH   1  23
ATOM     22  N   UNL     1       3.113   5.982  -1.186  0.00  0.00    -0.304 N 
ATOM     23  C   UNL     1       2.764   6.691  -0.094  0.00  0.00    +0.257 C 
ATOM     24  O   UNL     1       1.638   7.143   0.005  0.00  0.00    -0.269 OA
ATOM     25  H   UNL     1       4.010   5.622  -1.265  0.00  0.00    +0.150 HD
BRANCH  22  27
ATOM     26  C   UNL     1       2.138   6.950  -3.210  0.00  0.00    +0.033 C 
ATOM     27  C   UNL     1       2.136   5.755  -2.254  0.00  0.00    +0.100 C 
BRANCH  27  28
ATOM     28  C   UNL     1       2.502   4.505  -3.012  0.00  0.00    -0.027 A 
ATOM     29  C   UNL     1       1.513   3.631  -3.423  0.00  0.00    +0.005 A 
ATOM     30  C   UNL     1       1.849   2.485  -4.119  0.00  0.00    +0.000 A 
ATOM     31  C   UNL     1       3.174   2.212  -4.403  0.00  0.00    +0.000 A 
ATOM     32  C   UNL     1       4.163   3.086  -3.992  0.00  0.00    +0.000 A 
ATOM     33  C   UNL     1       3.827   4.232  -3.296  0.00  0.00    +0.005 A 
ENDBRANCH  27  28
ENDBRANCH  22  27
ENDBRANCH   1  23
BRANCH   1  34
ATOM     34  C   UNL     1       5.064   6.387   0.855  0.00  0.00    +0.107 C 
ATOM     35  N   UNL     1       6.115   5.966   0.763  0.00  0.00    -0.191 NA
ENDBRANCH   1  34
TORSDOF 6
