REMARK  Name = ZINC36307678
REMARK  14 active torsions:
REMARK  status: ('A' for Active; 'I' for Inactive)
REMARK    1  A    between atoms: C_1  and  C_2
REMARK    2  A    between atoms: C_2  and  C_3
REMARK    3  A    between atoms: C_3  and  N_4
REMARK    4  A    between atoms: N_4  and  C_5
REMARK    5  A    between atoms: N_4  and  C_26
REMARK    6  A    between atoms: C_5  and  C_6
REMARK    7  A    between atoms: C_7  and  C_20
REMARK    8  A    between atoms: N_9  and  C_19
REMARK    9  A    between atoms: C_10  and  O_11
REMARK   10  A    between atoms: O_11  and  C_12
REMARK   11  A    between atoms: C_26  and  C_27
REMARK   12  A    between atoms: C_27  and  C_29
REMARK   13  A    between atoms: C_27  and  O_36
REMARK   14  A    between atoms: C_29  and  C_30
REMARK                            x       y       z     vdW  Elec       q    Type
REMARK                         _______ _______ _______ _____ _____    ______ ____
ROOT
ATOM      1  C   UNL     1       0.607  -1.673  -1.034  0.00  0.00    +0.025 A 
ATOM      2  C   UNL     1      -0.243  -2.424  -1.867  0.00  0.00    +0.098 A 
ATOM      3  N   UNL     1      -0.503  -1.708  -2.939  0.00  0.00    -0.168 NA
ATOM      4  N   UNL     1       0.170  -0.485  -2.825  0.00  0.00    -0.235 N 
ATOM      5  C   UNL     1       0.840  -0.483  -1.644  0.00  0.00    +0.221 A 
ATOM      6  C   UNL     1       0.148   0.605  -3.804  0.00  0.00    +0.176 C 
ENDROOT
BRANCH   2   7
ATOM      7  C   UNL     1      -0.757  -3.788  -1.584  0.00  0.00    +0.002 A 
ATOM      8  C   UNL     1       0.093  -4.761  -1.064  0.00  0.00    +0.010 A 
ATOM      9  C   UNL     1      -0.391  -6.027  -0.803  0.00  0.00    +0.001 A 
ATOM     10  C   UNL     1      -1.716  -6.330  -1.056  0.00  0.00    +0.000 A 
ATOM     11  C   UNL     1      -2.564  -5.367  -1.573  0.00  0.00    +0.001 A 
ATOM     12  C   UNL     1      -2.093  -4.096  -1.832  0.00  0.00    +0.010 A 
ENDBRANCH   2   7
BRANCH   1  13
ATOM     13  C   UNL     1       1.156  -2.109   0.301  0.00  0.00    -0.035 C 
BRANCH  13  14
ATOM     14  N   UNL     1       0.312  -1.571   1.376  0.00  0.00    +0.384 N 
ATOM     15  H   UNL     1       0.232  -0.570   1.272  0.00  0.00    -0.081 HD
BRANCH  14  16
ATOM     16  C   UNL     1       0.921  -1.881   2.677  0.00  0.00    -0.079 C 
BRANCH  16  18
ATOM     17  C   UNL     1       2.820  -1.353   4.212  0.00  0.00    +0.002 C 
ATOM     18  C   UNL     1       2.249  -1.133   2.810  0.00  0.00    -0.022 C 
ENDBRANCH  16  18
ENDBRANCH  14  16
BRANCH  14  19
ATOM     19  C   UNL     1      -1.023  -2.179   1.303  0.00  0.00    -0.046 C 
BRANCH  19  20
ATOM     20  C   UNL     1      -1.937  -1.529   2.343  0.00  0.00    +0.102 C 
BRANCH  20  21
ATOM     21  O   UNL     1      -2.131  -0.152   2.013  0.00  0.00    -0.393 OA
ATOM     22  H   UNL     1      -2.536  -0.008   1.147  0.00  0.00    +0.210 HD
ENDBRANCH  20  21
BRANCH  20  23
ATOM     23  C   UNL     1      -3.289  -2.245   2.352  0.00  0.00    +0.064 C 
BRANCH  23  24
ATOM     24  C   UNL     1      -4.146  -1.687   3.459  0.00  0.00    -0.045 A 
ATOM     25  C   UNL     1      -4.095  -2.246   4.722  0.00  0.00    +0.004 A 
ATOM     26  C   UNL     1      -4.881  -1.734   5.737  0.00  0.00    +0.000 A 
ATOM     27  C   UNL     1      -5.718  -0.661   5.489  0.00  0.00    +0.000 A 
ATOM     28  C   UNL     1      -5.768  -0.102   4.226  0.00  0.00    +0.000 A 
ATOM     29  C   UNL     1      -4.979  -0.611   3.212  0.00  0.00    +0.004 A 
ENDBRANCH  23  24
ENDBRANCH  20  23
ENDBRANCH  19  20
ENDBRANCH  14  19
ENDBRANCH  13  14
ENDBRANCH   1  13
BRANCH   5  30
ATOM     30  O   UNL     1       1.608   0.527  -1.161  0.00  0.00    -0.438 OA
BRANCH  30  31
ATOM     31  C   UNL     1       2.908   0.585  -1.555  0.00  0.00    +0.131 A 
ATOM     32  C   UNL     1       3.385  -0.304  -2.508  0.00  0.00    +0.049 A 
ATOM     33  C   UNL     1       4.706  -0.245  -2.908  0.00  0.00    +0.042 A 
ATOM     34  C   UNL     1       5.554   0.701  -2.357  0.00  0.00    +0.124 A 
ATOM     35  C   UNL     1       5.080   1.589  -1.406  0.00  0.00    +0.042 A 
ATOM     36  C   UNL     1       3.758   1.536  -1.010  0.00  0.00    +0.049 A 
ATOM     37  F   UNL     1       6.846   0.758  -2.748  0.00  0.00    -0.205 F 
ENDBRANCH  30  31
ENDBRANCH   5  30
TORSDOF 12
