REMARK  Name = ZINC58970350
REMARK  7 active torsions:
REMARK  status: ('A' for Active; 'I' for Inactive)
REMARK    1  A    between atoms: N_9  and  C_10
REMARK    2  A    between atoms: C_10  and  C_11
REMARK    3  A    between atoms: C_16  and  N_17
REMARK    4  A    between atoms: C_18  and  C_20
REMARK    5  A    between atoms: C_20  and  C_21
REMARK    6  A    between atoms: C_21  and  C_22
REMARK    7  A    between atoms: C_22  and  N_23
REMARK                            x       y       z     vdW  Elec       q    Type
REMARK                         _______ _______ _______ _____ _____    ______ ____
ROOT
ATOM      1  C   UNL     1       5.414  -0.283   1.371  0.00  0.00    -0.009 A 
ATOM      2  C   UNL     1       5.492   0.963   1.962  0.00  0.00    +0.007 A 
ATOM      3  C   UNL     1       5.953   1.088   3.259  0.00  0.00    +0.000 A 
ATOM      4  C   UNL     1       6.337  -0.035   3.970  0.00  0.00    +0.002 A 
ATOM      5  C   UNL     1       6.261  -1.284   3.386  0.00  0.00    +0.023 A 
ATOM      6  C   UNL     1       5.793  -1.412   2.084  0.00  0.00    +0.038 A 
ENDROOT
BRANCH   6   7
ATOM      7  N   UNL     1       5.710  -2.677   1.491  0.00  0.00    -0.285 N 
ATOM      8  C   UNL     1       5.588  -3.776   2.262  0.00  0.00    +0.217 C 
ATOM      9  O   UNL     1       5.449  -3.663   3.462  0.00  0.00    -0.275 OA
ATOM     10  H   UNL     1       5.740  -2.763   0.525  0.00  0.00    +0.155 HD
BRANCH   8  11
ATOM     11  C   UNL     1       5.623  -5.145   1.633  0.00  0.00    +0.097 C 
BRANCH  11  12
ATOM     12  C   UNL     1       5.465  -6.210   2.720  0.00  0.00    +0.028 C 
BRANCH  12  13
ATOM     13  C   UNL     1       5.501  -7.600   2.081  0.00  0.00    +0.111 C 
BRANCH  13  14
ATOM     14  N   UNL     1       5.349  -8.620   3.122  0.00  0.00    -0.264 N 
ATOM     15  C   UNL     1       6.442  -9.255   3.885  0.00  0.00    +0.152 C 
ATOM     16  C   UNL     1       5.680  -9.922   5.054  0.00  0.00    +0.253 C 
ATOM     17  O   UNL     1       4.361 -10.087   4.498  0.00  0.00    -0.449 OA
ATOM     18  C   UNL     1       4.187  -9.141   3.559  0.00  0.00    +0.403 C 
ATOM     19  O   UNL     1       3.098  -8.796   3.146  0.00  0.00    -0.226 OA
ENDBRANCH  13  14
ENDBRANCH  12  13
ENDBRANCH  11  12
ENDBRANCH   8  11
ENDBRANCH   6   7
BRANCH   1  20
ATOM     20  C   UNL     1       4.911  -0.418  -0.043  0.00  0.00    +0.142 C 
BRANCH  20  29
ATOM     21  C   UNL     1       0.003   1.417   0.040  0.00  0.00    +0.000 A 
ATOM     22  C   UNL     1       1.198   2.113   0.027  0.00  0.00    +0.002 A 
ATOM     23  C   UNL     1       2.397   1.434   0.005  0.00  0.00    +0.023 A 
ATOM     24  C   UNL     1       2.415   0.037  -0.004  0.00  0.00    +0.033 A 
ATOM     25  C   UNL     1       1.212  -0.651   0.010  0.00  0.00    -0.025 A 
ATOM     26  C   UNL     1       0.013   0.034   0.031  0.00  0.00    +0.005 A 
ATOM     27  C   UNL     1       1.507  -2.135  -0.003  0.00  0.00    +0.056 C 
ATOM     28  C   UNL     1       3.042  -2.223  -0.025  0.00  0.00    +0.110 C 
ATOM     29  N   UNL     1       3.506  -0.833  -0.024  0.00  0.00    -0.325 N 
ENDBRANCH  20  29
ENDBRANCH   1  20
TORSDOF 7
