REMARK  Name = ZINC09373012
REMARK  9 active torsions:
REMARK  status: ('A' for Active; 'I' for Inactive)
REMARK    1  A    between atoms: C_1  and  C_2
REMARK    2  A    between atoms: C_4  and  N_31
REMARK    3  A    between atoms: C_5  and  O_29
REMARK    4  A    between atoms: C_7  and  N_8
REMARK    5  A    between atoms: C_9  and  C_11
REMARK    6  A    between atoms: C_11  and  O_12
REMARK    7  A    between atoms: O_12  and  C_13
REMARK    8  A    between atoms: C_13  and  C_15
REMARK    9  A    between atoms: O_29  and  C_30
REMARK                            x       y       z     vdW  Elec       q    Type
REMARK                         _______ _______ _______ _____ _____    ______ ____
ROOT
ATOM      1  C   UNL     1       1.269   2.015  -0.014  0.00  0.00    +0.328 C 
ENDROOT
BRANCH   1   3
ATOM      2  N   UNL     1       2.108   4.341   0.005  0.00  0.00    -0.282 N 
ATOM      3  C   UNL     1       1.051   3.506   0.008  0.00  0.00    +0.255 C 
ATOM      4  O   UNL     1      -0.076   3.954   0.028  0.00  0.00    -0.272 OA
ATOM      5  H   UNL     1       3.008   3.985   0.070  0.00  0.00    +0.155 HD
BRANCH   2  12
ATOM      6  C   UNL     1       4.111   6.064   1.060  0.00  0.00    +0.046 C 
ATOM      7  C   UNL     1       2.861   6.600   0.411  0.00  0.00    -0.027 A 
ATOM      8  C   UNL     1       2.665   7.964   0.311  0.00  0.00    +0.041 A 
ATOM      9  C   UNL     1       1.517   8.459  -0.278  0.00  0.00    +0.168 A 
ATOM     10  C   UNL     1       0.560   7.587  -0.776  0.00  0.00    +0.152 A 
ATOM     11  C   UNL     1       0.755   6.218  -0.683  0.00  0.00    +0.071 A 
ATOM     12  C   UNL     1       1.908   5.723  -0.091  0.00  0.00    +0.040 A 
BRANCH   9  13
ATOM     13  N   UNL     1       1.309   9.921  -0.378  0.00  0.00    +0.060 N 
ATOM     14  O   UNL     1       2.149  10.687   0.060  0.00  0.00    -0.126 OA
ATOM     15  O   UNL     1       0.298  10.358  -0.897  0.00  0.00    -0.126 OA
ENDBRANCH   9  13
BRANCH  10  16
ATOM     16  O   UNL     1      -0.569   8.075  -1.356  0.00  0.00    -0.493 OA
ATOM     17  C   UNL     1      -1.511   7.120  -1.847  0.00  0.00    +0.277 C 
ENDBRANCH  10  16
ENDBRANCH   2  12
ENDBRANCH   1   3
BRANCH   1  18
ATOM     18  O   UNL     1      -0.016   1.338  -0.007  0.00  0.00    -0.455 OA
BRANCH  18  19
ATOM     19  C   UNL     1       0.003  -0.004  -0.024  0.00  0.00    +0.320 C 
ATOM     20  O   UNL     1       1.057  -0.594  -0.045  0.00  0.00    -0.250 OA
BRANCH  19  21
ATOM     21  C   UNL     1      -1.292  -0.776  -0.018  0.00  0.00    +0.165 C 
ATOM     22  C   UNL     1      -2.072  -0.426   1.220  0.00  0.00    +0.013 A 
ATOM     23  C   UNL     1      -2.767   0.770   1.270  0.00  0.00    +0.008 A 
ATOM     24  C   UNL     1      -3.490   1.108   2.398  0.00  0.00    +0.001 A 
ATOM     25  C   UNL     1      -3.522   0.251   3.482  0.00  0.00    +0.004 A 
ATOM     26  C   UNL     1      -2.831  -0.943   3.438  0.00  0.00    +0.046 A 
ATOM     27  C   UNL     1      -2.103  -1.287   2.305  0.00  0.00    +0.133 A 
ATOM     28  O   UNL     1      -1.432  -2.463   2.281  0.00  0.00    -0.455 OA
ATOM     29  C   UNL     1      -1.076  -3.017   1.097  0.00  0.00    +0.133 A 
ATOM     30  C   UNL     1      -0.992  -2.250  -0.053  0.00  0.00    +0.013 A 
ATOM     31  C   UNL     1      -0.627  -2.840  -1.250  0.00  0.00    +0.008 A 
ATOM     32  C   UNL     1      -0.348  -4.192  -1.302  0.00  0.00    +0.001 A 
ATOM     33  C   UNL     1      -0.431  -4.961  -0.156  0.00  0.00    +0.004 A 
ATOM     34  C   UNL     1      -0.794  -4.378   1.041  0.00  0.00    +0.046 A 
ENDBRANCH  19  21
ENDBRANCH  18  19
ENDBRANCH   1  18
TORSDOF 7
