REMARK  Name = ZINC12218345
REMARK  8 active torsions:
REMARK  status: ('A' for Active; 'I' for Inactive)
REMARK    1  A    between atoms: C_4  and  C_7
REMARK    2  A    between atoms: C_8  and  C_9
REMARK    3  A    between atoms: C_9  and  N_56
REMARK    4  A    between atoms: C_11  and  N_30
REMARK    5  A    between atoms: C_14  and  C_16
REMARK    6  A    between atoms: N_18  and  C_19
REMARK    7  A    between atoms: C_19  and  C_20
REMARK    8  A    between atoms: C_24  and  C_26
REMARK                            x       y       z     vdW  Elec       q    Type
REMARK                         _______ _______ _______ _____ _____    ______ ____
ROOT
ATOM      1  C   UNL     1       1.175   2.096   0.051  0.00  0.00    -0.050 C 
ATOM      2  C   UNL     1       0.885   3.218   1.064  0.00  0.00    +0.093 C 
ATOM      3  C   UNL     1      -0.595   3.025   1.468  0.00  0.00    +0.019 C 
ATOM      4  C   UNL     1      -0.856   1.537   1.125  0.00  0.00    +0.022 C 
ATOM      5  N   UNL     1      -0.083   1.358  -0.109  0.00  0.00    +0.391 N 
ATOM      6  H   UNL     1      -0.610   1.737  -0.905  0.00  0.00    -0.080 HD
ENDROOT
BRANCH   2   7
ATOM      7  N   UNL     1       1.756   3.085   2.235  0.00  0.00    -0.231 N 
ATOM      8  C   UNL     1       2.162   1.934   2.802  0.00  0.00    +0.245 A 
ATOM      9  N   UNL     1       2.925   2.262   3.815  0.00  0.00    -0.117 NA
ATOM     10  N   UNL     1       2.979   3.548   3.872  0.00  0.00    -0.023 NA
ATOM     11  N   UNL     1       2.273   4.048   2.919  0.00  0.00    -0.044 NA
ENDBRANCH   2   7
BRANCH   4  12
ATOM     12  C   UNL     1      -2.324   1.295   0.887  0.00  0.00    +0.200 C 
ATOM     13  O   UNL     1      -2.766   1.316  -0.242  0.00  0.00    -0.278 OA
ATOM     14  N   UNL     1      -3.146   1.056   1.928  0.00  0.00    -0.313 N 
ATOM     15  H   UNL     1      -2.792   1.040   2.831  0.00  0.00    +0.149 HD
BRANCH  14  16
ATOM     16  C   UNL     1      -4.573   0.822   1.696  0.00  0.00    +0.139 C 
BRANCH  16  17
ATOM     17  C   UNL     1      -5.263   0.582   3.014  0.00  0.00    -0.030 A 
ATOM     18  C   UNL     1      -5.790   1.646   3.722  0.00  0.00    +0.005 A 
ATOM     19  C   UNL     1      -6.423   1.425   4.931  0.00  0.00    +0.001 A 
ATOM     20  C   UNL     1      -6.530   0.141   5.431  0.00  0.00    +0.012 A 
ATOM     21  C   UNL     1      -6.005  -0.923   4.722  0.00  0.00    +0.055 A 
ATOM     22  C   UNL     1      -5.375  -0.703   3.511  0.00  0.00    +0.017 A 
BRANCH  21  23
ATOM     23  C   UNL     1      -6.122  -2.323   5.267  0.00  0.00    +0.417 C 
ATOM     24  F   UNL     1      -6.797  -2.291   6.493  0.00  0.00    -0.166 F 
ATOM     25  F   UNL     1      -6.836  -3.117   4.363  0.00  0.00    -0.166 F 
ATOM     26  F   UNL     1      -4.844  -2.860   5.452  0.00  0.00    -0.166 F 
ENDBRANCH  21  23
ENDBRANCH  16  17
ENDBRANCH  14  16
ENDBRANCH   4  12
BRANCH   5  27
ATOM     27  C   UNL     1       0.194  -0.090  -0.351  0.00  0.00    -0.050 C 
BRANCH  27  29
ATOM     28  C   UNL     1       0.278  -1.721   1.482  0.00  0.00    +0.002 C 
ATOM     29  C   UNL     1       0.834  -0.679   0.879  0.00  0.00    -0.045 C 
BRANCH  28  33
ATOM     30  C   UNL     1       2.082  -3.381   4.950  0.00  0.00    +0.000 A 
ATOM     31  C   UNL     1       0.914  -3.930   4.452  0.00  0.00    +0.001 A 
ATOM     32  C   UNL     1       0.323  -3.395   3.325  0.00  0.00    +0.008 A 
ATOM     33  C   UNL     1       0.906  -2.299   2.689  0.00  0.00    -0.025 A 
ATOM     34  C   UNL     1       2.087  -1.753   3.193  0.00  0.00    +0.008 A 
ATOM     35  C   UNL     1       2.665  -2.294   4.323  0.00  0.00    +0.001 A 
ENDBRANCH  28  33
ENDBRANCH  27  29
ENDBRANCH   5  27
TORSDOF 8
