REMARK  Name = ZINC57138402
REMARK  4 active torsions:
REMARK  status: ('A' for Active; 'I' for Inactive)
REMARK    1  A    between atoms: C_5  and  C_7
REMARK    2  A    between atoms: N_16  and  C_17
REMARK    3  A    between atoms: C_17  and  C_18
REMARK    4  A    between atoms: C_21  and  N_24
REMARK                            x       y       z     vdW  Elec       q    Type
REMARK                         _______ _______ _______ _____ _____    ______ ____
ROOT
ATOM      1  C   UNL     1       1.249  -2.160  -0.022  0.00  0.00    +0.188 A 
ATOM      2  N   UNL     1       2.327  -2.923  -0.032  0.00  0.00    -0.127 NA
ATOM      3  N   UNL     1       1.989  -4.165  -0.037  0.00  0.00    -0.128 NA
ATOM      4  C   UNL     1       0.668  -4.266  -0.031  0.00  0.00    +0.178 A 
ATOM      5  N   UNL     1       0.166  -2.988  -0.016  0.00  0.00    -0.191 N 
ATOM      6  N   UNL     1      -1.214  -2.777  -0.001  0.00  0.00    -0.148 NA
ATOM      7  C   UNL     1      -2.043  -3.795   0.002  0.00  0.00    +0.140 A 
ATOM      8  C   UNL     1      -1.561  -5.118  -0.010  0.00  0.00    +0.049 A 
ATOM      9  C   UNL     1      -0.223  -5.356  -0.032  0.00  0.00    +0.053 A 
ATOM     10  N   UNL     1      -3.415  -3.563   0.016  0.00  0.00    -0.324 N 
ATOM     11  H   UNL     1      -4.033  -4.311   0.018  0.00  0.00    +0.148 HD
ENDROOT
BRANCH   1  16
ATOM     12  C   UNL     1      -0.017   1.375   0.010  0.00  0.00    +0.001 A 
ATOM     13  C   UNL     1       1.170   2.087   0.002  0.00  0.00    +0.003 A 
ATOM     14  C   UNL     1       2.383   1.423  -0.013  0.00  0.00    +0.039 A 
ATOM     15  C   UNL     1       2.417   0.042  -0.021  0.00  0.00    +0.134 A 
ATOM     16  C   UNL     1       1.222  -0.683  -0.013  0.00  0.00    +0.056 A 
ATOM     17  C   UNL     1       0.002  -0.004   0.002  0.00  0.00    +0.014 A 
ATOM     18  F   UNL     1       3.602  -0.607  -0.037  0.00  0.00    -0.205 F 
ENDBRANCH   1  16
BRANCH  10  19
ATOM     19  C   UNL     1      -3.926  -2.190   0.029  0.00  0.00    +0.138 C 
BRANCH  19  20
ATOM     20  C   UNL     1      -5.432  -2.215   0.044  0.00  0.00    -0.030 A 
ATOM     21  C   UNL     1      -6.134  -2.226  -1.148  0.00  0.00    +0.007 A 
ATOM     22  C   UNL     1      -7.515  -2.248  -1.138  0.00  0.00    +0.023 A 
ATOM     23  C   UNL     1      -8.199  -2.261   0.070  0.00  0.00    +0.030 A 
ATOM     24  C   UNL     1      -7.491  -2.250   1.266  0.00  0.00    +0.023 A 
ATOM     25  C   UNL     1      -6.110  -2.233   1.249  0.00  0.00    +0.007 A 
BRANCH  23  26
ATOM     26  N   UNL     1      -9.595  -2.283   0.084  0.00  0.00    -0.330 N 
ATOM     27  C   UNL     1     -10.464  -2.303  -1.102  0.00  0.00    +0.105 C 
ATOM     28  C   UNL     1     -11.924  -2.298  -0.602  0.00  0.00    +0.020 C 
ATOM     29  C   UNL     1     -11.799  -1.705   0.827  0.00  0.00    +0.020 C 
ATOM     30  C   UNL     1     -10.443  -2.298   1.290  0.00  0.00    +0.105 C 
ENDBRANCH  23  26
ENDBRANCH  19  20
ENDBRANCH  10  19
TORSDOF 4
