REMARK  Name = ZINC08450706
REMARK  6 active torsions:
REMARK  status: ('A' for Active; 'I' for Inactive)
REMARK    1  A    between atoms: C_1  and  C_2
REMARK    2  A    between atoms: C_4  and  C_33
REMARK    3  A    between atoms: C_8  and  N_32
REMARK    4  A    between atoms: C_9  and  C_11
REMARK    5  A    between atoms: C_14  and  C_26
REMARK    6  A    between atoms: C_17  and  C_19
REMARK                            x       y       z     vdW  Elec       q    Type
REMARK                         _______ _______ _______ _____ _____    ______ ____
ROOT
ATOM      1  C   UNL     1       1.431  -0.812   4.710  0.00  0.00    +0.275 C 
ATOM      2  O   UNL     1       1.526   0.340   5.092  0.00  0.00    -0.268 OA
ATOM      3  N   UNL     1       1.919  -1.815   5.466  0.00  0.00    -0.181 N 
ATOM      4  C   UNL     1       2.583  -1.659   6.770  0.00  0.00    +0.137 C 
ATOM      5  C   UNL     1       2.930  -3.106   7.175  0.00  0.00    +0.087 C 
ATOM      6  C   UNL     1       2.412  -3.940   6.025  0.00  0.00    +0.069 C 
ATOM      7  N   UNL     1       1.873  -3.170   5.144  0.00  0.00    -0.181 NA
ENDROOT
BRANCH   1  16
ATOM      8  C   UNL     1      -1.076   1.449   0.325  0.00  0.00    +0.044 C 
ATOM      9  C   UNL     1      -0.958  -0.052   0.288  0.00  0.00    -0.037 A 
ATOM     10  C   UNL     1      -1.448  -0.765  -0.782  0.00  0.00    +0.025 A 
ATOM     11  C   UNL     1      -1.338  -2.147  -0.814  0.00  0.00    +0.014 A 
ATOM     12  N   UNL     1      -0.763  -2.795   0.181  0.00  0.00    -0.353 N 
ATOM     13  C   UNL     1      -0.279  -2.159   1.225  0.00  0.00    +0.088 A 
ATOM     14  C   UNL     1      -0.336  -0.752   1.352  0.00  0.00    +0.030 A 
ATOM     15  C   UNL     1       0.253  -0.216   2.569  0.00  0.00    +0.054 A 
ATOM     16  C   UNL     1       0.807  -1.099   3.471  0.00  0.00    +0.099 A 
ATOM     17  S   UNL     1       0.539  -2.688   2.710  0.00  0.00    -0.064 S 
ATOM     18  C   UNL     1      -1.879  -2.913  -1.993  0.00  0.00    +0.063 C 
ATOM     19  H   UNL     1      -0.695  -3.761   0.141  0.00  0.00    +0.166 HD
BRANCH  15  20
ATOM     20  N   UNL     1       0.258   1.150   2.816  0.00  0.00    -0.356 N 
ATOM     21  H   UNL     1       0.106   1.774   2.090  0.00  0.00    +0.142 HD
ATOM     22  H   UNL     1       0.413   1.480   3.715  0.00  0.00    +0.142 HD
ENDBRANCH  15  20
ENDBRANCH   1  16
BRANCH   6  23
ATOM     23  C   UNL     1       2.502  -5.409   5.931  0.00  0.00    -0.002 A 
ATOM     24  C   UNL     1       3.101  -6.142   6.959  0.00  0.00    +0.011 A 
ATOM     25  C   UNL     1       3.182  -7.515   6.864  0.00  0.00    +0.020 A 
ATOM     26  C   UNL     1       2.673  -8.168   5.754  0.00  0.00    +0.041 A 
ATOM     27  C   UNL     1       2.079  -7.447   4.731  0.00  0.00    +0.020 A 
ATOM     28  C   UNL     1       1.986  -6.073   4.816  0.00  0.00    +0.011 A 
ATOM     29 CL   UNL     1       2.781  -9.897   5.643  0.00  0.00    -0.084 Cl
ENDBRANCH   6  23
BRANCH   4  30
ATOM     30  C   UNL     1       3.833  -0.829   6.633  0.00  0.00    -0.025 A 
ATOM     31  C   UNL     1       4.641  -0.974   5.521  0.00  0.00    +0.005 A 
ATOM     32  C   UNL     1       5.788  -0.212   5.396  0.00  0.00    +0.000 A 
ATOM     33  C   UNL     1       6.126   0.696   6.382  0.00  0.00    +0.000 A 
ATOM     34  C   UNL     1       5.317   0.842   7.494  0.00  0.00    +0.000 A 
ATOM     35  C   UNL     1       4.168   0.083   7.617  0.00  0.00    +0.005 A 
ENDBRANCH   4  30
TORSDOF 4
