REMARK  Name = ZINC21604296
REMARK  15 active torsions:
REMARK  status: ('A' for Active; 'I' for Inactive)
REMARK    1  A    between atoms: C_1  and  C_2
REMARK    2  A    between atoms: C_2  and  C_4
REMARK    3  A    between atoms: C_2  and  S_13
REMARK    4  A    between atoms: N_6  and  C_7
REMARK    5  A    between atoms: N_6  and  C_10
REMARK    6  A    between atoms: C_7  and  C_8
REMARK    7  A    between atoms: C_7  and  C_9
REMARK    8  A    between atoms: C_10  and  C_11
REMARK    9  A    between atoms: C_10  and  C_12
REMARK   10  A    between atoms: S_13  and  C_14
REMARK   11  A    between atoms: C_17  and  C_29
REMARK   12  A    between atoms: N_18  and  C_19
REMARK   13  A    between atoms: C_22  and  O_25
REMARK   14  A    between atoms: O_25  and  C_26
REMARK   15  A    between atoms: C_29  and  N_30
REMARK                            x       y       z     vdW  Elec       q    Type
REMARK                         _______ _______ _______ _____ _____    ______ ____
ROOT
ATOM      1  C   UNL     1       2.976  -0.770   0.103  0.00  0.00    +0.197 A 
ATOM      2  N   UNL     1       3.268   0.012  -0.910  0.00  0.00    -0.122 NA
ATOM      3  N   UNL     1       4.544   0.129  -1.019  0.00  0.00    -0.135 NA
ATOM      4  C   UNL     1       5.139  -0.564  -0.090  0.00  0.00    +0.122 A 
ATOM      5  N   UNL     1       4.162  -1.158   0.664  0.00  0.00    -0.276 N 
ENDROOT
BRANCH   5   6
ATOM      6  C   UNL     1       4.340  -1.994   1.777  0.00  0.00    +0.050 A 
ATOM      7  C   UNL     1       4.900  -1.489   2.942  0.00  0.00    +0.030 A 
ATOM      8  C   UNL     1       5.075  -2.312   4.037  0.00  0.00    +0.048 A 
ATOM      9  C   UNL     1       4.692  -3.644   3.973  0.00  0.00    +0.127 A 
ATOM     10  C   UNL     1       4.132  -4.149   2.808  0.00  0.00    +0.048 A 
ATOM     11  C   UNL     1       3.950  -3.325   1.715  0.00  0.00    +0.030 A 
BRANCH   9  12
ATOM     12  O   UNL     1       4.865  -4.454   5.051  0.00  0.00    -0.434 OA
BRANCH  12  13
ATOM     13  C   UNL     1       4.448  -5.814   4.914  0.00  0.00    +0.541 C 
ATOM     14  F   UNL     1       3.079  -5.855   4.629  0.00  0.00    -0.166 F 
ATOM     15  F   UNL     1       5.159  -6.418   3.872  0.00  0.00    -0.166 F 
ENDBRANCH  12  13
ENDBRANCH   9  12
ENDBRANCH   5   6
BRANCH   1  16
ATOM     16  S   UNL     1       1.362  -1.226   0.643  0.00  0.00    -0.073 S 
BRANCH  16  18
ATOM     17  C   UNL     1       0.396   1.133  -0.347  0.00  0.00    +0.029 C 
ATOM     18  C   UNL     1       0.255  -0.381  -0.518  0.00  0.00    +0.137 C 
BRANCH  18  19
ATOM     19  C   UNL     1      -1.169  -0.788  -0.242  0.00  0.00    +0.229 C 
ATOM     20  O   UNL     1      -1.485  -1.175   0.863  0.00  0.00    -0.274 OA
ATOM     21  N   UNL     1      -2.092  -0.721  -1.222  0.00  0.00    -0.296 N 
BRANCH  21  22
ATOM     22  C   UNL     1      -3.477  -1.117  -0.953  0.00  0.00    +0.070 C 
ATOM     23  C   UNL     1      -3.508  -2.571  -0.478  0.00  0.00    +0.028 C 
ATOM     24  C   UNL     1      -4.063  -0.212   0.133  0.00  0.00    +0.028 C 
ENDBRANCH  21  22
BRANCH  21  25
ATOM     25  C   UNL     1      -1.710  -0.253  -2.557  0.00  0.00    +0.070 C 
ATOM     26  C   UNL     1      -1.937  -1.373  -3.574  0.00  0.00    +0.028 C 
ATOM     27  C   UNL     1      -2.562   0.960  -2.935  0.00  0.00    +0.028 C 
ENDBRANCH  21  25
ENDBRANCH  18  19
ENDBRANCH  16  18
ENDBRANCH   1  16
BRANCH   4  28
ATOM     28  C   UNL     1       6.626  -0.685   0.120  0.00  0.00    -0.001 C 
BRANCH  28  29
ATOM     29  N   UNL     1       7.080   0.376   1.029  0.00  0.00    +0.384 N 
ATOM     30  C   UNL     1       6.874   1.683   0.395  0.00  0.00    -0.078 C 
ATOM     31  C   UNL     1       7.269   2.796   1.368  0.00  0.00    -0.019 C 
ATOM     32  C   UNL     1       8.745   2.636   1.745  0.00  0.00    -0.004 C 
ATOM     33  C   UNL     1       8.963   1.241   2.337  0.00  0.00    -0.019 C 
ATOM     34  C   UNL     1       8.505   0.186   1.328  0.00  0.00    -0.078 C 
ATOM     35  H   UNL     1       6.549   0.333   1.886  0.00  0.00    -0.081 HD
ENDBRANCH  28  29
ENDBRANCH   4  28
TORSDOF 10
