REMARK  Name = ZINC13963414
REMARK  9 active torsions:
REMARK  status: ('A' for Active; 'I' for Inactive)
REMARK    1  A    between atoms: C_1  and  C_2
REMARK    2  A    between atoms: C_2  and  N_3
REMARK    3  A    between atoms: C_7  and  C_31
REMARK    4  A    between atoms: N_12  and  C_13
REMARK    5  A    between atoms: C_13  and  C_15
REMARK    6  A    between atoms: N_20  and  S_22
REMARK    7  A    between atoms: S_22  and  C_25
REMARK    8  A    between atoms: C_31  and  C_32
REMARK    9  A    between atoms: C_31  and  C_33
REMARK                            x       y       z     vdW  Elec       q    Type
REMARK                         _______ _______ _______ _____ _____    ______ ____
ROOT
ATOM      1  C   UNL     1       0.700   9.445   3.909  0.00  0.00    +0.243 C 
ATOM      2  O   UNL     1       1.148   8.587   4.645  0.00  0.00    -0.273 OA
ENDROOT
BRANCH   1  12
ATOM      3  N   UNL     1      -0.732   7.269   1.421  0.00  0.00    -0.321 N 
ATOM      4  C   UNL     1      -0.796   5.896   1.273  0.00  0.00    +0.058 A 
ATOM      5  C   UNL     1      -1.394   5.158   0.239  0.00  0.00    +0.027 A 
ATOM      6  C   UNL     1      -1.361   3.784   0.247  0.00  0.00    +0.006 A 
ATOM      7  C   UNL     1      -0.749   3.086   1.275  0.00  0.00    -0.044 A 
ATOM      8  C   UNL     1      -0.152   3.788   2.307  0.00  0.00    +0.021 A 
ATOM      9  C   UNL     1      -0.180   5.163   2.298  0.00  0.00    +0.039 A 
ATOM     10  S   UNL     1       0.440   6.423   3.384  0.00  0.00    -0.052 S 
ATOM     11  C   UNL     1      -0.105   7.811   2.498  0.00  0.00    +0.166 A 
ATOM     12  N   UNL     1       0.052   9.097   2.801  0.00  0.00    -0.156 NA
BRANCH   7  13
ATOM     13  C   UNL     1      -0.729   1.579   1.267  0.00  0.00    +0.013 C 
ATOM     14  C   UNL     1      -0.013   1.086   0.008  0.00  0.00    +0.012 C 
ATOM     15  C   UNL     1      -2.164   1.050   1.278  0.00  0.00    +0.012 C 
ENDBRANCH   7  13
BRANCH   3  17
ATOM     16  C   UNL     1      -2.794   8.426   0.795  0.00  0.00    +0.027 C 
ATOM     17  C   UNL     1      -1.340   8.142   0.413  0.00  0.00    +0.121 C 
ENDBRANCH   3  17
ENDBRANCH   1  12
BRANCH   1  18
ATOM     18  C   UNL     1       0.878  10.901   4.252  0.00  0.00    +0.093 C 
ATOM     19  C   UNL     1       1.658  11.597   3.134  0.00  0.00    +0.015 C 
ATOM     20  C   UNL     1       1.812  13.083   3.466  0.00  0.00    +0.018 C 
ATOM     21  C   UNL     1       2.600  13.232   4.771  0.00  0.00    +0.109 C 
ATOM     22  N   UNL     1       1.934  12.446   5.818  0.00  0.00    -0.175 NA
ATOM     23  C   UNL     1       1.656  11.025   5.566  0.00  0.00    +0.122 C 
BRANCH  22  24
ATOM     24  S   UNL     1       1.505  13.147   7.256  0.00  0.00    +0.067 S 
ATOM     25  O   UNL     1       1.426  12.098   8.211  0.00  0.00    -0.152 OA
ATOM     26  O   UNL     1       2.356  14.272   7.429  0.00  0.00    -0.152 OA
BRANCH  24  27
ATOM     27  C   UNL     1      -0.129  13.776   7.062  0.00  0.00    +0.144 A 
ATOM     28  C   UNL     1      -1.313  13.160   7.294  0.00  0.00    +0.038 A 
ATOM     29  C   UNL     1      -2.487  13.858   7.074  0.00  0.00    +0.030 A 
ATOM     30  C   UNL     1      -2.417  15.135   6.622  0.00  0.00    +0.080 A 
ATOM     31  S   UNL     1      -0.653  15.388   6.502  0.00  0.00    -0.057 S 
ATOM     32 CL   UNL     1      -3.706  16.238   6.254  0.00  0.00    -0.076 Cl
ENDBRANCH  24  27
ENDBRANCH  22  24
ENDBRANCH   1  18
TORSDOF 6
