REMARK  Name = ZINC13641145
REMARK  12 active torsions:
REMARK  status: ('A' for Active; 'I' for Inactive)
REMARK    1  A    between atoms: C_1  and  C_2
REMARK    2  A    between atoms: C_6  and  C_40
REMARK    3  A    between atoms: C_7  and  N_8
REMARK    4  A    between atoms: N_8  and  S_9
REMARK    5  A    between atoms: S_9  and  C_12
REMARK    6  A    between atoms: C_25  and  C_28
REMARK    7  A    between atoms: C_30  and  O_38
REMARK    8  A    between atoms: C_31  and  O_36
REMARK    9  A    between atoms: C_32  and  O_34
REMARK   10  A    between atoms: O_34  and  C_35
REMARK   11  A    between atoms: O_36  and  C_37
REMARK   12  A    between atoms: O_38  and  C_39
REMARK                            x       y       z     vdW  Elec       q    Type
REMARK                         _______ _______ _______ _____ _____    ______ ____
ROOT
ATOM      1  C   UNL     1      -2.288  -1.722   0.757  0.00  0.00    +0.109 A 
ATOM      2  C   UNL     1      -3.232  -0.913   0.151  0.00  0.00    +0.030 A 
ATOM      3  C   UNL     1      -2.836   0.072  -0.731  0.00  0.00    +0.025 A 
ATOM      4  C   UNL     1      -1.488   0.258  -1.016  0.00  0.00    +0.031 A 
ATOM      5  C   UNL     1      -0.541  -0.572  -0.407  0.00  0.00    -0.018 A 
ATOM      6  C   UNL     1      -0.946  -1.550   0.476  0.00  0.00    +0.034 A 
ATOM      7  C   UNL     1       0.881  -0.354  -0.753  0.00  0.00    +0.049 C 
ATOM      8  C   UNL     1       1.980  -0.716   0.179  0.00  0.00    -0.023 C 
ATOM      9  C   UNL     1       2.990   0.125  -0.010  0.00  0.00    -0.030 C 
ATOM     10  C   UNL     1       2.621   1.154  -1.081  0.00  0.00    +0.033 C 
ATOM     11  C   UNL     1       1.090   1.174  -0.975  0.00  0.00    +0.029 C 
ATOM     12  C   UNL     1       0.312   1.509  -2.235  0.00  0.00    +0.105 C 
ATOM     13  N   UNL     1      -1.109   1.277  -1.899  0.00  0.00    -0.336 N 
ATOM     14  H   UNL     1      -1.791   1.841  -2.297  0.00  0.00    +0.147 HD
ENDROOT
BRANCH  12  15
ATOM     15  C   UNL     1       0.529   2.952  -2.612  0.00  0.00    -0.020 A 
ATOM     16  C   UNL     1      -0.181   3.947  -1.967  0.00  0.00    +0.055 A 
ATOM     17  C   UNL     1       0.020   5.277  -2.307  0.00  0.00    +0.165 A 
ATOM     18  C   UNL     1       0.928   5.606  -3.307  0.00  0.00    +0.204 A 
ATOM     19  C   UNL     1       1.636   4.602  -3.957  0.00  0.00    +0.165 A 
ATOM     20  C   UNL     1       1.433   3.276  -3.606  0.00  0.00    +0.055 A 
BRANCH  19  21
ATOM     21  O   UNL     1       2.525   4.920  -4.935  0.00  0.00    -0.491 OA
ATOM     22  C   UNL     1       3.216   3.837  -5.561  0.00  0.00    +0.277 C 
ENDBRANCH  19  21
BRANCH  18  23
ATOM     23  O   UNL     1       1.123   6.909  -3.648  0.00  0.00    -0.488 OA
ATOM     24  C   UNL     1       0.291   7.441  -4.680  0.00  0.00    +0.277 C 
ENDBRANCH  18  23
BRANCH  17  25
ATOM     25  O   UNL     1      -0.674   6.255  -1.668  0.00  0.00    -0.491 OA
ATOM     26  C   UNL     1      -1.590   5.843  -0.652  0.00  0.00    +0.277 C 
ENDBRANCH  17  25
ENDBRANCH  12  15
BRANCH   1  27
ATOM     27  S   UNL     1      -2.798  -2.973   1.889  0.00  0.00    +0.072 S 
ATOM     28  O   UNL     1      -1.651  -3.320   2.654  0.00  0.00    -0.150 OA
ATOM     29  O   UNL     1      -4.002  -2.513   2.487  0.00  0.00    -0.150 OA
BRANCH  27  30
ATOM     30  N   UNL     1      -3.193  -4.310   0.996  0.00  0.00    -0.216 N 
ATOM     31  H   UNL     1      -4.111  -4.622   0.970  0.00  0.00    +0.174 HD
BRANCH  30  38
ATOM     32  C   UNL     1      -3.088  -3.947  -1.824  0.00  0.00    +0.046 C 
ATOM     33  C   UNL     1      -2.117  -4.841  -1.098  0.00  0.00    -0.028 A 
ATOM     34  C   UNL     1      -1.135  -5.511  -1.801  0.00  0.00    +0.005 A 
ATOM     35  C   UNL     1      -0.246  -6.336  -1.137  0.00  0.00    +0.001 A 
ATOM     36  C   UNL     1      -0.334  -6.489   0.235  0.00  0.00    +0.005 A 
ATOM     37  C   UNL     1      -1.310  -5.819   0.945  0.00  0.00    -0.028 A 
ATOM     38  C   UNL     1      -2.204  -4.989   0.281  0.00  0.00    +0.054 A 
ATOM     39  C   UNL     1      -1.405  -5.987   2.440  0.00  0.00    +0.046 C 
ENDBRANCH  30  38
ENDBRANCH  27  30
ENDBRANCH   1  27
TORSDOF 7
