REMARK  Name = ZINC63425777
REMARK  15 active torsions:
REMARK  status: ('A' for Active; 'I' for Inactive)
REMARK    1  A    between atoms: C_1  and  C_2
REMARK    2  A    between atoms: C_6  and  N_9
REMARK    3  A    between atoms: C_7  and  C_8
REMARK    4  A    between atoms: C_10  and  C_12
REMARK    5  A    between atoms: C_12  and  S_13
REMARK    6  A    between atoms: S_13  and  C_14
REMARK    7  A    between atoms: C_18  and  C_21
REMARK    8  A    between atoms: C_21  and  C_23
REMARK    9  A    between atoms: C_21  and  N_33
REMARK   10  A    between atoms: C_23  and  C_24
REMARK   11  A    between atoms: C_34  and  O_36
REMARK   12  A    between atoms: O_36  and  C_37
REMARK   13  A    between atoms: C_37  and  C_38
REMARK   14  A    between atoms: C_37  and  C_39
REMARK   15  A    between atoms: C_37  and  C_40
REMARK                            x       y       z     vdW  Elec       q    Type
REMARK                         _______ _______ _______ _____ _____    ______ ____
ROOT
ATOM      1  C   UNL     1       0.922  -5.884   7.913  0.00  0.00    +0.133 C 
ENDROOT
BRANCH   1   5
ATOM      2  C   UNL     1      -0.337  -7.434   4.990  0.00  0.00    +0.319 C 
ATOM      3  N   UNL     1      -1.493  -6.899   5.720  0.00  0.00    -0.146 NA
ATOM      4  N   UNL     1      -1.120  -6.061   6.551  0.00  0.00    -0.155 NA
ATOM      5  C   UNL     1       0.340  -5.913   6.499  0.00  0.00    +0.280 C 
ATOM      6  O   UNL     1       0.814  -7.076   5.784  0.00  0.00    -0.316 OA
BRANCH   2   7
ATOM      7  S   UNL     1      -0.226  -6.677   3.345  0.00  0.00    -0.095 S 
BRANCH   7   8
ATOM      8  C   UNL     1      -0.129  -4.898   3.686  0.00  0.00    +0.169 C 
BRANCH   8  10
ATOM      9  N   UNL     1       0.052  -2.797   2.393  0.00  0.00    -0.285 N 
ATOM     10  C   UNL     1      -0.031  -4.143   2.385  0.00  0.00    +0.227 C 
ATOM     11  O   UNL     1      -0.028  -4.745   1.333  0.00  0.00    -0.275 OA
ATOM     12  H   UNL     1       0.130  -2.321   3.234  0.00  0.00    +0.155 HD
BRANCH   9  18
ATOM     13  C   UNL     1       1.206   1.236  -0.172  0.00  0.00    +0.044 C 
ATOM     14  C   UNL     1       0.577  -0.131  -0.084  0.00  0.00    -0.046 A 
ATOM     15  C   UNL     1      -0.027  -0.686  -1.198  0.00  0.00    +0.004 A 
ATOM     16  C   UNL     1      -0.605  -1.940  -1.122  0.00  0.00    +0.002 A 
ATOM     17  C   UNL     1      -0.580  -2.642   0.067  0.00  0.00    +0.023 A 
ATOM     18  C   UNL     1       0.026  -2.088   1.187  0.00  0.00    +0.037 A 
ATOM     19  C   UNL     1       0.610  -0.831   1.106  0.00  0.00    -0.026 A 
ATOM     20  C   UNL     1       1.274  -0.228   2.317  0.00  0.00    +0.046 C 
ENDBRANCH   9  18
ENDBRANCH   8  10
ENDBRANCH   7   8
ENDBRANCH   2   7
ENDBRANCH   1   5
BRANCH   1  21
ATOM     21  N   UNL     1       2.381  -5.771   7.839  0.00  0.00    -0.274 N 
ATOM     22  C   UNL     1       2.944  -4.707   7.234  0.00  0.00    +0.401 C 
ATOM     23  O   UNL     1       2.243  -3.842   6.750  0.00  0.00    -0.226 OA
ATOM     24  H   UNL     1       2.941  -6.463   8.226  0.00  0.00    +0.152 HD
BRANCH  22  25
ATOM     25  O   UNL     1       4.285  -4.604   7.166  0.00  0.00    -0.445 OA
BRANCH  25  26
ATOM     26  C   UNL     1       4.814  -3.450   6.510  0.00  0.00    +0.107 C 
ATOM     27  C   UNL     1       4.340  -2.189   7.236  0.00  0.00    +0.055 C 
ATOM     28  C   UNL     1       6.343  -3.507   6.531  0.00  0.00    +0.055 C 
ATOM     29  C   UNL     1       4.325  -3.418   5.060  0.00  0.00    +0.055 C 
ENDBRANCH  25  26
ENDBRANCH  22  25
ENDBRANCH   1  21
BRANCH   1  30
ATOM     30  C   UNL     1       0.355  -4.684   8.674  0.00  0.00    +0.060 C 
BRANCH  30  31
ATOM     31  C   UNL     1       0.832  -4.724  10.103  0.00  0.00    -0.040 C 
ATOM     32  C   UNL     1       1.903  -4.082  10.622  0.00  0.00    -0.001 A 
ATOM     33  C   UNL     1       2.908  -3.189  10.033  0.00  0.00    +0.010 A 
ATOM     34  C   UNL     1       3.886  -2.690  10.823  0.00  0.00    +0.001 A 
ATOM     35  C   UNL     1       3.963  -3.004  12.187  0.00  0.00    +0.002 A 
ATOM     36  C   UNL     1       3.077  -3.817  12.799  0.00  0.00    +0.026 A 
ATOM     37  C   UNL     1       2.007  -4.397  12.064  0.00  0.00    +0.043 A 
ATOM     38  N   UNL     1       1.037  -5.203  12.424  0.00  0.00    -0.380 N 
ATOM     39  C   UNL     1       0.204  -5.486  11.249  0.00  0.00    +0.144 C 
ATOM     40  H   UNL     1       0.892  -5.551  13.317  0.00  0.00    +0.160 HD
ENDBRANCH  30  31
ENDBRANCH   1  30
TORSDOF 10
