REMARK  Name = ZINC26124563
REMARK  6 active torsions:
REMARK  status: ('A' for Active; 'I' for Inactive)
REMARK    1  A    between atoms: C_1  and  C_2
REMARK    2  A    between atoms: C_7  and  N_8
REMARK    3  A    between atoms: C_9  and  C_11
REMARK    4  A    between atoms: C_12  and  C_13
REMARK    5  A    between atoms: C_16  and  C_18
REMARK    6  A    between atoms: N_26  and  C_28
REMARK                            x       y       z     vdW  Elec       q    Type
REMARK                         _______ _______ _______ _____ _____    ______ ____
ROOT
ATOM      1  N   UNL     1       0.025   0.033   2.417  0.00  0.00    -0.282 N 
ATOM      2  C   UNL     1      -0.057  -0.612   3.597  0.00  0.00    +0.241 C 
ATOM      3  O   UNL     1      -0.041  -1.830   3.629  0.00  0.00    -0.270 OA
ATOM      4  H   UNL     1       0.078   1.001   2.395  0.00  0.00    +0.155 HD
ENDROOT
BRANCH   1  11
ATOM      5  C   UNL     1      -1.276   1.183   0.194  0.00  0.00    +0.046 C 
ATOM      6  C   UNL     1      -0.602  -0.160   0.092  0.00  0.00    -0.027 A 
ATOM      7  C   UNL     1      -0.619  -0.821  -1.094  0.00  0.00    +0.037 A 
ATOM      8  C   UNL     1       0.008  -2.075  -1.199  0.00  0.00    +0.114 A 
ATOM      9  C   UNL     1       0.669  -2.641  -0.013  0.00  0.00    +0.115 A 
ATOM     10  C   UNL     1       0.654  -1.909   1.186  0.00  0.00    +0.055 A 
ATOM     11  C   UNL     1       0.033  -0.694   1.222  0.00  0.00    +0.039 A 
ATOM     12  N   UNL     1       1.155  -3.804  -0.421  0.00  0.00    -0.147 NA
ATOM     13  N   UNL     1       0.858  -3.966  -1.663  0.00  0.00    -0.149 N 
ATOM     14  N   UNL     1       0.190  -2.979  -2.149  0.00  0.00    -0.147 NA
BRANCH  13  15
ATOM     15  C   UNL     1       1.222  -5.096  -2.406  0.00  0.00    +0.086 A 
ATOM     16  C   UNL     1       0.868  -5.192  -3.745  0.00  0.00    +0.031 A 
ATOM     17  C   UNL     1       1.230  -6.307  -4.476  0.00  0.00    +0.022 A 
ATOM     18  C   UNL     1       1.944  -7.328  -3.874  0.00  0.00    +0.041 A 
ATOM     19  C   UNL     1       2.298  -7.235  -2.539  0.00  0.00    +0.022 A 
ATOM     20  C   UNL     1       1.944  -6.120  -1.806  0.00  0.00    +0.031 A 
ATOM     21 CL   UNL     1       2.397  -8.728  -4.795  0.00  0.00    -0.084 Cl
ENDBRANCH  13  15
ENDBRANCH   1  11
BRANCH   2  22
ATOM     22  C   UNL     1      -0.163   0.125   4.799  0.00  0.00    +0.071 C 
ATOM     23  C   UNL     1      -0.245  -0.525   5.989  0.00  0.00    +0.051 C 
BRANCH  23  24
ATOM     24  C   UNL     1      -0.350   0.212   7.191  0.00  0.00    +0.129 A 
ATOM     25  C   UNL     1      -0.435  -0.322   8.463  0.00  0.00    +0.050 A 
ATOM     26  C   UNL     1      -0.523   0.756   9.348  0.00  0.00    +0.050 A 
ATOM     27  C   UNL     1      -0.489   1.904   8.589  0.00  0.00    +0.136 A 
ATOM     28  O   UNL     1      -0.379   1.557   7.294  0.00  0.00    -0.455 OA
BRANCH  27  29
ATOM     29  C   UNL     1      -0.556   3.284   9.109  0.00  0.00    +0.017 A 
ATOM     30  C   UNL     1      -0.658   3.511  10.483  0.00  0.00    +0.013 A 
ATOM     31  C   UNL     1      -0.719   4.803  10.963  0.00  0.00    +0.021 A 
ATOM     32  C   UNL     1      -0.680   5.873  10.085  0.00  0.00    +0.041 A 
ATOM     33  C   UNL     1      -0.579   5.654   8.721  0.00  0.00    +0.021 A 
ATOM     34  C   UNL     1      -0.511   4.368   8.229  0.00  0.00    +0.013 A 
ATOM     35 CL   UNL     1      -0.759   7.496  10.696  0.00  0.00    -0.084 Cl
ENDBRANCH  27  29
ENDBRANCH  23  24
ENDBRANCH   2  22
TORSDOF 5
