REMARK  Name = ZINC05672459
REMARK  3 active torsions:
REMARK  status: ('A' for Active; 'I' for Inactive)
REMARK    1  A    between atoms: C_3  and  O_20
REMARK    2  A    between atoms: C_6  and  C_7
REMARK    3  A    between atoms: N_9  and  N_10
REMARK                            x       y       z     vdW  Elec       q    Type
REMARK                         _______ _______ _______ _____ _____    ______ ____
ROOT
ATOM      1  C   UNL     1       0.883   0.502  -4.106  0.00  0.00    +0.263 C 
ATOM      2  O   UNL     1       0.164   0.985  -4.959  0.00  0.00    -0.268 OA
ATOM      3  N   UNL     1       0.600   0.686  -2.802  0.00  0.00    -0.203 N 
ATOM      4  H   UNL     1       1.174   0.301  -2.122  0.00  0.00    +0.178 HD
ENDROOT
BRANCH   3   5
ATOM      5  N   UNL     1      -0.523   1.436  -2.428  0.00  0.00    -0.189 NA
ATOM      6  C   UNL     1      -0.792   1.611  -1.189  0.00  0.00    +0.040 C 
ATOM      7  C   UNL     1      -0.013   1.086   0.008  0.00  0.00    +0.056 C 
ATOM      8  C   UNL     1      -0.788   1.611   1.255  0.00  0.00    -0.005 C 
ATOM      9  C   UNL     1      -2.115   0.788   1.257  0.00  0.00    +0.004 C 
ATOM     10  C   UNL     1      -2.895   1.306   0.026  0.00  0.00    +0.010 C 
ATOM     11  C   UNL     1      -1.969   2.397  -0.594  0.00  0.00    +0.035 C 
ATOM     12  C   UNL     1      -1.306   2.987   0.700  0.00  0.00    +0.013 C 
ENDBRANCH   3   5
BRANCH   1  18
ATOM     13  C   UNL     1       2.898  -0.840  -3.522  0.00  0.00    +0.016 A 
ATOM     14  C   UNL     1       3.997  -1.581  -3.893  0.00  0.00    +0.046 A 
ATOM     15  C   UNL     1       4.288  -1.770  -5.239  0.00  0.00    +0.117 A 
ATOM     16  C   UNL     1       3.467  -1.218  -6.215  0.00  0.00    +0.046 A 
ATOM     17  C   UNL     1       2.362  -0.480  -5.852  0.00  0.00    +0.016 A 
ATOM     18  C   UNL     1       2.066  -0.288  -4.500  0.00  0.00    +0.039 A 
BRANCH  15  19
ATOM     19  O   UNL     1       5.376  -2.496  -5.601  0.00  0.00    -0.507 OA
ATOM     20  H   UNL     1       6.182  -1.972  -5.704  0.00  0.00    +0.292 HD
ENDBRANCH  15  19
ENDBRANCH   1  18
TORSDOF 3
