REMARK  Name = ZINC02772153
REMARK  16 active torsions:
REMARK  status: ('A' for Active; 'I' for Inactive)
REMARK    1  A    between atoms: C_1  and  C_2
REMARK    2  A    between atoms: C_2  and  C_3
REMARK    3  A    between atoms: C_3  and  O_4
REMARK    4  A    between atoms: O_4  and  C_5
REMARK    5  A    between atoms: C_5  and  C_7
REMARK    6  A    between atoms: C_8  and  C_40
REMARK    7  A    between atoms: C_12  and  C_14
REMARK    8  A    between atoms: C_16  and  O_22
REMARK    9  A    between atoms: C_19  and  O_20
REMARK   10  A    between atoms: O_20  and  C_21
REMARK   11  A    between atoms: O_22  and  C_23
REMARK   12  A    between atoms: C_27  and  C_30
REMARK   13  A    between atoms: C_33  and  O_38
REMARK   14  A    between atoms: C_34  and  O_36
REMARK   15  A    between atoms: O_36  and  C_37
REMARK   16  A    between atoms: O_38  and  C_39
REMARK                            x       y       z     vdW  Elec       q    Type
REMARK                         _______ _______ _______ _____ _____    ______ ____
ROOT
ATOM      1  C   UNL     1      -1.996   2.254  -3.618  0.00  0.00    +0.065 C 
ATOM      2  C   UNL     1      -0.673   2.014  -3.605  0.00  0.00    +0.016 C 
ATOM      3  N   UNL     1      -0.020   1.802  -2.423  0.00  0.00    -0.321 N 
ATOM      4  C   UNL     1      -0.711   1.437  -1.299  0.00  0.00    +0.016 C 
ATOM      5  C   UNL     1      -2.041   1.651  -1.213  0.00  0.00    +0.024 C 
ATOM      6  C   UNL     1      -2.791   2.304  -2.347  0.00  0.00    +0.096 C 
ATOM      7  C   UNL     1      -2.763   1.278  -0.066  0.00  0.00    +0.162 C 
ATOM      8  O   UNL     1      -3.963   1.468  -0.028  0.00  0.00    -0.292 OA
ATOM      9  C   UNL     1      -2.077   0.649   1.116  0.00  0.00    +0.088 C 
ATOM     10  C   UNL     1      -0.625   1.132   1.164  0.00  0.00    +0.032 C 
ATOM     11  C   UNL     1       0.046   0.787  -0.168  0.00  0.00    +0.059 C 
ATOM     12  C   UNL     1       0.094   1.979  -4.901  0.00  0.00    +0.061 C 
ATOM     13  H   UNL     1       1.072   1.926  -2.368  0.00  0.00    +0.152 HD
ENDROOT
BRANCH   6  14
ATOM     14  C   UNL     1      -3.068   3.743  -1.993  0.00  0.00    +0.010 A 
ATOM     15  C   UNL     1      -2.020   4.605  -1.734  0.00  0.00    +0.053 A 
ATOM     16  C   UNL     1      -2.275   5.929  -1.412  0.00  0.00    +0.121 A 
ATOM     17  C   UNL     1      -3.583   6.387  -1.341  0.00  0.00    +0.049 A 
ATOM     18  C   UNL     1      -4.631   5.524  -1.596  0.00  0.00    +0.049 A 
ATOM     19  C   UNL     1      -4.376   4.200  -1.922  0.00  0.00    +0.124 A 
BRANCH  19  20
ATOM     20  O   UNL     1      -5.407   3.350  -2.173  0.00  0.00    -0.495 OA
ATOM     21  C   UNL     1      -6.728   3.889  -2.082  0.00  0.00    +0.277 C 
ENDBRANCH  19  20
BRANCH  16  22
ATOM     22  O   UNL     1      -1.244   6.779  -1.161  0.00  0.00    -0.495 OA
ATOM     23  C   UNL     1      -1.580   8.128  -0.831  0.00  0.00    +0.277 C 
ENDBRANCH  16  22
ENDBRANCH   6  14
BRANCH  10  24
ATOM     24  C   UNL     1       0.101   0.443   2.290  0.00  0.00    -0.040 A 
ATOM     25  C   UNL     1       0.190  -0.937   2.311  0.00  0.00    +0.008 A 
ATOM     26  C   UNL     1       0.854  -1.574   3.342  0.00  0.00    +0.049 A 
ATOM     27  C   UNL     1       1.433  -0.830   4.358  0.00  0.00    +0.161 A 
ATOM     28  C   UNL     1       1.343   0.558   4.337  0.00  0.00    +0.162 A 
ATOM     29  C   UNL     1       0.680   1.191   3.298  0.00  0.00    +0.053 A 
BRANCH  28  30
ATOM     30  O   UNL     1       1.910   1.292   5.332  0.00  0.00    -0.491 OA
ATOM     31  C   UNL     1       1.778   2.713   5.245  0.00  0.00    +0.277 C 
ENDBRANCH  28  30
BRANCH  27  32
ATOM     32  O   UNL     1       2.087  -1.456   5.373  0.00  0.00    -0.491 OA
ATOM     33  C   UNL     1       2.140  -2.883   5.329  0.00  0.00    +0.277 C 
ENDBRANCH  27  32
ENDBRANCH  10  24
BRANCH   1  34
ATOM     34  C   UNL     1      -2.650   2.463  -4.854  0.00  0.00    +0.338 C 
ATOM     35  O   UNL     1      -3.360   1.592  -5.322  0.00  0.00    -0.245 OA
BRANCH  34  36
ATOM     36  O   UNL     1      -2.488   3.629  -5.515  0.00  0.00    -0.461 OA
BRANCH  36  37
ATOM     37  C   UNL     1      -3.179   3.771  -6.758  0.00  0.00    +0.232 C 
BRANCH  37  39
ATOM     38  C   UNL     1      -3.616   5.300  -8.686  0.00  0.00    +0.007 C 
ATOM     39  C   UNL     1      -2.876   5.147  -7.355  0.00  0.00    +0.038 C 
ENDBRANCH  37  39
ENDBRANCH  36  37
ENDBRANCH  34  36
ENDBRANCH   1  34
TORSDOF 10
