REMARK  Name = ZINC04145141
REMARK  9 active torsions:
REMARK  status: ('A' for Active; 'I' for Inactive)
REMARK    1  A    between atoms: C_1  and  C_2
REMARK    2  A    between atoms: C_5  and  C_9
REMARK    3  A    between atoms: C_6  and  C_8
REMARK    4  A    between atoms: N_14  and  C_17
REMARK    5  A    between atoms: C_17  and  C_18
REMARK    6  A    between atoms: C_18  and  C_19
REMARK    7  A    between atoms: C_19  and  C_20
REMARK    8  A    between atoms: C_19  and  C_21
REMARK    9  A    between atoms: N_22  and  C_26
REMARK                            x       y       z     vdW  Elec       q    Type
REMARK                         _______ _______ _______ _____ _____    ______ ____
ROOT
ATOM      1  C   UNL     1       1.089  -1.282  -5.427  0.00  0.00    +0.142 C 
ATOM      2  C   UNL     1       1.199  -0.120  -4.462  0.00  0.00    +0.058 C 
ATOM      3  C   UNL     1       2.195   0.767  -4.660  0.00  0.00    +0.042 C 
ATOM      4  C   UNL     1       2.063   1.807  -3.569  0.00  0.00    +0.159 C 
ATOM      5  N   UNL     1       0.904   1.374  -2.774  0.00  0.00    -0.292 N 
ATOM      6  C   UNL     1       0.433   0.247  -3.336  0.00  0.00    +0.247 C 
ATOM      7  O   UNL     1      -0.530  -0.376  -2.927  0.00  0.00    -0.270 OA
ATOM      8  N   UNL     1       3.075   0.624  -5.695  0.00  0.00    -0.260 N 
ATOM      9  C   UNL     1       3.024  -0.383  -6.577  0.00  0.00    +0.307 C 
ATOM     10  O   UNL     1       3.852  -0.428  -7.466  0.00  0.00    -0.252 OA
ATOM     11  N   UNL     1       2.086  -1.347  -6.509  0.00  0.00    -0.288 N 
ATOM     12  C   UNL     1       4.133   1.626  -5.848  0.00  0.00    +0.139 C 
ATOM     13  H   UNL     1       2.067  -2.068  -7.159  0.00  0.00    +0.151 HD
ENDROOT
BRANCH   1  18
ATOM     14  C   UNL     1       1.453  -6.175  -2.374  0.00  0.00    +0.044 C 
ATOM     15  C   UNL     1       1.358  -4.899  -3.170  0.00  0.00    -0.050 A 
ATOM     16  C   UNL     1       1.784  -3.706  -2.617  0.00  0.00    +0.004 A 
ATOM     17  C   UNL     1       1.702  -2.536  -3.349  0.00  0.00    +0.006 A 
ATOM     18  C   UNL     1       1.184  -2.558  -4.631  0.00  0.00    -0.020 A 
ATOM     19  C   UNL     1       0.757  -3.751  -5.184  0.00  0.00    -0.045 A 
ATOM     20  C   UNL     1       0.844  -4.922  -4.453  0.00  0.00    +0.007 A 
ATOM     21  C   UNL     1       0.197  -3.776  -6.582  0.00  0.00    +0.044 C 
ENDBRANCH   1  18
BRANCH   5  22
ATOM     22  C   UNL     1       0.361   2.049  -1.592  0.00  0.00    +0.109 C 
BRANCH  22  23
ATOM     23  C   UNL     1       1.038   1.500  -0.335  0.00  0.00    +0.022 C 
BRANCH  23  24
ATOM     24  C   UNL     1       0.471   2.204   0.899  0.00  0.00    -0.016 C 
ATOM     25  C   UNL     1       1.056   1.570   2.163  0.00  0.00    +0.007 C 
ATOM     26  C   UNL     1       0.842   3.688   0.855  0.00  0.00    +0.007 C 
ENDBRANCH  23  24
ENDBRANCH  22  23
ENDBRANCH   5  22
TORSDOF 4
