REMARK  Name = ZINC40045282
REMARK  13 active torsions:
REMARK  status: ('A' for Active; 'I' for Inactive)
REMARK    1  A    between atoms: C_1  and  C_2
REMARK    2  A    between atoms: C_2  and  C_3
REMARK    3  A    between atoms: C_3  and  C_4
REMARK    4  A    between atoms: C_4  and  C_5
REMARK    5  A    between atoms: C_5  and  O_6
REMARK    6  A    between atoms: O_6  and  C_7
REMARK    7  A    between atoms: C_10  and  C_16
REMARK    8  A    between atoms: C_12  and  O_13
REMARK    9  A    between atoms: O_13  and  C_14
REMARK   10  A    between atoms: C_14  and  C_15
REMARK   11  A    between atoms: C_23  and  C_39
REMARK   12  A    between atoms: C_36  and  C_38
REMARK   13  A    between atoms: C_39  and  C_40
REMARK                            x       y       z     vdW  Elec       q    Type
REMARK                         _______ _______ _______ _____ _____    ______ ____
ROOT
ATOM      1  C   UNL     1       3.980  -6.446  -6.920  0.00  0.00    +0.151 C 
ATOM      2  C   UNL     1       3.070  -6.439  -8.105  0.00  0.00    +0.072 A 
ATOM      3  C   UNL     1       1.748  -7.039  -8.312  0.00  0.00    +0.199 A 
ATOM      4  O   UNL     1       1.090  -7.530  -7.411  0.00  0.00    -0.287 OA
ATOM      5  C   UNL     1       1.287  -6.989  -9.722  0.00  0.00    +0.065 A 
ATOM      6  C   UNL     1       0.147  -7.689 -10.118  0.00  0.00    +0.019 A 
ATOM      7  C   UNL     1      -0.261  -7.638 -11.421  0.00  0.00    -0.047 A 
ATOM      8  C   UNL     1       0.454  -6.894 -12.349  0.00  0.00    +0.007 A 
ATOM      9  C   UNL     1       1.580  -6.196 -11.976  0.00  0.00    +0.047 A 
ATOM     10  C   UNL     1       2.017  -6.230 -10.651  0.00  0.00    +0.139 A 
ATOM     11  O   UNL     1       3.120  -5.528 -10.304  0.00  0.00    -0.450 OA
ATOM     12  C   UNL     1       3.685  -5.729  -9.097  0.00  0.00    +0.199 A 
ATOM     13  C   UNL     1       4.991  -5.269  -8.596  0.00  0.00    +0.288 C 
ATOM     14  O   UNL     1       5.789  -4.612  -9.234  0.00  0.00    -0.266 OA
ATOM     15  N   UNL     1       5.173  -5.683  -7.324  0.00  0.00    -0.238 N 
ATOM     16  C   UNL     1       6.290  -5.433  -6.531  0.00  0.00    +0.129 A 
ATOM     17  C   UNL     1       6.387  -6.016  -5.272  0.00  0.00    +0.044 A 
ATOM     18  C   UNL     1       7.502  -5.758  -4.496  0.00  0.00    +0.005 A 
ATOM     19  C   UNL     1       8.487  -4.923  -5.007  0.00  0.00    +0.023 A 
ATOM     20  C   UNL     1       8.325  -4.379  -6.265  0.00  0.00    +0.040 A 
ATOM     21  N   UNL     1       7.253  -4.646  -6.986  0.00  0.00    -0.237 NA
ATOM     22  C   UNL     1       9.390  -3.472  -6.825  0.00  0.00    +0.065 C 
ENDROOT
BRANCH   1  26
ATOM     23  C   UNL     1       2.079  -4.553  -3.590  0.00  0.00    +0.162 A 
ATOM     24  C   UNL     1       2.645  -3.787  -4.596  0.00  0.00    +0.050 A 
ATOM     25  C   UNL     1       3.259  -4.402  -5.671  0.00  0.00    +0.009 A 
ATOM     26  C   UNL     1       3.310  -5.781  -5.746  0.00  0.00    -0.018 A 
ATOM     27  C   UNL     1       2.746  -6.552  -4.746  0.00  0.00    +0.055 A 
ATOM     28  C   UNL     1       2.134  -5.942  -3.663  0.00  0.00    +0.162 A 
BRANCH  23  29
ATOM     29  O   UNL     1       1.474  -3.950  -2.532  0.00  0.00    -0.488 OA
BRANCH  29  30
ATOM     30  C   UNL     1       1.455  -2.521  -2.524  0.00  0.00    +0.229 C 
BRANCH  30  31
ATOM     31  C   UNL     1       0.739  -2.027  -1.265  0.00  0.00    +0.041 C 
BRANCH  31  32
ATOM     32  C   UNL     1       0.718  -0.497  -1.257  0.00  0.00    +0.003 C 
BRANCH  32  34
ATOM     33  C   UNL     1      -0.019   1.526   0.010  0.00  0.00    +0.004 C 
ATOM     34  C   UNL     1       0.002  -0.004   0.002  0.00  0.00    -0.003 C 
ENDBRANCH  32  34
ENDBRANCH  31  32
ENDBRANCH  30  31
ENDBRANCH  29  30
ENDBRANCH  23  29
BRANCH  28  35
ATOM     35  O   UNL     1       1.584  -6.698  -2.676  0.00  0.00    -0.489 OA
BRANCH  35  36
ATOM     36  C   UNL     1       1.679  -8.117  -2.817  0.00  0.00    +0.226 C 
ATOM     37  C   UNL     1       1.009  -8.794  -1.619  0.00  0.00    +0.048 C 
ENDBRANCH  35  36
ENDBRANCH  28  35
ENDBRANCH   1  26
BRANCH   7  38
ATOM     38  C   UNL     1      -1.493  -8.392 -11.852  0.00  0.00    +0.032 C 
ATOM     39  C   UNL     1      -2.721  -7.494 -11.699  0.00  0.00    +0.009 C 
ENDBRANCH   7  38
TORSDOF 9
