REMARK  Name = ZINC41301285
REMARK  5 active torsions:
REMARK  status: ('A' for Active; 'I' for Inactive)
REMARK    1  A    between atoms: C_1  and  C_2
REMARK    2  A    between atoms: C_8  and  N_11
REMARK    3  A    between atoms: C_13  and  N_32
REMARK    4  A    between atoms: C_14  and  N_31
REMARK    5  A    between atoms: N_21  and  C_24
REMARK                            x       y       z     vdW  Elec       q    Type
REMARK                         _______ _______ _______ _____ _____    ______ ____
ROOT
ATOM      1  N   UNL     1       1.502  -2.616   3.375  0.00  0.00    -0.266 N 
ATOM      2  C   UNL     1       1.807  -3.648   4.253  0.00  0.00    +0.163 A 
ATOM      3  C   UNL     1       1.996  -3.389   5.607  0.00  0.00    +0.205 A 
ATOM      4  C   UNL     1       2.299  -4.454   6.450  0.00  0.00    +0.154 A 
ATOM      5  N   UNL     1       2.398  -5.678   5.936  0.00  0.00    -0.197 NA
ATOM      6  C   UNL     1       2.212  -5.888   4.642  0.00  0.00    +0.221 A 
ATOM      7  N   UNL     1       1.916  -4.899   3.812  0.00  0.00    -0.197 NA
ATOM      8  N   UNL     1       2.323  -7.174   4.145  0.00  0.00    -0.297 N 
ATOM      9  C   UNL     1       2.129  -7.442   2.713  0.00  0.00    +0.127 C 
ATOM     10  C   UNL     1       3.372  -8.162   2.176  0.00  0.00    +0.124 C 
ATOM     11  N   UNL     1       3.688  -9.285   3.070  0.00  0.00    -0.327 N 
ATOM     12  C   UNL     1       3.882  -9.017   4.502  0.00  0.00    +0.124 C 
ATOM     13  C   UNL     1       2.644  -8.296   5.038  0.00  0.00    +0.127 C 
ATOM     14  H   UNL     1       1.424  -1.707   3.704  0.00  0.00    +0.157 HD
ENDROOT
BRANCH   1  21
ATOM     15  C   UNL     1       0.077   1.548  -0.025  0.00  0.00    +0.008 C 
ATOM     16  C   UNL     1       0.090   0.018  -0.035  0.00  0.00    -0.009 C 
ATOM     17  C   UNL     1       0.818  -0.477  -1.287  0.00  0.00    +0.010 C 
ATOM     18  C   UNL     1       0.583  -1.982  -1.463  0.00  0.00    +0.059 C 
ATOM     19  C   UNL     1       0.905  -2.665  -0.155  0.00  0.00    +0.089 A 
ATOM     20  C   UNL     1       1.012  -1.982   1.071  0.00  0.00    +0.037 A 
ATOM     21  C   UNL     1       1.311  -2.886   2.031  0.00  0.00    +0.226 A 
ATOM     22  O   UNL     1       1.390  -4.095   1.443  0.00  0.00    -0.339 OA
ATOM     23  N   UNL     1       1.128  -3.925   0.060  0.00  0.00    -0.081 NA
ATOM     24  C   UNL     1       0.811  -0.494   1.218  0.00  0.00    +0.045 C 
ENDBRANCH   1  21
BRANCH  11  25
ATOM     25  C   UNL     1       3.801 -10.583   2.568  0.00  0.00    +0.031 A 
ATOM     26  C   UNL     1       3.502 -10.843   1.236  0.00  0.00    +0.023 A 
ATOM     27  C   UNL     1       3.615 -12.128   0.743  0.00  0.00    +0.003 A 
ATOM     28  C   UNL     1       4.024 -13.156   1.572  0.00  0.00    +0.020 A 
ATOM     29  C   UNL     1       4.322 -12.901   2.899  0.00  0.00    +0.043 A 
ATOM     30  C   UNL     1       4.217 -11.616   3.398  0.00  0.00    +0.043 A 
ATOM     31 CL   UNL     1       4.835 -14.195   3.937  0.00  0.00    -0.083 Cl
ENDBRANCH  11  25
BRANCH   4  32
ATOM     32  N   UNL     1       2.496  -4.243   7.806  0.00  0.00    -0.341 N 
ATOM     33  H   UNL     1       2.423  -3.348   8.173  0.00  0.00    +0.144 HD
ATOM     34  H   UNL     1       2.708  -4.990   8.387  0.00  0.00    +0.144 HD
ENDBRANCH   4  32
BRANCH   3  35
ATOM     35  N   UNL     1       1.877  -2.012   6.139  0.00  0.00    +0.063 N 
ATOM     36  O   UNL     1       0.808  -1.604   6.528  0.00  0.00    -0.126 OA
ATOM     37  O   UNL     1       2.850  -1.296   6.184  0.00  0.00    -0.126 OA
ENDBRANCH   3  35
TORSDOF 4
