REMARK  Name = ZINC09295239
REMARK  8 active torsions:
REMARK  status: ('A' for Active; 'I' for Inactive)
REMARK    1  A    between atoms: C_1  and  C_2
REMARK    2  A    between atoms: C_2  and  C_3
REMARK    3  A    between atoms: C_6  and  N_9
REMARK    4  A    between atoms: C_10  and  C_12
REMARK    5  A    between atoms: C_14  and  C_31
REMARK    6  A    between atoms: C_18  and  C_23
REMARK    7  A    between atoms: C_23  and  O_24
REMARK    8  A    between atoms: O_24  and  C_25
REMARK                            x       y       z     vdW  Elec       q    Type
REMARK                         _______ _______ _______ _____ _____    ______ ____
ROOT
ATOM      1  C   UNL     1      -7.314  -2.825   1.415  0.00  0.00    +0.166 C 
ATOM      2  C   UNL     1      -7.454  -3.598   2.733  0.00  0.00    +0.140 C 
ATOM      3  N   UNL     1      -6.927  -2.809   3.848  0.00  0.00    -0.272 N 
ATOM      4  N   UNL     1      -7.554  -1.616   4.017  0.00  0.00    -0.222 N 
ATOM      5  C   UNL     1      -7.605  -0.855   5.149  0.00  0.00    +0.189 A 
ATOM      6  N   UNL     1      -8.296   0.215   4.867  0.00  0.00    -0.128 NA
ATOM      7  N   UNL     1      -8.688   0.180   3.640  0.00  0.00    -0.121 NA
ATOM      8  C   UNL     1      -8.265  -0.920   3.081  0.00  0.00    +0.209 A 
ATOM      9  S   UNL     1      -8.534  -1.477   1.426  0.00  0.00    -0.069 S 
ATOM     10  H   UNL     1      -5.929  -2.684   3.762  0.00  0.00    +0.167 HD
ENDROOT
BRANCH   2  11
ATOM     11  C   UNL     1      -6.690  -4.893   2.634  0.00  0.00    -0.024 A 
ATOM     12  C   UNL     1      -5.318  -4.901   2.807  0.00  0.00    +0.005 A 
ATOM     13  C   UNL     1      -4.618  -6.090   2.721  0.00  0.00    +0.000 A 
ATOM     14  C   UNL     1      -5.288  -7.269   2.453  0.00  0.00    +0.000 A 
ATOM     15  C   UNL     1      -6.659  -7.260   2.275  0.00  0.00    +0.000 A 
ATOM     16  C   UNL     1      -7.360  -6.072   2.366  0.00  0.00    +0.005 A 
ENDBRANCH   2  11
BRANCH   1  18
ATOM     17  N   UNL     1      -4.928  -2.997   0.784  0.00  0.00    -0.285 N 
ATOM     18  C   UNL     1      -5.924  -2.253   1.305  0.00  0.00    +0.233 C 
ATOM     19  O   UNL     1      -5.701  -1.123   1.684  0.00  0.00    -0.274 OA
ATOM     20  H   UNL     1      -5.121  -3.872   0.411  0.00  0.00    +0.155 HD
BRANCH  17  24
ATOM     21  C   UNL     1      -1.024  -1.543   0.776  0.00  0.00    -0.048 A 
ATOM     22  C   UNL     1      -1.464  -2.345  -0.261  0.00  0.00    +0.005 A 
ATOM     23  C   UNL     1      -2.756  -2.833  -0.259  0.00  0.00    +0.023 A 
ATOM     24  C   UNL     1      -3.617  -2.509   0.781  0.00  0.00    +0.033 A 
ATOM     25  C   UNL     1      -3.174  -1.699   1.819  0.00  0.00    +0.023 A 
ATOM     26  C   UNL     1      -1.879  -1.218   1.813  0.00  0.00    +0.005 A 
BRANCH  21  28
ATOM     27  C   UNL     1       1.302  -2.006   1.498  0.00  0.00    +0.009 C 
ATOM     28  C   UNL     1       0.388  -1.016   0.773  0.00  0.00    +0.032 C 
ENDBRANCH  21  28
ENDBRANCH  17  24
ENDBRANCH   1  18
BRANCH   5  29
ATOM     29  C   UNL     1      -6.979  -1.188   6.479  0.00  0.00    +0.306 C 
BRANCH  29  30
ATOM     30  O   UNL     1      -5.651  -0.662   6.525  0.00  0.00    -0.484 OA
BRANCH  30  31
ATOM     31  C   UNL     1      -4.942  -0.877   7.665  0.00  0.00    +0.121 A 
ATOM     32  C   UNL     1      -5.515  -1.575   8.718  0.00  0.00    +0.045 A 
ATOM     33  C   UNL     1      -4.790  -1.797   9.873  0.00  0.00    +0.004 A 
ATOM     34  C   UNL     1      -3.499  -1.315   9.984  0.00  0.00    +0.000 A 
ATOM     35  C   UNL     1      -2.928  -0.614   8.937  0.00  0.00    +0.004 A 
ATOM     36  C   UNL     1      -3.646  -0.395   7.778  0.00  0.00    +0.045 A 
ENDBRANCH  30  31
ENDBRANCH  29  30
ENDBRANCH   5  29
TORSDOF 7
