REMARK  Name = ZINC39559573
REMARK  9 active torsions:
REMARK  status: ('A' for Active; 'I' for Inactive)
REMARK    1  A    between atoms: C_1  and  C_2
REMARK    2  A    between atoms: C_5  and  N_8
REMARK    3  A    between atoms: C_9  and  C_35
REMARK    4  A    between atoms: C_11  and  C_14
REMARK    5  A    between atoms: C_12  and  C_13
REMARK    6  A    between atoms: C_15  and  C_16
REMARK    7  A    between atoms: N_18  and  C_19
REMARK    8  A    between atoms: C_19  and  C_20
REMARK    9  A    between atoms: N_22  and  C_23
REMARK                            x       y       z     vdW  Elec       q    Type
REMARK                         _______ _______ _______ _____ _____    ______ ____
ROOT
ATOM      1  C   UNL     1       1.827  -9.816   0.727  0.00  0.00    +0.237 C 
ATOM      2  O   UNL     1       2.926  -9.675   1.231  0.00  0.00    -0.271 OA
ATOM      3  N   UNL     1       1.347 -11.054   0.495  0.00  0.00    -0.303 N 
ATOM      4  H   UNL     1       0.471 -11.167   0.093  0.00  0.00    +0.149 HD
ENDROOT
BRANCH   1   6
ATOM      5  C   UNL     1       1.535  -7.439   0.617  0.00  0.00    +0.015 C 
ATOM      6  C   UNL     1       1.053  -8.680   0.384  0.00  0.00    +0.068 C 
BRANCH   5  10
ATOM      7  N   UNL     1       0.061  -4.171  -0.025  0.00  0.00    -0.317 N 
ATOM      8  C   UNL     1      -0.949  -4.964  -0.494  0.00  0.00    +0.022 A 
ATOM      9  C   UNL     1      -0.602  -6.254  -0.348  0.00  0.00    +0.031 A 
ATOM     10  C   UNL     1       0.734  -6.262   0.261  0.00  0.00    -0.004 A 
ATOM     11  C   UNL     1       1.084  -4.937   0.429  0.00  0.00    +0.028 A 
ATOM     12  C   UNL     1       2.375  -4.430   1.017  0.00  0.00    +0.064 C 
ATOM     13  C   UNL     1      -2.246  -4.470  -1.082  0.00  0.00    +0.064 C 
BRANCH   7  18
ATOM     14  C   UNL     1      -0.010   1.503  -0.004  0.00  0.00    +0.044 C 
ATOM     15  C   UNL     1       0.009  -0.004  -0.009  0.00  0.00    -0.050 A 
ATOM     16  C   UNL     1       0.003  -0.689  -1.210  0.00  0.00    +0.005 A 
ATOM     17  C   UNL     1       0.020  -2.070  -1.219  0.00  0.00    +0.026 A 
ATOM     18  C   UNL     1       0.044  -2.770  -0.020  0.00  0.00    +0.047 A 
ATOM     19  C   UNL     1       0.051  -2.079   1.184  0.00  0.00    +0.026 A 
ATOM     20  C   UNL     1       0.039  -0.698   1.186  0.00  0.00    +0.005 A 
ENDBRANCH   7  18
ENDBRANCH   5  10
ENDBRANCH   1   6
BRANCH   3  21
ATOM     21  C   UNL     1       2.147 -12.229   0.849  0.00  0.00    +0.200 C 
BRANCH  21  22
ATOM     22  C   UNL     1       1.388 -13.480   0.490  0.00  0.00    +0.234 C 
ATOM     23  O   UNL     1       0.287 -13.399  -0.012  0.00  0.00    -0.274 OA
ATOM     24  N   UNL     1       1.933 -14.690   0.728  0.00  0.00    -0.284 N 
ATOM     25  H   UNL     1       2.839 -14.756   1.067  0.00  0.00    +0.155 HD
BRANCH  24  26
ATOM     26  C   UNL     1       1.190 -15.853   0.484  0.00  0.00    +0.036 A 
ATOM     27  C   UNL     1       1.338 -16.957   1.315  0.00  0.00    +0.025 A 
ATOM     28  C   UNL     1       0.609 -18.106   1.081  0.00  0.00    +0.029 A 
ATOM     29  C   UNL     1      -0.274 -18.159   0.013  0.00  0.00    +0.067 A 
ATOM     30  C   UNL     1      -0.424 -17.051  -0.824  0.00  0.00    +0.069 A 
ATOM     31  C   UNL     1       0.305 -15.898  -0.582  0.00  0.00    +0.051 A 
ATOM     32  N   UNL     1      -1.365 -17.401  -1.790  0.00  0.00    -0.306 N 
ATOM     33  H   UNL     1      -1.677 -16.832  -2.511  0.00  0.00    +0.170 HD
ATOM     34  C   UNL     1      -1.769 -18.663  -1.552  0.00  0.00    +0.325 A 
ATOM     35  O   UNL     1      -2.588 -19.273  -2.214  0.00  0.00    -0.247 OA
ATOM     36  N   UNL     1      -1.129 -19.148  -0.472  0.00  0.00    -0.306 N 
ATOM     37  H   UNL     1      -1.243 -20.035  -0.095  0.00  0.00    +0.170 HD
ENDBRANCH  24  26
ENDBRANCH  21  22
ENDBRANCH   3  21
TORSDOF 6
