REMARK  Name = ZINC39437678
REMARK  6 active torsions:
REMARK  status: ('A' for Active; 'I' for Inactive)
REMARK    1  A    between atoms: C_7  and  C_10
REMARK    2  A    between atoms: C_10  and  C_11
REMARK    3  A    between atoms: C_11  and  N_12
REMARK    4  A    between atoms: C_13  and  C_15
REMARK    5  A    between atoms: N_21  and  C_24
REMARK    6  A    between atoms: C_24  and  C_25
REMARK                            x       y       z     vdW  Elec       q    Type
REMARK                         _______ _______ _______ _____ _____    ______ ____
ROOT
ATOM      1  C   UNL     1      -5.912   7.094  -2.354  0.00  0.00    +0.082 C 
ATOM      2  C   UNL     1      -4.794   8.104  -2.622  0.00  0.00    +0.020 C 
ATOM      3  C   UNL     1      -5.798   7.764  -3.722  0.00  0.00    -0.021 C 
ATOM      4  C   UNL     1      -5.311   6.910  -4.898  0.00  0.00    -0.011 C 
ATOM      5  C   UNL     1      -6.533   6.360  -5.641  0.00  0.00    -0.078 C 
ATOM      6  N   UNL     1      -7.393   7.473  -6.062  0.00  0.00    +0.380 N 
ATOM      7  C   UNL     1      -7.963   8.144  -4.888  0.00  0.00    -0.078 C 
ATOM      8  C   UNL     1      -6.843   8.821  -4.091  0.00  0.00    -0.011 C 
ATOM      9  H   UNL     1      -6.847   8.134  -6.593  0.00  0.00    -0.082 HD
ENDROOT
BRANCH   1  11
ATOM     10  N   UNL     1      -6.437   4.683  -2.530  0.00  0.00    -0.315 N 
ATOM     11  C   UNL     1      -5.528   5.640  -2.256  0.00  0.00    +0.217 C 
ATOM     12  O   UNL     1      -4.402   5.331  -1.931  0.00  0.00    -0.275 OA
ATOM     13  H   UNL     1      -7.338   4.931  -2.791  0.00  0.00    +0.149 HD
BRANCH  10  14
ATOM     14  C   UNL     1      -6.063   3.270  -2.435  0.00  0.00    +0.109 C 
BRANCH  14  15
ATOM     15  C   UNL     1      -7.269   2.399  -2.795  0.00  0.00    +0.056 C 
BRANCH  15  22
ATOM     16  C   UNL     1      -7.128  -0.649   0.764  0.00  0.00    +0.001 A 
ATOM     17  C   UNL     1      -6.700  -1.912   0.378  0.00  0.00    +0.002 A 
ATOM     18  C   UNL     1      -6.368  -2.171  -0.934  0.00  0.00    +0.026 A 
ATOM     19  C   UNL     1      -6.462  -1.158  -1.883  0.00  0.00    +0.047 A 
ATOM     20  N   UNL     1      -6.210  -1.100  -3.235  0.00  0.00    -0.360 N 
ATOM     21  C   UNL     1      -6.467   0.160  -3.703  0.00  0.00    +0.087 A 
ATOM     22  C   UNL     1      -6.885   0.945  -2.697  0.00  0.00    -0.021 A 
ATOM     23  C   UNL     1      -6.896   0.120  -1.486  0.00  0.00    +0.003 A 
ATOM     24  C   UNL     1      -7.232   0.359  -0.153  0.00  0.00    +0.010 A 
ATOM     25  H   UNL     1      -5.896  -1.842  -3.776  0.00  0.00    +0.165 HD
ENDBRANCH  15  22
ENDBRANCH  14  15
ENDBRANCH  10  14
ENDBRANCH   1  11
BRANCH   6  26
ATOM     26  C   UNL     1      -8.480   6.956  -6.904  0.00  0.00    -0.064 C 
BRANCH  26  27
ATOM     27  C   UNL     1      -7.898   6.408  -8.209  0.00  0.00    +0.081 C 
ATOM     28  C   UNL     1      -9.021   5.818  -9.075  0.00  0.00    +0.238 C 
ATOM     29  O   UNL     1      -9.965   6.842  -9.387  0.00  0.00    -0.491 OA
ATOM     30  C   UNL     1      -9.515   7.996  -9.934  0.00  0.00    +0.131 A 
ATOM     31  C   UNL     1     -10.379   8.799 -10.667  0.00  0.00    +0.048 A 
ATOM     32  C   UNL     1      -9.924   9.979 -11.221  0.00  0.00    +0.023 A 
ATOM     33  C   UNL     1      -8.606  10.378 -11.055  0.00  0.00    +0.042 A 
ATOM     34  C   UNL     1      -7.730   9.594 -10.333  0.00  0.00    +0.035 A 
ATOM     35  C   UNL     1      -8.180   8.397  -9.771  0.00  0.00    +0.061 A 
ATOM     36  C   UNL     1      -7.261   7.534  -9.004  0.00  0.00    +0.171 C 
ATOM     37  O   UNL     1      -6.061   7.712  -9.008  0.00  0.00    -0.292 OA
ATOM     38 CL   UNL     1      -8.056  11.867 -11.758  0.00  0.00    -0.084 Cl
ENDBRANCH  26  27
ENDBRANCH   6  26
TORSDOF 6
