REMARK  Name = ZINC47236108
REMARK  4 active torsions:
REMARK  status: ('A' for Active; 'I' for Inactive)
REMARK    1  A    between atoms: C_6  and  C_7
REMARK    2  A    between atoms: N_9  and  C_10
REMARK    3  A    between atoms: N_9  and  C_14
REMARK    4  A    between atoms: C_10  and  C_11
REMARK                            x       y       z     vdW  Elec       q    Type
REMARK                         _______ _______ _______ _____ _____    ______ ____
ROOT
ATOM      1  C   UNL     1      -1.266  -0.762  -0.006  0.00  0.00    +0.247 C 
ATOM      2  O   UNL     1      -2.324  -0.174   0.101  0.00  0.00    -0.270 OA
ATOM      3  N   UNL     1      -1.248  -2.107  -0.099  0.00  0.00    -0.286 N 
ENDROOT
BRANCH   1   9
ATOM      4  C   UNL     1       1.072  -0.393   0.770  0.00  0.00    +0.014 A 
ATOM      5  C   UNL     1       2.253   0.320   0.737  0.00  0.00    +0.015 A 
ATOM      6  C   UNL     1       2.377   1.420  -0.094  0.00  0.00    +0.013 A 
ATOM      7  C   UNL     1       1.320   1.812  -0.896  0.00  0.00    +0.015 A 
ATOM      8  C   UNL     1       0.134   1.108  -0.872  0.00  0.00    +0.014 A 
ATOM      9  C   UNL     1       0.002  -0.003  -0.037  0.00  0.00    +0.037 A 
ATOM     10  I   UNL     1       4.174   2.496  -0.137  0.00  0.00    -0.044 I 
ENDBRANCH   1   9
BRANCH   3  11
ATOM     11  C   UNL     1      -2.506  -2.852  -0.182  0.00  0.00    +0.077 C 
ATOM     12  C   UNL     1      -3.331  -2.363  -1.390  0.00  0.00    +0.022 C 
ATOM     13  C   UNL     1      -4.797  -2.409  -0.893  0.00  0.00    +0.002 C 
ATOM     14  C   UNL     1      -4.675  -1.944   0.579  0.00  0.00    +0.002 C 
ATOM     15  C   UNL     1      -3.361  -2.586   1.070  0.00  0.00    +0.022 C 
ENDBRANCH   3  11
BRANCH   3  16
ATOM     16  C   UNL     1       0.030  -2.823  -0.115  0.00  0.00    +0.203 C 
BRANCH  16  17
ATOM     17  C   UNL     1       0.362  -3.291   1.278  0.00  0.00    +0.228 C 
ATOM     18  O   UNL     1      -0.395  -3.050   2.195  0.00  0.00    -0.274 OA
ATOM     19  N   UNL     1       1.499  -3.978   1.506  0.00  0.00    -0.328 N 
ATOM     20  H   UNL     1       2.104  -4.170   0.772  0.00  0.00    +0.145 HD
ATOM     21  H   UNL     1       1.712  -4.279   2.402  0.00  0.00    +0.145 HD
ENDBRANCH  16  17
ENDBRANCH   3  16
TORSDOF 4
