REMARK  Name = ZINC39659847
REMARK  7 active torsions:
REMARK  status: ('A' for Active; 'I' for Inactive)
REMARK    1  A    between atoms: C_1  and  C_2
REMARK    2  A    between atoms: C_3  and  C_12
REMARK    3  A    between atoms: C_7  and  O_8
REMARK    4  A    between atoms: O_8  and  C_9
REMARK    5  A    between atoms: C_9  and  C_11
REMARK    6  A    between atoms: C_16  and  C_25
REMARK    7  A    between atoms: N_27  and  C_28
REMARK                            x       y       z     vdW  Elec       q    Type
REMARK                         _______ _______ _______ _____ _____    ______ ____
ROOT
ATOM      1  C   UNL     1      -0.168  -0.066  -2.704  0.00  0.00    +0.247 C 
ATOM      2  O   UNL     1      -0.095   1.140  -2.838  0.00  0.00    -0.270 OA
ATOM      3  N   UNL     1      -0.395  -0.850  -3.776  0.00  0.00    -0.296 N 
ATOM      4  C   UNL     1      -0.639  -2.311  -3.797  0.00  0.00    +0.121 C 
ATOM      5  C   UNL     1      -1.732  -2.509  -4.871  0.00  0.00    +0.100 C 
ATOM      6  C   UNL     1      -1.605  -1.283  -5.791  0.00  0.00    -0.004 C 
ATOM      7  C   UNL     1      -0.461  -0.445  -5.201  0.00  0.00    +0.115 C 
ATOM      8  C   UNL     1      -1.262  -1.721  -7.211  0.00  0.00    -0.010 C 
ATOM      9  C   UNL     1      -1.198  -0.489  -8.119  0.00  0.00    -0.082 C 
ATOM     10  N   UNL     1      -2.491   0.204  -8.098  0.00  0.00    +0.379 N 
ATOM     11  C   UNL     1      -2.770   0.704  -6.746  0.00  0.00    -0.082 C 
ATOM     12  C   UNL     1      -2.901  -0.478  -5.780  0.00  0.00    -0.010 C 
ATOM     13  H   UNL     1      -2.466   0.980  -8.743  0.00  0.00    -0.086 HD
ATOM     14  H   UNL     1      -3.220  -0.437  -8.375  0.00  0.00    -0.086 HD
ENDROOT
BRANCH   1  17
ATOM     15  C   UNL     1      -1.189   1.318  -0.377  0.00  0.00    +0.048 C 
ATOM     16  C   UNL     1      -0.498  -0.014  -0.236  0.00  0.00    +0.004 A 
ATOM     17  C   UNL     1      -0.009  -0.672  -1.365  0.00  0.00    +0.043 A 
ATOM     18  C   UNL     1       0.631  -1.904  -1.226  0.00  0.00    +0.013 A 
ATOM     19  C   UNL     1       0.777  -2.467   0.026  0.00  0.00    +0.004 A 
ATOM     20  C   UNL     1       0.293  -1.814   1.143  0.00  0.00    +0.047 A 
ATOM     21  C   UNL     1      -0.341  -0.585   1.016  0.00  0.00    +0.135 A 
BRANCH  21  22
ATOM     22  O   UNL     1      -0.811   0.055   2.119  0.00  0.00    -0.426 OA
BRANCH  22  23
ATOM     23  C   UNL     1      -0.107   1.096   2.591  0.00  0.00    +0.309 C 
ATOM     24  O   UNL     1       0.958   1.380   2.096  0.00  0.00    -0.251 OA
ATOM     25  C   UNL     1      -0.644   1.910   3.740  0.00  0.00    +0.136 C 
ENDBRANCH  22  23
ENDBRANCH  21  22
ENDBRANCH   1  17
BRANCH   5  26
ATOM     26  C   UNL     1      -1.483  -3.777  -5.646  0.00  0.00    +0.218 C 
ATOM     27  O   UNL     1      -0.360  -4.227  -5.729  0.00  0.00    -0.275 OA
ATOM     28  N   UNL     1      -2.509  -4.412  -6.247  0.00  0.00    -0.312 N 
ATOM     29  H   UNL     1      -3.408  -4.052  -6.181  0.00  0.00    +0.149 HD
BRANCH  28  30
ATOM     30  C   UNL     1      -2.267  -5.645  -7.001  0.00  0.00    +0.073 C 
ATOM     31  C   UNL     1      -1.839  -5.295  -8.427  0.00  0.00    +0.022 C 
ATOM     32  C   UNL     1      -1.212  -6.524  -9.087  0.00  0.00    +0.002 C 
ATOM     33  C   UNL     1      -0.258  -7.202  -8.101  0.00  0.00    +0.000 C 
ATOM     34  C   UNL     1      -0.818  -8.570  -7.708  0.00  0.00    +0.000 C 
ATOM     35  C   UNL     1      -1.968  -8.384  -6.717  0.00  0.00    +0.000 C 
ATOM     36  C   UNL     1      -3.215  -7.909  -7.465  0.00  0.00    +0.002 C 
ATOM     37  C   UNL     1      -3.550  -6.477  -7.043  0.00  0.00    +0.022 C 
ENDBRANCH  28  30
ENDBRANCH   5  26
TORSDOF 5
