REMARK  Name = ZINC40427287
REMARK  8 active torsions:
REMARK  status: ('A' for Active; 'I' for Inactive)
REMARK    1  A    between atoms: C_1  and  C_2
REMARK    2  A    between atoms: C_5  and  C_8
REMARK    3  A    between atoms: N_17  and  C_18
REMARK    4  A    between atoms: C_18  and  C_19
REMARK    5  A    between atoms: N_24  and  S_29
REMARK    6  A    between atoms: C_25  and  C_28
REMARK    7  A    between atoms: S_29  and  C_32
REMARK    8  A    between atoms: C_32  and  C_33
REMARK                            x       y       z     vdW  Elec       q    Type
REMARK                         _______ _______ _______ _____ _____    ______ ____
ROOT
ATOM      1  C   UNL     1       3.234  -4.727   1.877  0.00  0.00    +0.199 C 
ATOM      2  O   UNL     1       2.779  -5.302   2.843  0.00  0.00    -0.278 OA
ATOM      3  N   UNL     1       4.549  -4.437   1.823  0.00  0.00    -0.300 N 
ATOM      4  C   UNL     1       5.114  -3.736   0.662  0.00  0.00    +0.125 C 
ATOM      5  C   UNL     1       6.263  -4.577   0.093  0.00  0.00    +0.128 C 
ATOM      6  N   UNL     1       7.158  -4.956   1.195  0.00  0.00    -0.175 NA
ATOM      7  C   UNL     1       6.594  -5.657   2.357  0.00  0.00    +0.094 C 
ATOM      8  C   UNL     1       5.443  -4.811   2.928  0.00  0.00    +0.128 C 
ATOM      9  C   UNL     1       6.067  -7.027   1.924  0.00  0.00    +0.027 C 
ENDROOT
BRANCH   6  10
ATOM     10  S   UNL     1       8.774  -4.599   1.129  0.00  0.00    +0.036 S 
ATOM     11  O   UNL     1       9.395  -5.578   1.952  0.00  0.00    -0.158 OA
ATOM     12  O   UNL     1       9.072  -4.524  -0.258  0.00  0.00    -0.158 OA
BRANCH  10  13
ATOM     13  C   UNL     1       8.921  -2.959   1.890  0.00  0.00    +0.220 C 
BRANCH  13  14
ATOM     14  C   UNL     1      10.366  -2.530   1.883  0.00  0.00    -0.025 A 
ATOM     15  C   UNL     1      11.186  -2.849   2.949  0.00  0.00    +0.005 A 
ATOM     16  C   UNL     1      12.511  -2.456   2.943  0.00  0.00    +0.000 A 
ATOM     17  C   UNL     1      13.016  -1.744   1.872  0.00  0.00    +0.000 A 
ATOM     18  C   UNL     1      12.196  -1.425   0.805  0.00  0.00    +0.000 A 
ATOM     19  C   UNL     1      10.872  -1.823   0.809  0.00  0.00    +0.005 A 
ENDBRANCH  13  14
ENDBRANCH  10  13
ENDBRANCH   6  10
BRANCH   1  20
ATOM     20  C   UNL     1       2.329  -4.338   0.737  0.00  0.00    +0.020 C 
BRANCH  20  29
ATOM     21  C   UNL     1       0.059  -4.275  -0.021  0.00  0.00    -0.005 C 
ATOM     22  C   UNL     1      -1.346  -4.806   0.240  0.00  0.00    -0.047 A 
ATOM     23  C   UNL     1      -2.502  -4.255  -0.307  0.00  0.00    +0.010 A 
ATOM     24  C   UNL     1      -3.711  -4.792  -0.017  0.00  0.00    +0.045 A 
ATOM     25  S   UNL     1      -3.266  -6.138   1.072  0.00  0.00    -0.101 S 
ATOM     26  C   UNL     1      -1.514  -5.885   1.056  0.00  0.00    -0.010 A 
ATOM     27  C   UNL     1      -0.434  -6.647   1.752  0.00  0.00    +0.024 C 
ATOM     28  C   UNL     1       0.907  -6.228   1.125  0.00  0.00    -0.072 C 
ATOM     29  N   UNL     1       0.955  -4.762   1.035  0.00  0.00    +0.393 N 
ATOM     30  H   UNL     1       0.671  -4.367   1.919  0.00  0.00    -0.080 HD
BRANCH  21  35
ATOM     31  C   UNL     1      -0.018   1.503   0.010  0.00  0.00    +0.044 C 
ATOM     32  C   UNL     1       0.002  -0.004   0.002  0.00  0.00    -0.050 A 
ATOM     33  C   UNL     1       0.006  -0.689  -1.199  0.00  0.00    +0.003 A 
ATOM     34  C   UNL     1       0.025  -2.071  -1.206  0.00  0.00    +0.002 A 
ATOM     35  C   UNL     1       0.040  -2.768  -0.013  0.00  0.00    -0.057 A 
ATOM     36  C   UNL     1       0.037  -2.084   1.188  0.00  0.00    +0.002 A 
ATOM     37  C   UNL     1       0.023  -0.702   1.195  0.00  0.00    +0.003 A 
ENDBRANCH  21  35
ENDBRANCH  20  29
ENDBRANCH   1  20
TORSDOF 6
