REMARK  Name = ZINC45113992
REMARK  4 active torsions:
REMARK  status: ('A' for Active; 'I' for Inactive)
REMARK    1  A    between atoms: C_3  and  N_8
REMARK    2  A    between atoms: C_10  and  C_15
REMARK    3  A    between atoms: N_17  and  C_18
REMARK    4  A    between atoms: C_21  and  O_24
REMARK                            x       y       z     vdW  Elec       q    Type
REMARK                         _______ _______ _______ _____ _____    ______ ____
ROOT
ATOM      1  N   UNL     1       3.584   2.125  -0.021  0.00  0.00    -0.271 N 
ATOM      2  C   UNL     1       4.914   1.510   0.062  0.00  0.00    +0.127 C 
ATOM      3  C   UNL     1       5.902   2.598  -0.414  0.00  0.00    +0.101 C 
ATOM      4  C   UNL     1       5.120   3.894  -0.098  0.00  0.00    +0.110 C 
ATOM      5  C   UNL     1       3.670   3.463  -0.113  0.00  0.00    +0.221 C 
ATOM      6  O   UNL     1       2.722   4.216  -0.192  0.00  0.00    -0.275 OA
ENDROOT
BRANCH   1   9
ATOM      7  C   UNL     1      -0.017   1.378   0.024  0.00  0.00    +0.003 A 
ATOM      8  C   UNL     1       1.169   2.087   0.017  0.00  0.00    +0.023 A 
ATOM      9  C   UNL     1       2.381   1.410  -0.013  0.00  0.00    +0.037 A 
ATOM     10  C   UNL     1       2.397   0.021  -0.035  0.00  0.00    +0.038 A 
ATOM     11  C   UNL     1       1.208  -0.682  -0.028  0.00  0.00    +0.020 A 
ATOM     12  C   UNL     1       0.002  -0.004   0.002  0.00  0.00    +0.015 A 
ATOM     13 BR   UNL     1       1.228  -2.573  -0.057  0.00  0.00    -0.050 Br
ENDBRANCH   1   9
BRANCH   3  14
ATOM     14  C   UNL     1       7.188   2.538   0.369  0.00  0.00    +0.218 C 
ATOM     15  O   UNL     1       7.330   1.707   1.240  0.00  0.00    -0.275 OA
ATOM     16  N   UNL     1       8.181   3.410   0.101  0.00  0.00    -0.312 N 
ATOM     17  H   UNL     1       8.067   4.075  -0.596  0.00  0.00    +0.149 HD
BRANCH  16  18
ATOM     18  C   UNL     1       9.431   3.352   0.862  0.00  0.00    +0.073 C 
ATOM     19  C   UNL     1      10.366   2.319   0.230  0.00  0.00    +0.025 C 
ATOM     20  C   UNL     1      11.672   2.259   1.025  0.00  0.00    +0.033 C 
ATOM     21  C   UNL     1      12.344   3.633   1.007  0.00  0.00    +0.115 C 
ATOM     22  C   UNL     1      11.409   4.666   1.639  0.00  0.00    +0.033 C 
ATOM     23  C   UNL     1      10.103   4.726   0.844  0.00  0.00    +0.025 C 
BRANCH  21  24
ATOM     24  O   UNL     1      12.625   4.008  -0.343  0.00  0.00    -0.392 OA
ATOM     25  H   UNL     1      13.052   4.871  -0.431  0.00  0.00    +0.210 HD
ENDBRANCH  21  24
ENDBRANCH  16  18
ENDBRANCH   3  14
TORSDOF 4
