REMARK  Name = ZINC64986429
REMARK  10 active torsions:
REMARK  status: ('A' for Active; 'I' for Inactive)
REMARK    1  A    between atoms: C_1  and  C_2
REMARK    2  A    between atoms: C_9  and  C_24
REMARK    3  A    between atoms: N_12  and  S_13
REMARK    4  A    between atoms: S_13  and  C_16
REMARK    5  A    between atoms: C_19  and  O_22
REMARK    6  A    between atoms: O_22  and  C_23
REMARK    7  A    between atoms: N_26  and  C_27
REMARK    8  A    between atoms: C_32  and  C_33
REMARK    9  A    between atoms: C_33  and  C_34
REMARK   10  A    between atoms: C_33  and  C_35
REMARK                            x       y       z     vdW  Elec       q    Type
REMARK                         _______ _______ _______ _____ _____    ______ ____
ROOT
ATOM      1  C   UNL     1      -1.046   1.132  -0.231  0.00  0.00    +0.044 C 
ATOM      2  C   UNL     1      -0.716  -0.337  -0.165  0.00  0.00    -0.047 A 
ATOM      3  C   UNL     1      -0.612  -1.073  -1.331  0.00  0.00    +0.005 A 
ATOM      4  C   UNL     1      -0.308  -2.420  -1.274  0.00  0.00    +0.029 A 
ATOM      5  C   UNL     1      -0.108  -3.032  -0.047  0.00  0.00    +0.093 A 
ATOM      6  C   UNL     1      -0.214  -2.294   1.128  0.00  0.00    +0.144 A 
ATOM      7  C   UNL     1      -0.513  -0.942   1.062  0.00  0.00    +0.051 A 
ATOM      8  O   UNL     1      -0.029  -2.884   2.339  0.00  0.00    -0.476 OA
ATOM      9  C   UNL     1       0.692  -4.117   2.376  0.00  0.00    +0.278 C 
ATOM     10  C   UNL     1       0.103  -5.067   1.323  0.00  0.00    +0.186 C 
ATOM     11  N   UNL     1       0.206  -4.399   0.015  0.00  0.00    -0.195 N 
ENDROOT
BRANCH   9  12
ATOM     12  C   UNL     1       0.567  -4.735   3.745  0.00  0.00    +0.260 C 
ATOM     13  O   UNL     1      -0.150  -4.223   4.578  0.00  0.00    -0.271 OA
ATOM     14  N   UNL     1       1.252  -5.857   4.043  0.00  0.00    -0.282 N 
ATOM     15  H   UNL     1       1.873  -6.232   3.399  0.00  0.00    +0.155 HD
BRANCH  14  16
ATOM     16  C   UNL     1       1.066  -6.481   5.281  0.00  0.00    +0.037 A 
ATOM     17  C   UNL     1       0.711  -5.729   6.394  0.00  0.00    +0.023 A 
ATOM     18  C   UNL     1       0.529  -6.348   7.614  0.00  0.00    +0.002 A 
ATOM     19  C   UNL     1       0.701  -7.716   7.731  0.00  0.00    +0.000 A 
ATOM     20  C   UNL     1       1.055  -8.467   6.625  0.00  0.00    +0.006 A 
ATOM     21  C   UNL     1       1.232  -7.855   5.400  0.00  0.00    -0.024 A 
BRANCH  21  22
ATOM     22  C   UNL     1       1.611  -8.676   4.194  0.00  0.00    +0.015 C 
ATOM     23  C   UNL     1       3.002  -9.277   4.403  0.00  0.00    +0.012 C 
ATOM     24  C   UNL     1       0.592  -9.801   4.003  0.00  0.00    +0.012 C 
ENDBRANCH  21  22
ENDBRANCH  14  16
ENDBRANCH   9  12
BRANCH  11  25
ATOM     25  S   UNL     1       0.675  -5.232  -1.337  0.00  0.00    +0.075 S 
ATOM     26  O   UNL     1       1.303  -4.291  -2.197  0.00  0.00    -0.150 OA
ATOM     27  O   UNL     1       1.334  -6.406  -0.882  0.00  0.00    -0.150 OA
BRANCH  25  28
ATOM     28  C   UNL     1      -0.791  -5.764  -2.158  0.00  0.00    +0.109 A 
ATOM     29  C   UNL     1      -1.353  -6.987  -1.843  0.00  0.00    +0.032 A 
ATOM     30  C   UNL     1      -2.502  -7.406  -2.484  0.00  0.00    +0.047 A 
ATOM     31  C   UNL     1      -3.092  -6.598  -3.446  0.00  0.00    +0.120 A 
ATOM     32  C   UNL     1      -2.526  -5.371  -3.760  0.00  0.00    +0.047 A 
ATOM     33  C   UNL     1      -1.380  -4.954  -3.111  0.00  0.00    +0.032 A 
BRANCH  31  34
ATOM     34  O   UNL     1      -4.223  -7.008  -4.079  0.00  0.00    -0.495 OA
ATOM     35  C   UNL     1      -4.775  -6.125  -5.057  0.00  0.00    +0.277 C 
ENDBRANCH  31  34
ENDBRANCH  25  28
ENDBRANCH  11  25
TORSDOF 6
