REMARK  Name = ZINC31032253
REMARK  4 active torsions:
REMARK  status: ('A' for Active; 'I' for Inactive)
REMARK    1  A    between atoms: C_4  and  S_8
REMARK    2  A    between atoms: S_8  and  N_11
REMARK    3  A    between atoms: C_17  and  C_19
REMARK    4  A    between atoms: C_21  and  C_25
REMARK                            x       y       z     vdW  Elec       q    Type
REMARK                         _______ _______ _______ _____ _____    ______ ____
ROOT
ATOM      1  N   UNL     1      -3.013   1.232  -1.319  0.00  0.00    -0.174 NA
ATOM      2  C   UNL     1      -1.906   0.267  -1.251  0.00  0.00    +0.128 C 
ATOM      3  C   UNL     1      -0.850   0.800  -0.276  0.00  0.00    +0.125 C 
ATOM      4  N   UNL     1      -1.517   1.202   0.971  0.00  0.00    -0.294 N 
ATOM      5  C   UNL     1      -2.626   2.164   0.902  0.00  0.00    +0.125 C 
ATOM      6  C   UNL     1      -3.682   1.631  -0.073  0.00  0.00    +0.128 C 
ATOM      7  C   UNL     1      -1.121   0.694   2.155  0.00  0.00    +0.264 C 
ATOM      8  O   UNL     1      -0.273  -0.177   2.190  0.00  0.00    -0.268 OA
ENDROOT
BRANCH   7   9
ATOM      9  C   UNL     1      -1.716   1.192   3.405  0.00  0.00    +0.121 A 
ATOM     10  C   UNL     1      -2.103   0.438   4.497  0.00  0.00    +0.062 A 
ATOM     11  C   UNL     1      -2.606   1.363   5.429  0.00  0.00    +0.093 A 
ATOM     12  N   UNL     1      -2.515   2.560   4.889  0.00  0.00    -0.173 NA
ATOM     13  N   UNL     1      -2.002   2.493   3.714  0.00  0.00    -0.272 N 
ATOM     14  H   UNL     1      -1.784   3.291   2.989  0.00  0.00    +0.189 HD
BRANCH  11  15
ATOM     15  C   UNL     1      -3.147   1.046   6.774  0.00  0.00    +0.002 A 
ATOM     16  C   UNL     1      -3.189  -0.274   7.218  0.00  0.00    +0.011 A 
ATOM     17  C   UNL     1      -3.689  -0.562   8.472  0.00  0.00    +0.016 A 
ATOM     18  C   UNL     1      -4.157   0.456   9.284  0.00  0.00    +0.018 A 
ATOM     19  C   UNL     1      -4.121   1.768   8.846  0.00  0.00    +0.016 A 
ATOM     20  C   UNL     1      -3.619   2.068   7.596  0.00  0.00    +0.011 A 
ATOM     21 BR   UNL     1      -4.847   0.052  10.998  0.00  0.00    -0.050 Br
ENDBRANCH  11  15
ENDBRANCH   7   9
BRANCH   1  22
ATOM     22  S   UNL     1      -3.496   1.858  -2.774  0.00  0.00    +0.064 S 
ATOM     23  O   UNL     1      -4.130   3.098  -2.491  0.00  0.00    -0.153 OA
ATOM     24  O   UNL     1      -2.383   1.755  -3.651  0.00  0.00    -0.153 OA
BRANCH  22  28
ATOM     25  C   UNL     1      -6.698  -0.889  -4.417  0.00  0.00    +0.003 A 
ATOM     26  C   UNL     1      -7.013   0.411  -4.069  0.00  0.00    +0.002 A 
ATOM     27  C   UNL     1      -6.037   1.248  -3.562  0.00  0.00    +0.031 A 
ATOM     28  C   UNL     1      -4.742   0.789  -3.413  0.00  0.00    +0.140 A 
ATOM     29  C   UNL     1      -4.425  -0.513  -3.761  0.00  0.00    +0.150 A 
ATOM     30  C   UNL     1      -5.405  -1.352  -4.264  0.00  0.00    +0.040 A 
ATOM     31  F   UNL     1      -3.161  -0.965  -3.610  0.00  0.00    -0.203 F 
ENDBRANCH  22  28
ENDBRANCH   1  22
TORSDOF 4
