REMARK  Name = ZINC11416070
REMARK  10 active torsions:
REMARK  status: ('A' for Active; 'I' for Inactive)
REMARK    1  A    between atoms: C_1  and  C_2
REMARK    2  A    between atoms: C_5  and  N_8
REMARK    3  A    between atoms: N_8  and  C_9
REMARK    4  A    between atoms: C_10  and  C_12
REMARK    5  A    between atoms: C_12  and  S_13
REMARK    6  A    between atoms: S_13  and  C_14
REMARK    7  A    between atoms: C_17  and  C_26
REMARK    8  A    between atoms: N_18  and  C_19
REMARK    9  A    between atoms: C_26  and  C_28
REMARK   10  A    between atoms: C_26  and  N_69
REMARK                            x       y       z     vdW  Elec       q    Type
REMARK                         _______ _______ _______ _____ _____    ______ ____
ROOT
ATOM      1  C   UNL     1       6.498   0.734  -0.056  0.00  0.00    +0.197 A 
ATOM      2  N   UNL     1       6.653   2.038  -0.050  0.00  0.00    -0.122 NA
ATOM      3  N   UNL     1       7.905   2.330  -0.060  0.00  0.00    -0.135 NA
ATOM      4  C   UNL     1       8.620   1.241  -0.072  0.00  0.00    +0.125 A 
ATOM      5  N   UNL     1       7.750   0.183  -0.065  0.00  0.00    -0.275 N 
ENDROOT
BRANCH   5   6
ATOM      6  C   UNL     1       8.075  -1.182  -0.070  0.00  0.00    +0.050 A 
ATOM      7  C   UNL     1       8.742  -1.741   1.012  0.00  0.00    +0.029 A 
ATOM      8  C   UNL     1       9.056  -3.086   1.008  0.00  0.00    +0.040 A 
ATOM      9  C   UNL     1       8.716  -3.875  -0.078  0.00  0.00    +0.124 A 
ATOM     10  C   UNL     1       8.056  -3.317  -1.161  0.00  0.00    +0.040 A 
ATOM     11  C   UNL     1       7.735  -1.974  -1.158  0.00  0.00    +0.029 A 
ATOM     12  F   UNL     1       9.029  -5.189  -0.083  0.00  0.00    -0.205 F 
ENDBRANCH   5   6
BRANCH   4  13
ATOM     13  C   UNL     1      10.125   1.160  -0.087  0.00  0.00    -0.002 C 
ATOM     14  C   UNL     1      10.667   1.497   1.304  0.00  0.00    -0.005 C 
BRANCH  13  20
ATOM     15  C   UNL     1      10.080   1.886  -2.396  0.00  0.00    -0.078 C 
ATOM     16  C   UNL     1      10.543   2.987  -3.352  0.00  0.00    -0.019 C 
ATOM     17  C   UNL     1      12.073   2.979  -3.430  0.00  0.00    -0.004 C 
ATOM     18  C   UNL     1      12.649   3.173  -2.025  0.00  0.00    -0.019 C 
ATOM     19  C   UNL     1      12.124   2.067  -1.107  0.00  0.00    -0.078 C 
ATOM     20  N   UNL     1      10.649   2.144  -1.056  0.00  0.00    +0.386 N 
ATOM     21  H   UNL     1      10.376   3.087  -0.754  0.00  0.00    -0.081 HD
ENDBRANCH  13  20
ENDBRANCH   4  13
BRANCH   1  22
ATOM     22  S   UNL     1       4.968  -0.139  -0.046  0.00  0.00    -0.076 S 
BRANCH  22  23
ATOM     23  C   UNL     1       3.812   1.253  -0.028  0.00  0.00    +0.173 C 
BRANCH  23  26
ATOM     24  N   UNL     1       1.362   1.593  -0.002  0.00  0.00    -0.301 N 
ATOM     25  C   UNL     1       1.610   3.037   0.003  0.00  0.00    +0.132 C 
ATOM     26  C   UNL     1       2.398   0.731  -0.017  0.00  0.00    +0.226 C 
ATOM     27  O   UNL     1       2.192  -0.464  -0.021  0.00  0.00    -0.275 OA
BRANCH  24  32
ATOM     28  C   UNL     1      -4.340   1.027   0.049  0.00  0.00    +0.007 C 
ATOM     29  C   UNL     1      -2.904   1.556   0.038  0.00  0.00    -0.014 C 
ATOM     30  C   UNL     1      -2.188   1.063  -1.221  0.00  0.00    +0.005 C 
ATOM     31  C   UNL     1      -0.753   1.593  -1.232  0.00  0.00    +0.023 C 
ATOM     32  C   UNL     1      -0.013   1.086   0.008  0.00  0.00    +0.076 C 
ATOM     33  C   UNL     1      -0.729   1.579   1.267  0.00  0.00    +0.023 C 
ATOM     34  C   UNL     1      -2.164   1.050   1.278  0.00  0.00    +0.005 C 
ENDBRANCH  24  32
ENDBRANCH  23  26
ENDBRANCH  22  23
ENDBRANCH   1  22
TORSDOF 7
