REMARK  Name = ZINC17073801
REMARK  6 active torsions:
REMARK  status: ('A' for Active; 'I' for Inactive)
REMARK    1  A    between atoms: C_1  and  C_2
REMARK    2  A    between atoms: C_2  and  C_3
REMARK    3  A    between atoms: C_6  and  C_9
REMARK    4  A    between atoms: N_11  and  C_12
REMARK    5  A    between atoms: C_12  and  N_14
REMARK    6  A    between atoms: C_20  and  O_24
REMARK                            x       y       z     vdW  Elec       q    Type
REMARK                         _______ _______ _______ _____ _____    ______ ____
ROOT
ATOM      1  C   UNL     1       2.759  -2.607   6.893  0.00  0.00    +0.163 C 
ATOM      2  S   UNL     1       4.449  -2.875   6.835  0.00  0.00    -0.016 S 
ENDROOT
BRANCH   1   3
ATOM      3  N   UNL     1       2.082  -2.848   8.021  0.00  0.00    -0.169 NA
ATOM      4  C   UNL     1       2.452  -2.264   9.154  0.00  0.00    +0.163 A 
ATOM      5  N   UNL     1       3.416  -1.321   9.354  0.00  0.00    -0.335 N 
ATOM      6  C   UNL     1       3.657  -0.828  10.626  0.00  0.00    +0.055 A 
ATOM      7  C   UNL     1       4.607   0.136  11.004  0.00  0.00    +0.030 A 
ATOM      8  C   UNL     1       4.733   0.529  12.314  0.00  0.00    +0.047 A 
ATOM      9  C   UNL     1       3.928  -0.012  13.309  0.00  0.00    +0.118 A 
ATOM     10  C   UNL     1       2.981  -0.967  12.963  0.00  0.00    +0.062 A 
ATOM     11  C   UNL     1       2.858  -1.357  11.651  0.00  0.00    +0.042 A 
ATOM     12  S   UNL     1       1.806  -2.508  10.800  0.00  0.00    -0.052 S 
ATOM     13  H   UNL     1       3.936  -0.995   8.603  0.00  0.00    +0.168 HD
BRANCH   9  14
ATOM     14  O   UNL     1       4.066   0.387  14.601  0.00  0.00    -0.507 OA
ATOM     15  H   UNL     1       3.511   1.141  14.841  0.00  0.00    +0.292 HD
ENDBRANCH   9  14
ENDBRANCH   1   3
BRANCH   1  18
ATOM     16  C   UNL     1       2.792  -1.910   4.665  0.00  0.00    +0.250 C 
ATOM     17  O   UNL     1       3.992  -2.100   4.624  0.00  0.00    -0.270 OA
ATOM     18  N   UNL     1       2.110  -2.153   5.802  0.00  0.00    -0.262 N 
ATOM     19  H   UNL     1       1.153  -2.001   5.835  0.00  0.00    +0.157 HD
BRANCH  16  23
ATOM     20  C   UNL     1       0.749  -0.481   1.227  0.00  0.00    -0.048 A 
ATOM     21  C   UNL     1       2.115  -0.696   1.177  0.00  0.00    +0.004 A 
ATOM     22  C   UNL     1       2.785  -1.160   2.290  0.00  0.00    +0.013 A 
ATOM     23  C   UNL     1       2.082  -1.413   3.469  0.00  0.00    +0.037 A 
ATOM     24  C   UNL     1       0.704  -1.193   3.513  0.00  0.00    +0.013 A 
ATOM     25  C   UNL     1       0.047  -0.724   2.394  0.00  0.00    +0.004 A 
BRANCH  20  27
ATOM     26  C   UNL     1       0.014   1.555   0.018  0.00  0.00    +0.009 C 
ATOM     27  C   UNL     1       0.024   0.025   0.007  0.00  0.00    +0.032 C 
ENDBRANCH  20  27
ENDBRANCH  16  23
ENDBRANCH   1  18
TORSDOF 5
