REMARK  Name = ZINC15057239
REMARK  6 active torsions:
REMARK  status: ('A' for Active; 'I' for Inactive)
REMARK    1  A    between atoms: C_6  and  N_7
REMARK    2  A    between atoms: C_8  and  C_10
REMARK    3  A    between atoms: C_10  and  C_11
REMARK    4  A    between atoms: N_15  and  C_26
REMARK    5  A    between atoms: N_17  and  N_18
REMARK    6  A    between atoms: C_29  and  O_32
REMARK                            x       y       z     vdW  Elec       q    Type
REMARK                         _______ _______ _______ _____ _____    ______ ____
ROOT
ATOM      1  C   UNL     1       3.120   1.454  -0.541  0.00  0.00    +0.149 C 
ATOM      2  C   UNL     1       4.526   0.876  -0.524  0.00  0.00    +0.239 C 
ATOM      3  O   UNL     1       4.804  -0.124   0.104  0.00  0.00    -0.274 OA
ATOM      4  N   UNL     1       5.427   1.530  -1.236  0.00  0.00    -0.217 N 
ATOM      5  C   UNL     1       5.114   2.671  -1.954  0.00  0.00    +0.190 C 
ATOM      6  N   UNL     1       5.909   3.407  -2.693  0.00  0.00    -0.125 NA
ATOM      7  S   UNL     1       3.372   2.907  -1.635  0.00  0.00    -0.075 S 
ENDROOT
BRANCH   6   8
ATOM      8  N   UNL     1       5.406   4.537  -3.351  0.00  0.00    -0.135 NA
ATOM      9  C   UNL     1       6.194   5.266  -4.084  0.00  0.00    +0.135 C 
ATOM     10  C   UNL     1       5.709   6.501  -4.828  0.00  0.00    +0.152 C 
ATOM     11  S   UNL     1       7.272   7.033  -5.630  0.00  0.00    -0.060 S 
ATOM     12  C   UNL     1       8.328   5.735  -5.008  0.00  0.00    +0.277 C 
ATOM     13  O   UNL     1       9.514   5.570  -5.221  0.00  0.00    -0.263 OA
ATOM     14  N   UNL     1       7.514   4.979  -4.249  0.00  0.00    -0.263 N 
ATOM     15  H   UNL     1       7.882   4.201  -3.803  0.00  0.00    +0.157 HD
ENDBRANCH   6   8
BRANCH   4  16
ATOM     16  C   UNL     1       6.745   1.052  -1.266  0.00  0.00    +0.043 A 
ATOM     17  C   UNL     1       7.127   0.126  -2.227  0.00  0.00    +0.027 A 
ATOM     18  C   UNL     1       8.427  -0.340  -2.259  0.00  0.00    +0.047 A 
ATOM     19  C   UNL     1       9.348   0.109  -1.324  0.00  0.00    +0.117 A 
ATOM     20  C   UNL     1       8.966   1.030  -0.359  0.00  0.00    +0.047 A 
ATOM     21  C   UNL     1       7.668   1.501  -0.330  0.00  0.00    +0.027 A 
BRANCH  19  22
ATOM     22  O   UNL     1      10.626  -0.355  -1.352  0.00  0.00    -0.507 OA
ATOM     23  H   UNL     1      10.768  -1.149  -0.820  0.00  0.00    +0.292 HD
ENDBRANCH  19  22
ENDBRANCH   4  16
BRANCH   1  24
ATOM     24  C   UNL     1       2.123   0.467  -1.151  0.00  0.00    +0.120 C 
BRANCH  24  26
ATOM     25  N   UNL     1      -0.287   0.413  -1.707  0.00  0.00    -0.285 N 
ATOM     26  C   UNL     1       0.757   1.101  -1.204  0.00  0.00    +0.219 C 
ATOM     27  O   UNL     1       0.597   2.232  -0.795  0.00  0.00    -0.275 OA
ATOM     28  H   UNL     1      -0.145  -0.461  -2.105  0.00  0.00    +0.155 HD
BRANCH  25  34
ATOM     29  C   UNL     1      -1.950   1.764  -0.593  0.00  0.00    +0.025 A 
ATOM     30  C   UNL     1      -3.219   2.308  -0.552  0.00  0.00    +0.022 A 
ATOM     31  C   UNL     1      -4.119   2.043  -1.569  0.00  0.00    +0.041 A 
ATOM     32  C   UNL     1      -3.749   1.238  -2.632  0.00  0.00    +0.022 A 
ATOM     33  C   UNL     1      -2.479   0.696  -2.680  0.00  0.00    +0.025 A 
ATOM     34  C   UNL     1      -1.574   0.961  -1.661  0.00  0.00    +0.033 A 
ATOM     35 CL   UNL     1      -5.715   2.723  -1.512  0.00  0.00    -0.084 Cl
ENDBRANCH  25  34
ENDBRANCH  24  26
ENDBRANCH   1  24
TORSDOF 6
