REMARK  Name = ZINC63514217
REMARK  9 active torsions:
REMARK  status: ('A' for Active; 'I' for Inactive)
REMARK    1  A    between atoms: C_1  and  C_2
REMARK    2  A    between atoms: C_4  and  C_14
REMARK    3  A    between atoms: C_7  and  O_12
REMARK    4  A    between atoms: O_12  and  C_13
REMARK    5  A    between atoms: C_14  and  C_15
REMARK    6  A    between atoms: C_15  and  N_16
REMARK    7  A    between atoms: C_17  and  C_19
REMARK    8  A    between atoms: C_26  and  O_31
REMARK    9  A    between atoms: O_31  and  C_32
REMARK                            x       y       z     vdW  Elec       q    Type
REMARK                         _______ _______ _______ _____ _____    ______ ____
ROOT
ATOM      1  N   UNL     1      -4.819  -0.825  -1.544  0.00  0.00    -0.314 N 
ATOM      2  C   UNL     1      -6.036  -1.378  -1.371  0.00  0.00    +0.227 C 
ATOM      3  O   UNL     1      -6.259  -2.061  -0.394  0.00  0.00    -0.275 OA
ATOM      4  H   UNL     1      -4.641  -0.279  -2.326  0.00  0.00    +0.149 HD
ENDROOT
BRANCH   2   5
ATOM      5  C   UNL     1      -7.120  -1.149  -2.393  0.00  0.00    +0.188 C 
ATOM      6  C   UNL     1      -8.391  -1.898  -1.980  0.00  0.00    +0.063 C 
ATOM      7  C   UNL     1      -8.226  -3.372  -2.248  0.00  0.00    -0.000 A 
ATOM      8  C   UNL     1      -9.051  -4.262  -1.575  0.00  0.00    +0.007 A 
ATOM      9  C   UNL     1      -8.942  -5.621  -1.794  0.00  0.00    +0.004 A 
ATOM     10  C   UNL     1      -8.007  -6.105  -2.690  0.00  0.00    +0.049 A 
ATOM     11  C   UNL     1      -7.178  -5.225  -3.364  0.00  0.00    +0.162 A 
ATOM     12  C   UNL     1      -7.285  -3.851  -3.139  0.00  0.00    +0.176 A 
ATOM     13  O   UNL     1      -6.438  -3.019  -3.806  0.00  0.00    -0.421 OA
ATOM     14  C   UNL     1      -6.683  -1.694  -3.738  0.00  0.00    +0.325 C 
ATOM     15  O   UNL     1      -6.561  -0.977  -4.703  0.00  0.00    -0.250 OA
BRANCH  11  16
ATOM     16  O   UNL     1      -6.258  -5.698  -4.245  0.00  0.00    -0.491 OA
ATOM     17  C   UNL     1      -6.203  -7.115  -4.427  0.00  0.00    +0.277 C 
ENDBRANCH  11  16
ENDBRANCH   2   5
BRANCH   1  18
ATOM     18  C   UNL     1      -3.765  -1.048  -0.551  0.00  0.00    +0.108 C 
BRANCH  18  19
ATOM     19  C   UNL     1      -2.494  -0.315  -0.984  0.00  0.00    +0.052 C 
BRANCH  19  22
ATOM     20  C   UNL     1      -0.019   1.526   0.010  0.00  0.00    +0.035 C 
ATOM     21  C   UNL     1       0.002  -0.004   0.002  0.00  0.00    +0.103 C 
ATOM     22  C   UNL     1      -1.410  -0.545   0.038  0.00  0.00    -0.037 C 
ATOM     23  C   UNL     1      -1.503  -1.275   1.172  0.00  0.00    +0.003 A 
ATOM     24  C   UNL     1      -2.598  -2.045   1.773  0.00  0.00    +0.055 A 
ATOM     25  C   UNL     1      -2.393  -2.691   2.946  0.00  0.00    +0.121 A 
ATOM     26  C   UNL     1      -1.160  -2.651   3.620  0.00  0.00    +0.047 A 
ATOM     27  C   UNL     1      -0.095  -1.970   3.147  0.00  0.00    +0.029 A 
ATOM     28  C   UNL     1      -0.204  -1.234   1.883  0.00  0.00    +0.043 A 
ATOM     29  N   UNL     1       0.658  -0.508   1.214  0.00  0.00    -0.378 N 
ATOM     30  H   UNL     1       1.576  -0.332   1.476  0.00  0.00    +0.160 HD
BRANCH  25  31
ATOM     31  O   UNL     1      -3.416  -3.401   3.491  0.00  0.00    -0.495 OA
ATOM     32  C   UNL     1      -3.157  -4.065   4.729  0.00  0.00    +0.277 C 
ENDBRANCH  25  31
ENDBRANCH  19  22
ENDBRANCH  18  19
ENDBRANCH   1  18
TORSDOF 6
