REMARK  Name = ZINC03003826
REMARK  8 active torsions:
REMARK  status: ('A' for Active; 'I' for Inactive)
REMARK    1  A    between atoms: C_1  and  O_2
REMARK    2  A    between atoms: O_2  and  C_3
REMARK    3  A    between atoms: C_7  and  C_11
REMARK    4  A    between atoms: C_8  and  O_9
REMARK    5  A    between atoms: O_9  and  C_10
REMARK    6  A    between atoms: C_23  and  S_26
REMARK    7  A    between atoms: S_26  and  C_27
REMARK    8  A    between atoms: C_27  and  C_28
REMARK                            x       y       z     vdW  Elec       q    Type
REMARK                         _______ _______ _______ _____ _____    ______ ____
ROOT
ATOM      1  C   UNL     1      -0.276  -6.124   3.644  0.00  0.00    +0.298 C 
ATOM      2  N   UNL     1       0.689  -6.625   2.670  0.00  0.00    -0.305 N 
ATOM      3  C   UNL     1       0.216  -7.154   1.465  0.00  0.00    +0.039 A 
ATOM      4  C   UNL     1       0.320  -8.503   1.181  0.00  0.00    +0.024 A 
ATOM      5  C   UNL     1      -0.172  -8.995  -0.015  0.00  0.00    +0.002 A 
ATOM      6  C   UNL     1      -0.769  -8.144  -0.929  0.00  0.00    +0.001 A 
ATOM      7  C   UNL     1      -0.876  -6.793  -0.662  0.00  0.00    +0.012 A 
ATOM      8  C   UNL     1      -0.380  -6.285   0.532  0.00  0.00    +0.028 A 
ATOM      9  C   UNL     1      -0.443  -4.842   0.844  0.00  0.00    +0.156 A 
ATOM     10  C   UNL     1      -0.900  -4.421   2.114  0.00  0.00    +0.248 A 
ATOM     11  N   UNL     1      -0.939  -3.126   2.378  0.00  0.00    -0.184 NA
ATOM     12  C   UNL     1      -0.552  -2.260   1.446  0.00  0.00    +0.213 A 
ATOM     13  N   UNL     1      -0.135  -2.675   0.256  0.00  0.00    -0.122 NA
ATOM     14  N   UNL     1      -0.074  -3.928  -0.040  0.00  0.00    -0.141 NA
ATOM     15  O   UNL     1      -1.291  -5.340   3.028  0.00  0.00    -0.449 OA
ATOM     16  H   UNL     1       1.640  -6.592   2.855  0.00  0.00    +0.150 HD
ENDROOT
BRANCH   1  21
ATOM     17  C   UNL     1      -0.870  -8.973   6.065  0.00  0.00    +0.163 A 
ATOM     18  C   UNL     1      -2.100  -9.444   5.635  0.00  0.00    +0.064 A 
ATOM     19  C   UNL     1      -2.735  -8.840   4.564  0.00  0.00    +0.022 A 
ATOM     20  C   UNL     1      -2.144  -7.766   3.922  0.00  0.00    +0.028 A 
ATOM     21  C   UNL     1      -0.917  -7.293   4.347  0.00  0.00    +0.057 A 
ATOM     22  C   UNL     1      -0.273  -7.897   5.415  0.00  0.00    +0.170 A 
ATOM     23 BR   UNL     1      -4.414  -9.483   3.978  0.00  0.00    -0.050 Br
BRANCH  17  25
ATOM     24  C   UNL     1      -0.912 -10.668   7.732  0.00  0.00    +0.277 C 
ATOM     25  O   UNL     1      -0.244  -9.565   7.117  0.00  0.00    -0.491 OA
ENDBRANCH  17  25
BRANCH  22  26
ATOM     26  O   UNL     1       0.937  -7.435   5.831  0.00  0.00    -0.491 OA
ATOM     27  C   UNL     1       0.933  -6.415   6.831  0.00  0.00    +0.277 C 
ENDBRANCH  22  26
ENDBRANCH   1  21
BRANCH  12  28
ATOM     28  S   UNL     1      -0.600  -0.533   1.793  0.00  0.00    -0.080 S 
BRANCH  28  29
ATOM     29  C   UNL     1       0.015   0.121   0.221  0.00  0.00    +0.104 C 
BRANCH  29  30
ATOM     30  C   UNL     1       0.061   1.625   0.287  0.00  0.00    -0.023 C 
ATOM     31  C   UNL     1       1.212   2.249   0.224  0.00  0.00    +0.005 C 
ENDBRANCH  29  30
ENDBRANCH  28  29
ENDBRANCH  12  28
TORSDOF 6
