REMARK  Name = ZINC21245824
REMARK  12 active torsions:
REMARK  status: ('A' for Active; 'I' for Inactive)
REMARK    1  A    between atoms: C_1  and  C_2
REMARK    2  A    between atoms: C_2  and  C_3
REMARK    3  A    between atoms: C_2  and  C_4
REMARK    4  A    between atoms: C_4  and  O_5
REMARK    5  A    between atoms: O_5  and  C_6
REMARK    6  A    between atoms: C_9  and  C_12
REMARK    7  A    between atoms: C_17  and  C_27
REMARK    8  A    between atoms: C_30  and  O_35
REMARK    9  A    between atoms: C_31  and  O_33
REMARK   10  A    between atoms: O_33  and  C_34
REMARK   11  A    between atoms: O_35  and  C_36
REMARK   12  A    between atoms: C_36  and  C_38
REMARK                            x       y       z     vdW  Elec       q    Type
REMARK                         _______ _______ _______ _____ _____    ______ ____
ROOT
ATOM      1  C   UNL     1      -0.807   1.633  -1.274  0.00  0.00    +0.032 C 
ATOM      2  C   UNL     1      -2.252   1.147  -1.167  0.00  0.00    +0.059 C 
ATOM      3  C   UNL     1      -2.883   1.677   0.110  0.00  0.00    +0.017 C 
ATOM      4  C   UNL     1      -2.137   1.865   1.212  0.00  0.00    +0.036 C 
ATOM      5  C   UNL     1      -2.635   2.378   2.541  0.00  0.00    +0.136 C 
ATOM      6  N   UNL     1      -4.076   2.429   2.665  0.00  0.00    -0.331 N 
ATOM      7  C   UNL     1      -4.836   3.280   1.865  0.00  0.00    +0.049 A 
ATOM      8  C   UNL     1      -5.557   4.332   2.407  0.00  0.00    +0.025 A 
ATOM      9  C   UNL     1      -6.258   5.180   1.568  0.00  0.00    +0.002 A 
ATOM     10  C   UNL     1      -6.240   4.983   0.199  0.00  0.00    +0.002 A 
ATOM     11  C   UNL     1      -5.535   3.922  -0.344  0.00  0.00    +0.025 A 
ATOM     12  C   UNL     1      -4.851   3.061   0.496  0.00  0.00    +0.052 A 
ATOM     13  N   UNL     1      -4.217   1.914   0.029  0.00  0.00    -0.316 N 
ATOM     14  C   UNL     1      -0.746   1.589   1.190  0.00  0.00    +0.163 C 
ATOM     15  O   UNL     1      -0.096   1.745   2.205  0.00  0.00    -0.292 OA
ATOM     16  C   UNL     1      -0.048   1.111  -0.048  0.00  0.00    +0.088 C 
ATOM     17  H   UNL     1      -4.588   1.789   3.399  0.00  0.00    +0.147 HD
ATOM     18  H   UNL     1      -4.882   1.169  -0.432  0.00  0.00    +0.152 HD
ENDROOT
BRANCH   1  22
ATOM     19  C   UNL     1       0.978   0.104  -4.843  0.00  0.00    +0.121 A 
ATOM     20  C   UNL     1       0.911   1.474  -4.631  0.00  0.00    +0.046 A 
ATOM     21  C   UNL     1       0.334   1.965  -3.476  0.00  0.00    +0.007 A 
ATOM     22  C   UNL     1      -0.178   1.094  -2.533  0.00  0.00    -0.043 A 
ATOM     23  C   UNL     1      -0.108  -0.272  -2.739  0.00  0.00    +0.007 A 
ATOM     24  C   UNL     1       0.464  -0.768  -3.895  0.00  0.00    +0.046 A 
BRANCH  19  25
ATOM     25  O   UNL     1       1.545  -0.382  -5.978  0.00  0.00    -0.492 OA
BRANCH  25  26
ATOM     26  C   UNL     1       1.579  -1.802  -6.130  0.00  0.00    +0.232 C 
BRANCH  26  28
ATOM     27  C   UNL     1       3.715  -1.719  -7.423  0.00  0.00    +0.010 C 
ATOM     28  C   UNL     1       2.249  -2.158  -7.458  0.00  0.00    +0.020 C 
ATOM     29  C   UNL     1       2.174  -3.670  -7.679  0.00  0.00    +0.010 C 
ENDBRANCH  26  28
ENDBRANCH  25  26
ENDBRANCH  19  25
ENDBRANCH   1  22
BRANCH   5  30
ATOM     30  C   UNL     1      -2.088   3.767   2.752  0.00  0.00    -0.019 A 
ATOM     31  C   UNL     1      -2.454   4.789   1.896  0.00  0.00    +0.009 A 
ATOM     32  C   UNL     1      -1.961   6.066   2.088  0.00  0.00    +0.050 A 
ATOM     33  C   UNL     1      -1.088   6.321   3.133  0.00  0.00    +0.173 A 
ATOM     34  C   UNL     1      -0.715   5.291   3.992  0.00  0.00    +0.163 A 
ATOM     35  C   UNL     1      -1.218   4.015   3.797  0.00  0.00    +0.055 A 
BRANCH  34  36
ATOM     36  O   UNL     1       0.141   5.537   5.019  0.00  0.00    -0.491 OA
ATOM     37  C   UNL     1       0.480   4.431   5.859  0.00  0.00    +0.277 C 
ENDBRANCH  34  36
BRANCH  33  38
ATOM     38  O   UNL     1      -0.597   7.575   3.320  0.00  0.00    -0.422 OA
BRANCH  38  39
ATOM     39  C   UNL     1       0.639   7.821   2.857  0.00  0.00    +0.309 C 
ATOM     40  O   UNL     1       1.229   6.973   2.230  0.00  0.00    -0.251 OA
ATOM     41  C   UNL     1       1.292   9.154   3.121  0.00  0.00    +0.136 C 
ENDBRANCH  38  39
ENDBRANCH  33  38
ENDBRANCH   5  30
TORSDOF 8
