REMARK  Name = ZINC40741788
REMARK  12 active torsions:
REMARK  status: ('A' for Active; 'I' for Inactive)
REMARK    1  A    between atoms: C_1  and  C_2
REMARK    2  A    between atoms: C_2  and  O_3
REMARK    3  A    between atoms: O_3  and  C_4
REMARK    4  A    between atoms: C_6  and  C_23
REMARK    5  A    between atoms: C_9  and  O_10
REMARK    6  A    between atoms: O_10  and  C_11
REMARK    7  A    between atoms: C_11  and  C_12
REMARK    8  A    between atoms: N_14  and  C_15
REMARK    9  A    between atoms: C_18  and  C_21
REMARK   10  A    between atoms: C_23  and  N_24
REMARK   11  A    between atoms: N_24  and  C_25
REMARK   12  A    between atoms: C_25  and  C_26
REMARK                            x       y       z     vdW  Elec       q    Type
REMARK                         _______ _______ _______ _____ _____    ______ ____
ROOT
ATOM      1  C   UNL     1       0.805  -1.811   1.300  0.00  0.00    +0.163 A 
ATOM      2  C   UNL     1       0.261  -2.653   0.343  0.00  0.00    +0.051 A 
ATOM      3  C   UNL     1       0.363  -4.024   0.490  0.00  0.00    -0.060 A 
ATOM      4  C   UNL     1       1.007  -4.558   1.591  0.00  0.00    +0.021 A 
ATOM      5  C   UNL     1       1.552  -3.724   2.550  0.00  0.00    +0.063 A 
ATOM      6  C   UNL     1       1.459  -2.348   2.404  0.00  0.00    +0.176 A 
ATOM      7 BR   UNL     1       2.430  -4.458   4.054  0.00  0.00    -0.046 Br
ENDROOT
BRANCH   1   8
ATOM      8  O   UNL     1       0.706  -0.462   1.156  0.00  0.00    -0.489 OA
BRANCH   8  10
ATOM      9  C   UNL     1       0.010   1.548   0.009  0.00  0.00    +0.048 C 
ATOM     10  C   UNL     1       0.021   0.018  -0.003  0.00  0.00    +0.226 C 
ENDBRANCH   8  10
ENDBRANCH   1   8
BRANCH   6  11
ATOM     11  O   UNL     1       1.999  -1.525   3.343  0.00  0.00    -0.478 OA
BRANCH  11  12
ATOM     12  C   UNL     1       1.158  -1.146   4.434  0.00  0.00    +0.325 C 
BRANCH  12  13
ATOM     13  C   UNL     1       1.922  -0.240   5.366  0.00  0.00    +0.255 C 
ATOM     14  O   UNL     1       3.073   0.052   5.119  0.00  0.00    -0.272 OA
ATOM     15  N   UNL     1       1.326   0.246   6.473  0.00  0.00    -0.283 N 
ATOM     16  H   UNL     1       0.386   0.068   6.635  0.00  0.00    +0.155 HD
BRANCH  15  17
ATOM     17  C   UNL     1       2.062   1.007   7.387  0.00  0.00    +0.034 A 
ATOM     18  C   UNL     1       1.800   0.906   8.747  0.00  0.00    +0.023 A 
ATOM     19  C   UNL     1       2.529   1.659   9.647  0.00  0.00    +0.005 A 
ATOM     20  C   UNL     1       3.519   2.512   9.195  0.00  0.00    -0.050 A 
ATOM     21  C   UNL     1       3.782   2.615   7.842  0.00  0.00    +0.005 A 
ATOM     22  C   UNL     1       3.061   1.860   6.937  0.00  0.00    +0.023 A 
ATOM     23  C   UNL     1       4.312   3.332  10.180  0.00  0.00    +0.044 C 
ENDBRANCH  15  17
ENDBRANCH  12  13
ENDBRANCH  11  12
ENDBRANCH   6  11
BRANCH   3  24
ATOM     24  C   UNL     1      -0.230  -4.938  -0.551  0.00  0.00    -0.046 C 
BRANCH  24  25
ATOM     25  N   UNL     1       0.776  -5.221  -1.584  0.00  0.00    +0.384 N 
ATOM     26  H   UNL     1       1.063  -4.357  -2.019  0.00  0.00    -0.085 HD
ATOM     27  H   UNL     1       1.576  -5.667  -1.161  0.00  0.00    -0.085 HD
BRANCH  25  28
ATOM     28  C   UNL     1       0.198  -6.111  -2.599  0.00  0.00    -0.046 C 
BRANCH  28  29
ATOM     29  C   UNL     1       1.230  -6.402  -3.659  0.00  0.00    -0.064 A 
ATOM     30  C   UNL     1       1.334  -5.579  -4.765  0.00  0.00    +0.004 A 
ATOM     31  C   UNL     1       2.280  -5.844  -5.737  0.00  0.00    +0.038 A 
ATOM     32  C   UNL     1       3.123  -6.933  -5.603  0.00  0.00    +0.123 A 
ATOM     33  C   UNL     1       3.018  -7.756  -4.494  0.00  0.00    +0.038 A 
ATOM     34  C   UNL     1       2.075  -7.487  -3.521  0.00  0.00    +0.004 A 
ATOM     35  F   UNL     1       4.048  -7.193  -6.553  0.00  0.00    -0.205 F 
ENDBRANCH  28  29
ENDBRANCH  25  28
ENDBRANCH  24  25
ENDBRANCH   3  24
TORSDOF 10
