REMARK  Name = ZINC02768029
REMARK  6 active torsions:
REMARK  status: ('A' for Active; 'I' for Inactive)
REMARK    1  A    between atoms: C_1  and  C_2
REMARK    2  A    between atoms: C_2  and  C_4
REMARK    3  A    between atoms: C_2  and  N_22
REMARK    4  A    between atoms: C_4  and  N_5
REMARK    5  A    between atoms: C_6  and  C_8
REMARK    6  A    between atoms: C_23  and  C_25
REMARK                            x       y       z     vdW  Elec       q    Type
REMARK                         _______ _______ _______ _____ _____    ______ ____
ROOT
ATOM      1  C   UNL     1      -0.013   1.086   0.008  0.00  0.00    +0.029 C 
ATOM      2  C   UNL     1      -0.729   1.579   1.267  0.00  0.00    +0.087 C 
ENDROOT
BRANCH   2   3
ATOM      3  N   UNL     1      -0.749   3.044   1.275  0.00  0.00    -0.310 N 
ATOM      4  C   UNL     1       0.305   3.730   1.762  0.00  0.00    +0.225 C 
ATOM      5  O   UNL     1       1.269   3.134   2.193  0.00  0.00    -0.275 OA
ATOM      6  H   UNL     1      -1.520   3.521   0.930  0.00  0.00    +0.149 HD
BRANCH   4   7
ATOM      7  C   UNL     1       0.284   5.237   1.770  0.00  0.00    +0.142 C 
ATOM      8  C   UNL     1       0.128   5.739   0.360  0.00  0.00    +0.011 A 
ATOM      9  C   UNL     1      -1.120   5.705  -0.237  0.00  0.00    +0.008 A 
ATOM     10  C   UNL     1      -1.284   6.162  -1.531  0.00  0.00    +0.001 A 
ATOM     11  C   UNL     1      -0.200   6.653  -2.234  0.00  0.00    +0.004 A 
ATOM     12  C   UNL     1       1.045   6.689  -1.644  0.00  0.00    +0.046 A 
ATOM     13  C   UNL     1       1.214   6.232  -0.342  0.00  0.00    +0.133 A 
ATOM     14  O   UNL     1       2.446   6.276   0.220  0.00  0.00    -0.455 OA
ATOM     15  C   UNL     1       2.579   6.240   1.568  0.00  0.00    +0.133 A 
ATOM     16  C   UNL     1       1.565   5.747   2.372  0.00  0.00    +0.011 A 
ATOM     17  C   UNL     1       1.726   5.721   3.746  0.00  0.00    +0.008 A 
ATOM     18  C   UNL     1       2.896   6.184   4.318  0.00  0.00    +0.001 A 
ATOM     19  C   UNL     1       3.909   6.678   3.518  0.00  0.00    +0.004 A 
ATOM     20  C   UNL     1       3.753   6.707   2.147  0.00  0.00    +0.046 A 
ENDBRANCH   4   7
ENDBRANCH   2   3
BRANCH   2  21
ATOM     21  C   UNL     1      -2.164   1.050   1.278  0.00  0.00    +0.126 C 
BRANCH  21  22
ATOM     22  N   UNL     1      -2.886   1.618   2.419  0.00  0.00    -0.313 N 
ATOM     23  C   UNL     1      -4.176   1.291   2.631  0.00  0.00    +0.225 C 
ATOM     24  O   UNL     1      -4.739   0.526   1.877  0.00  0.00    -0.275 OA
ATOM     25  H   UNL     1      -2.435   2.229   3.022  0.00  0.00    +0.149 HD
BRANCH  23  26
ATOM     26  C   UNL     1      -4.918   1.875   3.806  0.00  0.00    +0.142 C 
ATOM     27  C   UNL     1      -4.217   1.487   5.079  0.00  0.00    +0.011 A 
ATOM     28  C   UNL     1      -3.061   2.155   5.447  0.00  0.00    +0.008 A 
ATOM     29  C   UNL     1      -2.402   1.814   6.613  0.00  0.00    +0.001 A 
ATOM     30  C   UNL     1      -2.896   0.803   7.417  0.00  0.00    +0.004 A 
ATOM     31  C   UNL     1      -4.048   0.134   7.054  0.00  0.00    +0.046 A 
ATOM     32  C   UNL     1      -4.713   0.474   5.882  0.00  0.00    +0.133 A 
ATOM     33  O   UNL     1      -5.842  -0.194   5.545  0.00  0.00    -0.455 OA
ATOM     34  C   UNL     1      -6.721   0.354   4.672  0.00  0.00    +0.133 A 
ATOM     35  C   UNL     1      -6.332   1.361   3.804  0.00  0.00    +0.011 A 
ATOM     36  C   UNL     1      -7.250   1.904   2.923  0.00  0.00    +0.008 A 
ATOM     37  C   UNL     1      -8.554   1.446   2.906  0.00  0.00    +0.001 A 
ATOM     38  C   UNL     1      -8.945   0.441   3.771  0.00  0.00    +0.004 A 
ATOM     39  C   UNL     1      -8.033  -0.105   4.652  0.00  0.00    +0.046 A 
ENDBRANCH  23  26
ENDBRANCH  21  22
ENDBRANCH   2  21
TORSDOF 5
