REMARK  Name = ZINC25152205
REMARK  7 active torsions:
REMARK  status: ('A' for Active; 'I' for Inactive)
REMARK    1  A    between atoms: C_1  and  C_2
REMARK    2  A    between atoms: C_2  and  C_4
REMARK    3  A    between atoms: C_2  and  N_18
REMARK    4  A    between atoms: N_6  and  C_7
REMARK    5  A    between atoms: C_12  and  C_13
REMARK    6  A    between atoms: C_21  and  C_24
REMARK    7  A    between atoms: C_24  and  C_26
REMARK                            x       y       z     vdW  Elec       q    Type
REMARK                         _______ _______ _______ _____ _____    ______ ____
ROOT
ATOM      1  N   UNL     1      -7.732   0.121   0.883  0.00  0.00    +0.387 N 
ATOM      2  C   UNL     1      -7.486  -0.228  -0.522  0.00  0.00    -0.077 C 
ATOM      3  C   UNL     1      -6.159  -0.982  -0.637  0.00  0.00    -0.007 C 
ATOM      4  C   UNL     1      -5.027  -0.098  -0.105  0.00  0.00    +0.057 C 
ATOM      5  C   UNL     1      -5.331   0.292   1.344  0.00  0.00    -0.007 C 
ATOM      6  C   UNL     1      -6.683   1.008   1.402  0.00  0.00    -0.077 C 
ATOM      7  H   UNL     1      -7.705  -0.809   1.469  0.00  0.00    -0.081 HD
ENDROOT
BRANCH   1   9
ATOM      8  C   UNL     1      -9.335   0.948   2.539  0.00  0.00    -0.004 C 
ATOM      9  C   UNL     1      -9.061   0.724   1.051  0.00  0.00    +0.016 C 
BRANCH   9  10
ATOM     10  C   UNL     1      -9.109   2.045   0.327  0.00  0.00    +0.203 C 
ATOM     11  O   UNL     1      -8.146   2.425  -0.305  0.00  0.00    -0.277 OA
ATOM     12  N   UNL     1     -10.221   2.804   0.381  0.00  0.00    -0.286 N 
ATOM     13  H   UNL     1     -11.072   2.489   1.003  0.00  0.00    +0.155 HD
BRANCH  12  14
ATOM     14  C   UNL     1     -10.294   3.992  -0.354  0.00  0.00    +0.045 A 
ATOM     15  C   UNL     1      -9.156   4.766  -0.541  0.00  0.00    +0.025 A 
ATOM     16  C   UNL     1      -9.230   5.938  -1.267  0.00  0.00    +0.022 A 
ATOM     17  C   UNL     1     -10.438   6.342  -1.809  0.00  0.00    +0.042 A 
ATOM     18  C   UNL     1     -11.574   5.574  -1.623  0.00  0.00    +0.034 A 
ATOM     19  C   UNL     1     -11.504   4.398  -0.902  0.00  0.00    +0.077 A 
ATOM     20 CL   UNL     1     -10.529   7.816  -2.721  0.00  0.00    -0.084 Cl
BRANCH  19  21
ATOM     21  C   UNL     1     -12.740   3.558  -0.706  0.00  0.00    +0.419 C 
ATOM     22  F   UNL     1     -13.824   4.168  -1.346  0.00  0.00    -0.166 F 
ATOM     23  F   UNL     1     -12.531   2.287  -1.251  0.00  0.00    -0.166 F 
ATOM     24  F   UNL     1     -13.011   3.441   0.661  0.00  0.00    -0.166 F 
ENDBRANCH  19  21
ENDBRANCH  12  14
ENDBRANCH   9  10
ENDBRANCH   1   9
BRANCH   4  25
ATOM     25  C   UNL     1      -3.727  -0.858  -0.160  0.00  0.00    +0.166 C 
ATOM     26  O   UNL     1      -3.732  -2.071  -0.137  0.00  0.00    -0.292 OA
BRANCH  25  27
ATOM     27  C   UNL     1      -2.454  -0.130  -0.241  0.00  0.00    +0.021 A 
ATOM     28  C   UNL     1      -2.446   1.270  -0.268  0.00  0.00    +0.015 A 
ATOM     29  C   UNL     1      -1.251   1.948  -0.349  0.00  0.00    +0.050 A 
ATOM     30  C   UNL     1      -0.049   1.249  -0.397  0.00  0.00    +0.162 A 
ATOM     31  C   UNL     1      -0.050  -0.144  -0.368  0.00  0.00    +0.163 A 
ATOM     32  C   UNL     1      -1.245  -0.833  -0.292  0.00  0.00    +0.060 A 
ATOM     33  O   UNL     1       1.119  -0.842  -0.415  0.00  0.00    -0.485 OA
ATOM     34  C   UNL     1       2.275  -0.130  -0.868  0.00  0.00    +0.270 C 
ATOM     35  C   UNL     1       2.315   1.227  -0.151  0.00  0.00    +0.270 C 
ATOM     36  O   UNL     1       1.118   1.941  -0.477  0.00  0.00    -0.485 OA
ENDBRANCH  25  27
ENDBRANCH   4  25
TORSDOF 6
