REMARK  Name = ZINC63182759
REMARK  7 active torsions:
REMARK  status: ('A' for Active; 'I' for Inactive)
REMARK    1  A    between atoms: C_7  and  C_10
REMARK    2  A    between atoms: C_10  and  C_11
REMARK    3  A    between atoms: N_15  and  C_19
REMARK    4  A    between atoms: C_19  and  C_20
REMARK    5  A    between atoms: N_22  and  C_23
REMARK    6  A    between atoms: N_22  and  C_29
REMARK    7  A    between atoms: C_23  and  C_24
REMARK                            x       y       z     vdW  Elec       q    Type
REMARK                         _______ _______ _______ _____ _____    ______ ____
ROOT
ATOM      1  C   UNL     1      -0.344  -2.999  -3.512  0.00  0.00    +0.165 C 
ATOM      2  C   UNL     1      -0.952  -4.320  -3.082  0.00  0.00    +0.244 C 
ATOM      3  O   UNL     1      -0.383  -5.250  -2.553  0.00  0.00    -0.273 OA
ATOM      4  N   UNL     1      -2.257  -4.244  -3.410  0.00  0.00    -0.216 N 
ATOM      5  C   UNL     1      -2.555  -3.072  -3.982  0.00  0.00    +0.310 C 
ATOM      6  O   UNL     1      -3.669  -2.770  -4.364  0.00  0.00    -0.252 OA
ATOM      7  N   UNL     1      -1.482  -2.262  -4.088  0.00  0.00    -0.287 N 
ATOM      8  H   UNL     1      -1.461  -1.370  -4.468  0.00  0.00    +0.151 HD
ENDROOT
BRANCH   1   9
ATOM      9  C   UNL     1       0.226  -2.251  -2.305  0.00  0.00    +0.065 C 
BRANCH   9  16
ATOM     10  C   UNL     1      -1.269   2.076  -2.621  0.00  0.00    +0.001 A 
ATOM     11  C   UNL     1      -0.307   2.968  -3.115  0.00  0.00    +0.002 A 
ATOM     12  C   UNL     1       0.938   2.579  -3.462  0.00  0.00    +0.026 A 
ATOM     13  C   UNL     1       1.327   1.217  -3.335  0.00  0.00    +0.043 A 
ATOM     14  N   UNL     1       2.455   0.603  -3.600  0.00  0.00    -0.380 N 
ATOM     15  C   UNL     1       2.300  -0.820  -3.277  0.00  0.00    +0.144 C 
ATOM     16  C   UNL     1       0.885  -0.978  -2.769  0.00  0.00    -0.039 C 
ATOM     17  C   UNL     1       0.330   0.255  -2.815  0.00  0.00    -0.001 A 
ATOM     18  C   UNL     1      -1.002   0.760  -2.461  0.00  0.00    +0.010 A 
ATOM     19  H   UNL     1       3.258   1.020  -3.951  0.00  0.00    +0.160 HD
ENDBRANCH   9  16
ENDBRANCH   1   9
BRANCH   4  20
ATOM     20  C   UNL     1      -3.229  -5.314  -3.172  0.00  0.00    +0.214 C 
BRANCH  20  21
ATOM     21  C   UNL     1      -3.852  -5.133  -1.812  0.00  0.00    +0.238 C 
ATOM     22  O   UNL     1      -3.461  -4.250  -1.078  0.00  0.00    -0.274 OA
ATOM     23  N   UNL     1      -4.845  -5.951  -1.411  0.00  0.00    -0.267 N 
BRANCH  23  24
ATOM     24  C   UNL     1      -5.224  -7.028  -2.208  0.00  0.00    +0.010 C 
ATOM     25  C   UNL     1      -4.376  -8.007  -2.359  0.00  0.00    -0.008 C 
ATOM     26  C   UNL     1      -4.642  -9.226  -3.194  0.00  0.00    +0.029 C 
ATOM     27  C   UNL     1      -6.141  -9.356  -3.472  0.00  0.00    +0.004 C 
ATOM     28  C   UNL     1      -6.660  -8.007  -3.985  0.00  0.00    +0.006 C 
ATOM     29  C   UNL     1      -6.586  -6.995  -2.837  0.00  0.00    +0.051 C 
ENDBRANCH  23  24
BRANCH  23  30
ATOM     30  C   UNL     1      -5.526  -5.708  -0.137  0.00  0.00    +0.187 C 
BRANCH  30  31
ATOM     31  C   UNL     1      -6.638  -4.712  -0.343  0.00  0.00    +0.122 A 
ATOM     32  C   UNL     1      -7.911  -5.009  -0.659  0.00  0.00    +0.046 A 
ATOM     33  C   UNL     1      -8.606  -3.782  -0.755  0.00  0.00    +0.041 A 
ATOM     34  C   UNL     1      -7.716  -2.808  -0.492  0.00  0.00    +0.195 A 
ATOM     35  O   UNL     1      -6.527  -3.378  -0.238  0.00  0.00    -0.466 OA
ENDBRANCH  30  31
ENDBRANCH  23  30
ENDBRANCH  20  21
ENDBRANCH   4  20
TORSDOF 7
