REMARK  Name = ZINC08970025
REMARK  10 active torsions:
REMARK  status: ('A' for Active; 'I' for Inactive)
REMARK    1  A    between atoms: C_3  and  S_6
REMARK    2  A    between atoms: S_6  and  C_9
REMARK    3  A    between atoms: C_9  and  C_11
REMARK    4  A    between atoms: C_9  and  C_27
REMARK    5  A    between atoms: C_11  and  N_12
REMARK    6  A    between atoms: C_13  and  C_15
REMARK    7  A    between atoms: N_17  and  C_18
REMARK    8  A    between atoms: C_18  and  C_19
REMARK    9  A    between atoms: C_19  and  C_20
REMARK   10  A    between atoms: C_23  and  O_26
REMARK                            x       y       z     vdW  Elec       q    Type
REMARK                         _______ _______ _______ _____ _____    ______ ____
ROOT
ATOM      1  C   UNL     1       1.262  -8.450  -3.830  0.00  0.00    +0.136 C 
ENDROOT
BRANCH   1   2
ATOM      2  N   UNL     1       1.245  -6.985  -3.822  0.00  0.00    -0.305 N 
ATOM      3  C   UNL     1       1.248  -6.317  -2.652  0.00  0.00    +0.299 C 
ATOM      4  O   UNL     1       1.266  -6.929  -1.604  0.00  0.00    -0.265 OA
ATOM      5  H   UNL     1       1.231  -6.496  -4.660  0.00  0.00    +0.149 HD
BRANCH   3   6
ATOM      6  C   UNL     1       1.231  -4.823  -2.644  0.00  0.00    +0.299 C 
ATOM      7  O   UNL     1       1.214  -4.211  -3.692  0.00  0.00    -0.265 OA
ATOM      8  N   UNL     1       1.234  -4.155  -1.474  0.00  0.00    -0.307 N 
ATOM      9  H   UNL     1       1.248  -4.644  -0.636  0.00  0.00    +0.149 HD
BRANCH   8  10
ATOM     10  C   UNL     1       1.217  -2.690  -1.466  0.00  0.00    +0.109 C 
BRANCH  10  11
ATOM     11  C   UNL     1       1.226  -2.187  -0.021  0.00  0.00    +0.054 C 
BRANCH  11  12
ATOM     12  C   UNL     1       1.208  -0.680  -0.013  0.00  0.00    -0.046 A 
ATOM     13  C   UNL     1       0.002  -0.004   0.002  0.00  0.00    +0.007 A 
ATOM     14  C   UNL     1      -0.017   1.377   0.010  0.00  0.00    +0.045 A 
ATOM     15  C   UNL     1       1.176   2.086   0.002  0.00  0.00    +0.117 A 
ATOM     16  C   UNL     1       2.385   1.405  -0.013  0.00  0.00    +0.045 A 
ATOM     17  C   UNL     1       2.398   0.024  -0.021  0.00  0.00    +0.007 A 
BRANCH  15  18
ATOM     18  O   UNL     1       1.160   3.445   0.009  0.00  0.00    -0.507 OA
ATOM     19  H   UNL     1       1.164   3.834   0.894  0.00  0.00    +0.292 HD
ENDBRANCH  15  18
ENDBRANCH  11  12
ENDBRANCH  10  11
ENDBRANCH   8  10
ENDBRANCH   3   6
ENDBRANCH   1   2
BRANCH   1  20
ATOM     20  C   UNL     1       1.254  -8.953  -5.275  0.00  0.00    +0.183 C 
BRANCH  20  21
ATOM     21  C   UNL     1       1.271 -10.459  -5.283  0.00  0.00    -0.018 A 
ATOM     22  C   UNL     1       2.325 -11.140  -4.702  0.00  0.00    +0.009 A 
ATOM     23  C   UNL     1       2.344 -12.522  -4.703  0.00  0.00    +0.050 A 
ATOM     24  C   UNL     1       1.309 -13.229  -5.295  0.00  0.00    +0.166 A 
ATOM     25  C   UNL     1       0.250 -12.543  -5.884  0.00  0.00    +0.167 A 
ATOM     26  C   UNL     1       0.236 -11.158  -5.875  0.00  0.00    +0.055 A 
ATOM     27  O   UNL     1      -0.630 -13.454  -6.392  0.00  0.00    -0.453 OA
ATOM     28  C   UNL     1      -0.305 -14.702  -5.751  0.00  0.00    +0.466 C 
ATOM     29  O   UNL     1       1.093 -14.570  -5.434  0.00  0.00    -0.453 OA
ENDBRANCH  20  21
BRANCH  20  30
ATOM     30  S   UNL     1       2.719  -8.326  -6.141  0.00  0.00    +0.011 S 
ATOM     31  O   UNL     1       2.822  -8.925  -7.426  0.00  0.00    -0.168 OA
ATOM     32  O   UNL     1       2.812  -6.917  -5.990  0.00  0.00    -0.168 OA
BRANCH  30  35
ATOM     33  C   UNL     1       5.813 -10.433  -4.571  0.00  0.00    +0.009 A 
ATOM     34  C   UNL     1       4.756 -10.134  -5.410  0.00  0.00    +0.035 A 
ATOM     35  C   UNL     1       4.088  -8.967  -5.236  0.00  0.00    +0.126 A 
ATOM     36  S   UNL     1       4.962  -8.244  -3.857  0.00  0.00    -0.078 S 
ATOM     37  C   UNL     1       6.151  -9.550  -3.599  0.00  0.00    +0.047 A 
ENDBRANCH  30  35
ENDBRANCH  20  30
ENDBRANCH   1  20
TORSDOF 10
