REMARK  Name = ZINC13063823
REMARK  15 active torsions:
REMARK  status: ('A' for Active; 'I' for Inactive)
REMARK    1  A    between atoms: C_1  and  C_2
REMARK    2  A    between atoms: C_2  and  C_3
REMARK    3  A    between atoms: C_3  and  C_5
REMARK    4  A    between atoms: C_3  and  N_77
REMARK    5  A    between atoms: N_9  and  C_10
REMARK    6  A    between atoms: C_15  and  C_16
REMARK    7  A    between atoms: C_15  and  N_77
REMARK    8  A    between atoms: C_16  and  C_17
REMARK    9  A    between atoms: C_20  and  O_25
REMARK   10  A    between atoms: C_21  and  O_23
REMARK   11  A    between atoms: O_23  and  C_24
REMARK   12  A    between atoms: O_25  and  C_26
REMARK   13  A    between atoms: C_27  and  C_28
REMARK   14  A    between atoms: C_27  and  N_77
REMARK   15  A    between atoms: C_33  and  C_40
REMARK                            x       y       z     vdW  Elec       q    Type
REMARK                         _______ _______ _______ _____ _____    ______ ____
ROOT
ATOM      1  N   UNL     1       1.447   3.805   0.891  0.00  0.00    +0.389 N 
ATOM      2  H   UNL     1       1.636   3.341   1.788  0.00  0.00    -0.080 HD
ENDROOT
BRANCH   1   3
ATOM      3  C   UNL     1       2.087   3.031  -0.193  0.00  0.00    +0.003 C 
BRANCH   3   4
ATOM      4  C   UNL     1       2.126   1.580   0.212  0.00  0.00    +0.138 A 
ATOM      5  N   UNL     1       1.426   1.014   1.164  0.00  0.00    -0.115 NA
ATOM      6  N   UNL     1       1.740  -0.235   1.201  0.00  0.00    -0.023 NA
ATOM      7  N   UNL     1       2.623  -0.480   0.297  0.00  0.00    -0.044 NA
ATOM      8  N   UNL     1       2.888   0.614  -0.334  0.00  0.00    -0.228 N 
BRANCH   8   9
ATOM      9  C   UNL     1       3.837   0.773  -1.438  0.00  0.00    +0.111 C 
ATOM     10  C   UNL     1       3.458  -0.167  -2.601  0.00  0.00    +0.027 C 
ATOM     11  C   UNL     1       4.822  -0.643  -3.163  0.00  0.00    +0.002 C 
ATOM     12  C   UNL     1       5.680  -0.810  -1.884  0.00  0.00    +0.002 C 
ATOM     13  C   UNL     1       5.249   0.365  -0.983  0.00  0.00    +0.027 C 
ENDBRANCH   8   9
ENDBRANCH   3   4
BRANCH   3  15
ATOM     14  C   UNL     1       1.361   4.626  -1.974  0.00  0.00    +0.002 C 
ATOM     15  C   UNL     1       1.291   3.176  -1.492  0.00  0.00    -0.011 C 
ENDBRANCH   3  15
ENDBRANCH   1   3
BRANCH   1  16
ATOM     16  C   UNL     1      -0.014   3.861   0.678  0.00  0.00    -0.073 C 
BRANCH  16  17
ATOM     17  C   UNL     1      -0.611   2.490   1.000  0.00  0.00    +0.017 C 
BRANCH  17  18
ATOM     18  C   UNL     1      -2.115   2.567   0.932  0.00  0.00    -0.045 A 
ATOM     19  C   UNL     1      -2.841   2.887   2.064  0.00  0.00    +0.007 A 
ATOM     20  C   UNL     1      -4.220   2.965   2.006  0.00  0.00    +0.049 A 
ATOM     21  C   UNL     1      -4.878   2.712   0.813  0.00  0.00    +0.161 A 
ATOM     22  C   UNL     1      -4.147   2.385  -0.326  0.00  0.00    +0.162 A 
ATOM     23  C   UNL     1      -2.765   2.314  -0.262  0.00  0.00    +0.053 A 
BRANCH  22  24
ATOM     24  O   UNL     1      -4.789   2.137  -1.499  0.00  0.00    -0.491 OA
ATOM     25  C   UNL     1      -3.975   1.808  -2.626  0.00  0.00    +0.277 C 
ENDBRANCH  22  24
BRANCH  21  26
ATOM     26  O   UNL     1      -6.235   2.784   0.755  0.00  0.00    -0.491 OA
ATOM     27  C   UNL     1      -6.919   3.125   1.962  0.00  0.00    +0.277 C 
ENDBRANCH  21  26
ENDBRANCH  17  18
ENDBRANCH  16  17
ENDBRANCH   1  16
BRANCH   1  28
ATOM     28  C   UNL     1       2.005   5.173   0.932  0.00  0.00    -0.037 C 
BRANCH  28  29
ATOM     29  C   UNL     1       3.354   5.125   1.602  0.00  0.00    +0.001 A 
ATOM     30  C   UNL     1       4.479   5.050   0.849  0.00  0.00    +0.017 A 
ATOM     31  C   UNL     1       5.774   5.004   1.530  0.00  0.00    -0.001 A 
ATOM     32  C   UNL     1       6.970   4.927   0.808  0.00  0.00    +0.010 A 
ATOM     33  C   UNL     1       8.162   4.887   1.473  0.00  0.00    +0.004 A 
ATOM     34  C   UNL     1       8.198   4.922   2.861  0.00  0.00    -0.048 A 
ATOM     35  C   UNL     1       7.033   4.998   3.593  0.00  0.00    +0.029 A 
ATOM     36  C   UNL     1       5.807   5.040   2.937  0.00  0.00    +0.049 A 
ATOM     37  N   UNL     1       4.626   5.117   3.644  0.00  0.00    -0.322 N 
ATOM     38  H   UNL     1       4.651   5.142   4.614  0.00  0.00    +0.169 HD
ATOM     39  C   UNL     1       3.442   5.164   3.010  0.00  0.00    +0.251 A 
ATOM     40  O   UNL     1       2.418   5.236   3.667  0.00  0.00    -0.268 OA
ATOM     41  C   UNL     1       9.525   4.876   3.574  0.00  0.00    +0.044 C 
ENDBRANCH  28  29
ENDBRANCH   1  28
TORSDOF 11
