REMARK  Name = ZINC20698195
REMARK  9 active torsions:
REMARK  status: ('A' for Active; 'I' for Inactive)
REMARK    1  A    between atoms: C_1  and  C_2
REMARK    2  A    between atoms: C_2  and  C_3
REMARK    3  A    between atoms: C_2  and  C_4
REMARK    4  A    between atoms: C_4  and  O_5
REMARK    5  A    between atoms: O_5  and  C_6
REMARK    6  A    between atoms: C_13  and  C_22
REMARK    7  A    between atoms: C_25  and  C_28
REMARK    8  A    between atoms: C_28  and  C_29
REMARK    9  A    between atoms: C_28  and  C_30
REMARK                            x       y       z     vdW  Elec       q    Type
REMARK                         _______ _______ _______ _____ _____    ______ ____
ROOT
ATOM      1  C   UNL     1       1.174   1.787   0.000  0.00  0.00    +0.142 A 
ATOM      2  C   UNL     1      -0.013   1.076   0.008  0.00  0.00    +0.047 A 
ATOM      3  C   UNL     1      -1.218   1.754   0.017  0.00  0.00    +0.004 A 
ATOM      4  C   UNL     1      -1.234   3.133   0.029  0.00  0.00    +0.006 A 
ATOM      5  C   UNL     1      -0.049   3.859   0.020  0.00  0.00    -0.016 A 
ATOM      6  C   UNL     1       1.158   3.185   0.009  0.00  0.00    +0.074 A 
ATOM      7  N   UNL     1       2.385   3.854   0.009  0.00  0.00    -0.334 N 
ATOM      8  C   UNL     1       2.284   5.193  -0.573  0.00  0.00    +0.105 C 
ATOM      9  C   UNL     1       1.247   6.009   0.202  0.00  0.00    +0.029 C 
ATOM     10  C   UNL     1      -0.140   5.356   0.019  0.00  0.00    +0.049 C 
ATOM     11  C   UNL     1      -0.611   5.861  -1.325  0.00  0.00    -0.023 C 
ATOM     12  C   UNL     1       0.030   6.955  -1.653  0.00  0.00    -0.030 C 
ATOM     13  C   UNL     1       1.017   7.339  -0.568  0.00  0.00    +0.033 C 
ATOM     14  H   UNL     1       3.352   3.488   0.382  0.00  0.00    +0.147 HD
ENDROOT
BRANCH   8  15
ATOM     15  C   UNL     1       3.624   5.878  -0.491  0.00  0.00    -0.027 A 
ATOM     16  C   UNL     1       4.404   5.739   0.642  0.00  0.00    +0.006 A 
ATOM     17  C   UNL     1       5.635   6.363   0.715  0.00  0.00    +0.004 A 
ATOM     18  C   UNL     1       6.082   7.135  -0.342  0.00  0.00    -0.045 A 
ATOM     19  C   UNL     1       5.301   7.278  -1.473  0.00  0.00    +0.004 A 
ATOM     20  C   UNL     1       4.071   6.650  -1.547  0.00  0.00    +0.006 A 
BRANCH  18  21
ATOM     21  C   UNL     1       7.422   7.819  -0.260  0.00  0.00    +0.013 C 
ATOM     22  C   UNL     1       7.432   8.781   0.929  0.00  0.00    +0.012 C 
ATOM     23  C   UNL     1       8.521   6.770  -0.078  0.00  0.00    +0.012 C 
ENDBRANCH  18  21
ENDBRANCH   8  15
BRANCH   1  24
ATOM     24  O   UNL     1       2.361   1.123  -0.014  0.00  0.00    -0.490 OA
BRANCH  24  25
ATOM     25  C   UNL     1       2.305  -0.305  -0.021  0.00  0.00    +0.232 C 
BRANCH  25  27
ATOM     26  C   UNL     1       3.671  -2.395   0.080  0.00  0.00    +0.010 C 
ATOM     27  C   UNL     1       3.727  -0.870  -0.038  0.00  0.00    +0.020 C 
ATOM     28  C   UNL     1       4.414  -0.485  -1.350  0.00  0.00    +0.010 C 
ENDBRANCH  25  27
ENDBRANCH  24  25
ENDBRANCH   1  24
TORSDOF 5
