REMARK  Name = ZINC38547884
REMARK  8 active torsions:
REMARK  status: ('A' for Active; 'I' for Inactive)
REMARK    1  A    between atoms: C_1  and  C_2
REMARK    2  A    between atoms: C_2  and  C_3
REMARK    3  A    between atoms: C_5  and  C_16
REMARK    4  A    between atoms: C_6  and  N_8
REMARK    5  A    between atoms: C_9  and  C_11
REMARK    6  A    between atoms: C_16  and  C_18
REMARK    7  A    between atoms: C_16  and  N_25
REMARK    8  A    between atoms: C_30  and  C_32
REMARK                            x       y       z     vdW  Elec       q    Type
REMARK                         _______ _______ _______ _____ _____    ______ ____
ROOT
ATOM      1  C   UNL     1      -4.422  -1.629  -1.927  0.00  0.00    +0.135 C 
ENDROOT
BRANCH   1   2
ATOM      2  N   UNL     1      -3.634  -1.957  -3.117  0.00  0.00    -0.320 N 
ATOM      3  C   UNL     1      -4.172  -2.775  -4.104  0.00  0.00    +0.097 A 
ATOM      4  C   UNL     1      -5.463  -3.274  -3.957  0.00  0.00    +0.041 A 
ATOM      5  C   UNL     1      -5.986  -4.087  -4.947  0.00  0.00    +0.005 A 
ATOM      6  C   UNL     1      -5.198  -4.373  -6.054  0.00  0.00    +0.021 A 
ATOM      7  C   UNL     1      -3.926  -3.844  -6.135  0.00  0.00    +0.014 A 
ATOM      8  N   UNL     1      -3.454  -3.067  -5.177  0.00  0.00    -0.347 N 
ATOM      9  C   UNL     1      -3.066  -4.152  -7.333  0.00  0.00    +0.063 C 
ATOM     10  H   UNL     1      -2.736  -1.603  -3.217  0.00  0.00    +0.148 HD
ATOM     11  H   UNL     1      -2.558  -2.704  -5.261  0.00  0.00    +0.167 HD
ENDBRANCH   1   2
BRANCH   1  12
ATOM     12  C   UNL     1      -5.308  -0.447  -2.221  0.00  0.00    -0.023 A 
ATOM     13  C   UNL     1      -4.827   0.606  -2.977  0.00  0.00    +0.007 A 
ATOM     14  C   UNL     1      -5.640   1.691  -3.247  0.00  0.00    +0.015 A 
ATOM     15  C   UNL     1      -6.934   1.724  -2.761  0.00  0.00    +0.018 A 
ATOM     16  C   UNL     1      -7.415   0.670  -2.005  0.00  0.00    +0.015 A 
ATOM     17  C   UNL     1      -6.604  -0.417  -1.739  0.00  0.00    +0.007 A 
ATOM     18 BR   UNL     1      -8.046   3.208  -3.130  0.00  0.00    -0.050 Br
ENDBRANCH   1  12
BRANCH   1  21
ATOM     19  C   UNL     1      -1.412  -0.526   0.013  0.00  0.00    -0.008 A 
ATOM     20  C   UNL     1      -2.219  -0.820  -1.034  0.00  0.00    +0.019 A 
ATOM     21  C   UNL     1      -3.495  -1.292  -0.787  0.00  0.00    +0.006 A 
ATOM     22  C   UNL     1      -3.900  -1.445   0.505  0.00  0.00    +0.078 A 
ATOM     23  S   UNL     1      -2.451  -0.922   1.409  0.00  0.00    -0.078 S 
BRANCH  22  24
ATOM     24  N   UNL     1      -5.126  -1.899   0.995  0.00  0.00    -0.273 N 
ATOM     25  C   UNL     1      -5.332  -1.980   2.324  0.00  0.00    +0.284 C 
ATOM     26  O   UNL     1      -4.450  -1.657   3.098  0.00  0.00    -0.266 OA
ATOM     27  H   UNL     1      -5.829  -2.156   0.378  0.00  0.00    +0.156 HD
BRANCH  25  28
ATOM     28  C   UNL     1      -6.620  -2.456   2.839  0.00  0.00    +0.189 A 
ATOM     29  C   UNL     1      -6.962  -2.581   4.155  0.00  0.00    +0.054 A 
ATOM     30  C   UNL     1      -8.278  -3.068   4.186  0.00  0.00    +0.042 A 
ATOM     31  C   UNL     1      -8.677  -3.218   2.903  0.00  0.00    +0.196 A 
ATOM     32  O   UNL     1      -7.677  -2.843   2.095  0.00  0.00    -0.458 OA
ENDBRANCH  25  28
ENDBRANCH  22  24
BRANCH  19  34
ATOM     33  C   UNL     1      -0.019   1.526   0.010  0.00  0.00    +0.009 C 
ATOM     34  C   UNL     1       0.002  -0.004   0.002  0.00  0.00    +0.039 C 
ENDBRANCH  19  34
ENDBRANCH   1  21
TORSDOF 6
