REMARK  Name = ZINC09461752
REMARK  5 active torsions:
REMARK  status: ('A' for Active; 'I' for Inactive)
REMARK    1  A    between atoms: C_4  and  C_7
REMARK    2  A    between atoms: C_10  and  C_29
REMARK    3  A    between atoms: C_11  and  C_19
REMARK    4  A    between atoms: C_29  and  N_31
REMARK    5  A    between atoms: N_31  and  C_32
REMARK                            x       y       z     vdW  Elec       q    Type
REMARK                         _______ _______ _______ _____ _____    ______ ____
ROOT
ATOM      1  C   UNL     1      -7.411  -2.439   0.065  0.00  0.00    +0.163 A 
ATOM      2  N   UNL     1      -6.565  -2.664  -0.924  0.00  0.00    -0.146 NA
ATOM      3  N   UNL     1      -5.301  -2.163  -0.582  0.00  0.00    -0.211 N 
ATOM      4  C   UNL     1      -3.969  -1.952  -0.887  0.00  0.00    +0.104 A 
ATOM      5  C   UNL     1      -3.318  -1.456   0.268  0.00  0.00    +0.017 A 
ATOM      6  C   UNL     1      -4.272  -1.341   1.256  0.00  0.00    +0.005 A 
ATOM      7  C   UNL     1      -5.467  -1.682   0.658  0.00  0.00    +0.141 A 
ATOM      8  N   UNL     1      -6.774  -1.738   1.045  0.00  0.00    -0.309 N 
ATOM      9  C   UNL     1      -7.253  -1.027   2.248  0.00  0.00    +0.125 C 
ATOM     10  C   UNL     1      -6.506   0.313   2.271  0.00  0.00    +0.022 C 
ATOM     11  C   UNL     1      -5.105   0.310   2.902  0.00  0.00    +0.006 C 
ATOM     12  C   UNL     1      -4.304  -0.968   2.715  0.00  0.00    +0.039 C 
ENDROOT
BRANCH   5  13
ATOM     13  C   UNL     1      -1.881  -1.118   0.390  0.00  0.00    -0.012 A 
ATOM     14  C   UNL     1      -1.489   0.203   0.609  0.00  0.00    +0.012 A 
ATOM     15  C   UNL     1      -0.151   0.515   0.717  0.00  0.00    +0.050 A 
ATOM     16  C   UNL     1       0.811  -0.481   0.617  0.00  0.00    +0.162 A 
ATOM     17  C   UNL     1       0.426  -1.801   0.401  0.00  0.00    +0.163 A 
ATOM     18  C   UNL     1      -0.916  -2.120   0.287  0.00  0.00    +0.058 A 
ATOM     19  O   UNL     1       1.356  -2.790   0.301  0.00  0.00    -0.485 OA
ATOM     20  C   UNL     1       2.705  -2.382   0.047  0.00  0.00    +0.270 C 
ATOM     21  C   UNL     1       3.041  -1.220   0.990  0.00  0.00    +0.270 C 
ATOM     22  O   UNL     1       2.127  -0.150   0.727  0.00  0.00    -0.485 OA
ENDBRANCH   5  13
BRANCH   1  26
ATOM     23  C   UNL     1     -11.468  -3.697   0.172  0.00  0.00    +0.000 A 
ATOM     24  C   UNL     1     -10.773  -3.714  -1.024  0.00  0.00    +0.001 A 
ATOM     25  C   UNL     1      -9.456  -3.307  -1.065  0.00  0.00    +0.011 A 
ATOM     26  C   UNL     1      -8.824  -2.877   0.102  0.00  0.00    +0.019 A 
ATOM     27  C   UNL     1      -9.529  -2.868   1.306  0.00  0.00    +0.011 A 
ATOM     28  C   UNL     1     -10.848  -3.272   1.333  0.00  0.00    +0.001 A 
ENDBRANCH   1  26
BRANCH   4  29
ATOM     29  C   UNL     1      -3.362  -2.193  -2.136  0.00  0.00    +0.103 C 
ATOM     30  S   UNL     1      -1.693  -1.881  -2.350  0.00  0.00    -0.033 S 
BRANCH  29  31
ATOM     31  N   UNL     1      -4.096  -2.668  -3.161  0.00  0.00    -0.307 N 
ATOM     32  H   UNL     1      -5.027  -2.902  -3.024  0.00  0.00    +0.153 HD
BRANCH  31  33
ATOM     33  C   UNL     1      -3.516  -2.823  -4.423  0.00  0.00    +0.032 A 
ATOM     34  C   UNL     1      -4.193  -2.394  -5.558  0.00  0.00    +0.023 A 
ATOM     35  C   UNL     1      -3.614  -2.544  -6.803  0.00  0.00    +0.002 A 
ATOM     36  C   UNL     1      -2.367  -3.130  -6.922  0.00  0.00    +0.000 A 
ATOM     37  C   UNL     1      -1.693  -3.562  -5.795  0.00  0.00    +0.002 A 
ATOM     38  C   UNL     1      -2.263  -3.410  -4.546  0.00  0.00    +0.023 A 
ENDBRANCH  31  33
ENDBRANCH  29  31
ENDBRANCH   4  29
TORSDOF 5
