REMARK  Name = ZINC09000140
REMARK  10 active torsions:
REMARK  status: ('A' for Active; 'I' for Inactive)
REMARK    1  A    between atoms: C_1  and  C_2
REMARK    2  A    between atoms: C_2  and  C_3
REMARK    3  A    between atoms: N_9  and  S_10
REMARK    4  A    between atoms: S_10  and  C_13
REMARK    5  A    between atoms: C_16  and  C_19
REMARK    6  A    between atoms: C_19  and  N_21
REMARK    7  A    between atoms: N_23  and  C_35
REMARK    8  A    between atoms: C_27  and  N_31
REMARK    9  A    between atoms: C_32  and  C_34
REMARK   10  A    between atoms: C_35  and  C_36
REMARK                            x       y       z     vdW  Elec       q    Type
REMARK                         _______ _______ _______ _____ _____    ______ ____
ROOT
ATOM      1  C   UNL     1      -8.742   1.893  -0.032  0.00  0.00    +0.269 C 
ATOM      2  O   UNL     1      -8.358   0.771   0.251  0.00  0.00    -0.268 OA
ENDROOT
BRANCH   1   3
ATOM      3  N   UNL     1      -7.868   2.814  -0.449  0.00  0.00    -0.152 NA
ATOM      4  C   UNL     1      -6.579   2.507  -0.555  0.00  0.00    +0.167 A 
ATOM      5  N   UNL     1      -5.553   3.303  -0.957  0.00  0.00    -0.317 N 
ATOM      6  C   UNL     1      -4.264   2.803  -1.003  0.00  0.00    +0.058 A 
ATOM      7  C   UNL     1      -3.087   3.465  -1.388  0.00  0.00    +0.029 A 
ATOM      8  C   UNL     1      -1.876   2.817  -1.371  0.00  0.00    +0.025 A 
ATOM      9  C   UNL     1      -1.779   1.484  -0.985  0.00  0.00    +0.035 A 
ATOM     10  C   UNL     1      -2.929   0.806  -0.600  0.00  0.00    +0.040 A 
ATOM     11  C   UNL     1      -4.137   1.461  -0.613  0.00  0.00    +0.041 A 
ATOM     12  S   UNL     1      -5.803   0.994  -0.213  0.00  0.00    -0.052 S 
BRANCH   9  13
ATOM     13  N   UNL     1      -0.537   0.836  -0.979  0.00  0.00    -0.286 N 
ATOM     14  C   UNL     1      -0.459  -0.472  -1.295  0.00  0.00    +0.214 C 
ATOM     15  O   UNL     1      -1.470  -1.107  -1.506  0.00  0.00    -0.276 OA
ATOM     16  C   UNL     1       0.887  -1.145  -1.387  0.00  0.00    +0.109 C 
ATOM     17  H   UNL     1       0.265   1.327  -0.743  0.00  0.00    +0.155 HD
ENDBRANCH   9  13
BRANCH   5  18
ATOM     18  C   UNL     1      -5.813   4.693  -1.341  0.00  0.00    +0.151 C 
BRANCH  18  19
ATOM     19  C   UNL     1      -7.203   4.805  -1.911  0.00  0.00    -0.013 C 
ATOM     20  C   UNL     1      -8.052   5.664  -1.403  0.00  0.00    +0.005 C 
ENDBRANCH  18  19
ENDBRANCH   5  18
ENDBRANCH   1   3
BRANCH   1  24
ATOM     21  C   UNL     1     -12.864   2.874   0.307  0.00  0.00    +0.106 A 
ATOM     22  C   UNL     1     -12.430   1.600   0.629  0.00  0.00    +0.029 A 
ATOM     23  C   UNL     1     -11.093   1.276   0.521  0.00  0.00    +0.015 A 
ATOM     24  C   UNL     1     -10.179   2.235   0.086  0.00  0.00    +0.039 A 
ATOM     25  C   UNL     1     -10.621   3.519  -0.232  0.00  0.00    +0.015 A 
ATOM     26  C   UNL     1     -11.961   3.830  -0.125  0.00  0.00    +0.029 A 
BRANCH  21  27
ATOM     27  S   UNL     1     -14.572   3.281   0.449  0.00  0.00    +0.061 S 
ATOM     28  O   UNL     1     -14.763   4.489  -0.275  0.00  0.00    -0.153 OA
ATOM     29  O   UNL     1     -15.298   2.095   0.156  0.00  0.00    -0.153 OA
BRANCH  27  35
ATOM     30  C   UNL     1     -14.569   4.969   2.578  0.00  0.00    +0.080 C 
ATOM     31  C   UNL     1     -15.829   5.512   3.260  0.00  0.00    +0.021 C 
ATOM     32  C   UNL     1     -16.311   4.506   4.307  0.00  0.00    +0.003 C 
ATOM     33  C   UNL     1     -16.666   3.184   3.622  0.00  0.00    +0.017 C 
ATOM     34  C   UNL     1     -15.421   2.616   2.942  0.00  0.00    +0.110 C 
ATOM     35  N   UNL     1     -14.861   3.633   2.041  0.00  0.00    -0.174 NA
BRANCH  30  37
ATOM     36  C   UNL     1     -13.703   7.243   2.014  0.00  0.00    +0.005 C 
ATOM     37  C   UNL     1     -14.158   5.901   1.437  0.00  0.00    +0.017 C 
ENDBRANCH  30  37
ENDBRANCH  27  35
ENDBRANCH  21  27
ENDBRANCH   1  24
TORSDOF 8
