REMARK  Name = ZINC16562643
REMARK  9 active torsions:
REMARK  status: ('A' for Active; 'I' for Inactive)
REMARK    1  A    between atoms: C_1  and  C_2
REMARK    2  A    between atoms: C_8  and  C_17
REMARK    3  A    between atoms: C_12  and  C_13
REMARK    4  A    between atoms: C_13  and  O_15
REMARK    5  A    between atoms: O_15  and  C_16
REMARK    6  A    between atoms: C_17  and  N_18
REMARK    7  A    between atoms: N_18  and  C_19
REMARK    8  A    between atoms: N_18  and  C_20
REMARK    9  A    between atoms: C_20  and  C_21
REMARK                            x       y       z     vdW  Elec       q    Type
REMARK                         _______ _______ _______ _____ _____    ______ ____
ROOT
ATOM      1  C   UNL     1      -0.500   1.339   0.176  0.00  0.00    +0.046 C 
ATOM      2  C   UNL     1      -0.614  -0.162   0.099  0.00  0.00    -0.015 A 
ATOM      3  C   UNL     1      -0.406  -0.817  -1.116  0.00  0.00    +0.076 A 
ATOM      4  C   UNL     1      -0.068  -0.248  -2.441  0.00  0.00    +0.260 A 
ATOM      5  O   UNL     1       0.069   0.953  -2.588  0.00  0.00    -0.267 OA
ATOM      6  N   UNL     1       0.085  -1.094  -3.478  0.00  0.00    -0.309 N 
ATOM      7  H   UNL     1       0.307  -0.738  -4.353  0.00  0.00    +0.170 HD
ATOM      8  C   UNL     1      -0.066  -2.433  -3.326  0.00  0.00    +0.125 A 
ATOM      9  N   UNL     1      -0.363  -2.967  -2.172  0.00  0.00    -0.225 NA
ATOM     10  C   UNL     1      -0.536  -2.225  -1.086  0.00  0.00    +0.116 A 
ATOM     11  S   UNL     1      -0.935  -2.562   0.611  0.00  0.00    -0.062 S 
ATOM     12  C   UNL     1      -0.914  -0.883   1.218  0.00  0.00    +0.102 A 
ENDROOT
BRANCH  12  13
ATOM     13  C   UNL     1      -1.162  -0.401   2.578  0.00  0.00    +0.346 C 
ATOM     14  O   UNL     1      -1.109   0.790   2.820  0.00  0.00    -0.244 OA
BRANCH  13  15
ATOM     15  O   UNL     1      -1.447  -1.276   3.563  0.00  0.00    -0.464 OA
ATOM     16  C   UNL     1      -1.677  -0.736   4.866  0.00  0.00    +0.280 C 
ENDBRANCH  13  15
ENDBRANCH  12  13
BRANCH   8  17
ATOM     17  C   UNL     1       0.117  -3.331  -4.522  0.00  0.00    +0.158 C 
BRANCH  17  18
ATOM     18  N   UNL     1      -0.092  -4.729  -4.122  0.00  0.00    -0.294 NA
ATOM     19  C   UNL     1      -1.487  -4.959  -3.721  0.00  0.00    +0.105 C 
BRANCH  18  20
ATOM     20  C   UNL     1       0.305  -5.649  -5.196  0.00  0.00    +0.120 C 
BRANCH  20  21
ATOM     21  C   UNL     1       0.451  -7.040  -4.636  0.00  0.00    -0.019 A 
ATOM     22  C   UNL     1      -0.525  -7.989  -4.878  0.00  0.00    +0.006 A 
ATOM     23  C   UNL     1      -0.391  -9.265  -4.365  0.00  0.00    +0.000 A 
ATOM     24  C   UNL     1       0.720  -9.594  -3.610  0.00  0.00    +0.001 A 
ATOM     25  C   UNL     1       1.696  -8.647  -3.368  0.00  0.00    +0.015 A 
ATOM     26  C   UNL     1       1.565  -7.371  -3.885  0.00  0.00    +0.022 A 
ATOM     27 BR   UNL     1       2.904  -6.076  -3.560  0.00  0.00    -0.050 Br
ENDBRANCH  20  21
ENDBRANCH  18  20
ENDBRANCH  17  18
ENDBRANCH   8  17
TORSDOF 6
