REMARK  Name = ZINC13273851
REMARK  7 active torsions:
REMARK  status: ('A' for Active; 'I' for Inactive)
REMARK    1  A    between atoms: C_3  and  O_9
REMARK    2  A    between atoms: C_6  and  C_7
REMARK    3  A    between atoms: O_9  and  C_10
REMARK    4  A    between atoms: C_13  and  N_27
REMARK    5  A    between atoms: C_15  and  S_16
REMARK    6  A    between atoms: S_16  and  N_19
REMARK    7  A    between atoms: C_22  and  C_25
REMARK                            x       y       z     vdW  Elec       q    Type
REMARK                         _______ _______ _______ _____ _____    ______ ____
ROOT
ATOM      1  C   UNL     1      -3.838   3.110   0.066  0.00  0.00    +0.155 A 
ATOM      2  C   UNL     1      -2.554   3.617  -0.072  0.00  0.00    +0.050 A 
ATOM      3  C   UNL     1      -1.470   2.761  -0.049  0.00  0.00    +0.036 A 
ATOM      4  C   UNL     1      -1.664   1.401   0.101  0.00  0.00    +0.128 A 
ATOM      5  C   UNL     1      -2.943   0.893   0.238  0.00  0.00    +0.065 A 
ATOM      6  C   UNL     1      -4.030   1.745   0.221  0.00  0.00    +0.150 A 
ENDROOT
BRANCH   6   7
ATOM      7  S   UNL     1      -5.660   1.098   0.395  0.00  0.00    +0.064 S 
ATOM      8  O   UNL     1      -6.438   1.671  -0.646  0.00  0.00    -0.153 OA
ATOM      9  O   UNL     1      -5.524  -0.307   0.560  0.00  0.00    -0.153 OA
BRANCH   7  10
ATOM     10  N   UNL     1      -6.270   1.685   1.819  0.00  0.00    -0.176 NA
ATOM     11  C   UNL     1      -6.087   0.943   3.074  0.00  0.00    +0.110 C 
ATOM     12  C   UNL     1      -7.450   0.731   3.730  0.00  0.00    +0.032 C 
ATOM     13  C   UNL     1      -8.150   2.083   3.895  0.00  0.00    +0.105 C 
ATOM     14  C   UNL     1      -8.367   2.717   2.519  0.00  0.00    +0.032 C 
ATOM     15  C   UNL     1      -7.010   2.954   1.850  0.00  0.00    +0.110 C 
BRANCH  13  16
ATOM     16  C   UNL     1      -9.481   1.879   4.570  0.00  0.00    +0.359 C 
ATOM     17  O   UNL     1     -10.500   2.208   4.009  0.00  0.00    -0.246 OA
ATOM     18  O   UNL     1      -9.536   1.333   5.795  0.00  0.00    -0.246 OA
ENDBRANCH  13  16
ENDBRANCH   7  10
ENDBRANCH   6   7
BRANCH   4  19
ATOM     19  N   UNL     1      -0.500   0.486   0.120  0.00  0.00    +0.056 N 
ATOM     20  O   UNL     1      -0.670  -0.713   0.257  0.00  0.00    -0.126 OA
ATOM     21  O   UNL     1       0.626   0.931  -0.005  0.00  0.00    -0.126 OA
ENDBRANCH   4  19
BRANCH   1  22
ATOM     22  O   UNL     1      -4.907   3.950   0.048  0.00  0.00    -0.454 OA
BRANCH  22  25
ATOM     23  C   UNL     1      -7.304   5.173  -2.394  0.00  0.00    +0.019 A 
ATOM     24  C   UNL     1      -6.679   4.941  -1.189  0.00  0.00    +0.047 A 
ATOM     25  C   UNL     1      -5.519   4.177  -1.142  0.00  0.00    +0.129 A 
ATOM     26  C   UNL     1      -4.981   3.648  -2.310  0.00  0.00    +0.047 A 
ATOM     27  C   UNL     1      -5.603   3.871  -3.518  0.00  0.00    +0.019 A 
ATOM     28  C   UNL     1      -6.770   4.639  -3.571  0.00  0.00    +0.063 A 
BRANCH  28  29
ATOM     29  C   UNL     1      -7.436   4.884  -4.863  0.00  0.00    +0.387 C 
ATOM     30  O   UNL     1      -8.450   5.552  -4.907  0.00  0.00    -0.241 OA
ATOM     31  O   UNL     1      -6.920   4.369  -5.996  0.00  0.00    -0.241 OA
ENDBRANCH  28  29
ENDBRANCH  22  25
ENDBRANCH   1  22
TORSDOF 7
