REMARK  Name = ZINC16000410
REMARK  1 active torsions:
REMARK  status: ('A' for Active; 'I' for Inactive)
REMARK    1  A    between atoms: C_6  and  N_7
REMARK                            x       y       z     vdW  Elec       q    Type
REMARK                         _______ _______ _______ _____ _____    ______ ____
ROOT
ATOM      1  N   UNL     1      -1.203  -0.723   0.010  0.00  0.00    -0.210 N 
ATOM      2  C   UNL     1      -2.398  -0.131   0.117  0.00  0.00    +0.232 C 
ATOM      3  O   UNL     1      -2.582   1.063   0.218  0.00  0.00    -0.274 OA
ATOM      4  C   UNL     1      -3.483  -1.183   0.092  0.00  0.00    +0.107 C 
ATOM      5  C   UNL     1      -4.166  -1.246   1.471  0.00  0.00    +0.071 C 
ATOM      6  C   UNL     1      -4.002   0.108   2.184  0.00  0.00    +0.021 C 
ATOM      7  C   UNL     1      -2.704  -0.013   3.006  0.00  0.00    +0.017 C 
ATOM      8  C   UNL     1      -2.166  -1.426   2.703  0.00  0.00    +0.086 C 
ATOM      9  N   UNL     1      -3.362  -2.228   2.261  0.00  0.00    -0.281 NA
ATOM     10  C   UNL     1      -2.968  -3.254   1.281  0.00  0.00    +0.138 C 
ATOM     11  C   UNL     1      -2.692  -2.511  -0.048  0.00  0.00    +0.123 C 
ATOM     12  C   UNL     1      -1.251  -2.056  -0.095  0.00  0.00    +0.233 C 
ATOM     13  O   UNL     1      -0.289  -2.785  -0.207  0.00  0.00    -0.274 OA
ATOM     14  C   UNL     1      -1.760  -4.019   1.744  0.00  0.00    +0.006 A 
ATOM     15  C   UNL     1      -0.474  -3.650   2.071  0.00  0.00    +0.046 A 
ATOM     16  C   UNL     1       0.441  -4.609   2.474  0.00  0.00    +0.124 A 
ATOM     17  C   UNL     1       0.058  -5.938   2.545  0.00  0.00    +0.040 A 
ATOM     18  C   UNL     1      -1.229  -6.310   2.217  0.00  0.00    +0.026 A 
ATOM     19  C   UNL     1      -2.155  -5.351   1.812  0.00  0.00    +0.039 A 
ATOM     20  N   UNL     1      -3.495  -5.477   1.435  0.00  0.00    -0.283 N 
ATOM     21  C   UNL     1      -4.044  -4.292   1.109  0.00  0.00    +0.243 C 
ATOM     22  O   UNL     1      -5.185  -4.098   0.746  0.00  0.00    -0.273 OA
ATOM     23  F   UNL     1       1.703  -4.249   2.796  0.00  0.00    -0.205 F 
ATOM     24  H   UNL     1      -3.973  -6.321   1.411  0.00  0.00    +0.155 HD
ENDROOT
BRANCH   1  30
ATOM     25  C   UNL     1       0.892  -0.128   1.060  0.00  0.00    +0.027 A 
ATOM     26  C   UNL     1       2.078   0.580   1.051  0.00  0.00    +0.041 A 
ATOM     27  C   UNL     1       2.380   1.413  -0.012  0.00  0.00    +0.142 A 
ATOM     28  C   UNL     1       1.493   1.539  -1.069  0.00  0.00    +0.078 A 
ATOM     29  C   UNL     1       0.306   0.832  -1.064  0.00  0.00    +0.046 A 
ATOM     30  C   UNL     1       0.002  -0.004   0.002  0.00  0.00    +0.045 A 
ATOM     31 CL   UNL     1       1.873   2.586  -2.401  0.00  0.00    -0.081 Cl
ATOM     32  F   UNL     1       3.540   2.106  -0.018  0.00  0.00    -0.204 F 
ENDBRANCH   1  30
TORSDOF 1
