REMARK  Name = ZINC63531069
REMARK  10 active torsions:
REMARK  status: ('A' for Active; 'I' for Inactive)
REMARK    1  A    between atoms: C_1  and  C_2
REMARK    2  A    between atoms: C_2  and  O_3
REMARK    3  A    between atoms: O_3  and  C_4
REMARK    4  A    between atoms: C_9  and  C_10
REMARK    5  A    between atoms: C_10  and  N_11
REMARK    6  A    between atoms: C_12  and  C_14
REMARK    7  A    between atoms: C_16  and  S_26
REMARK    8  A    between atoms: C_20  and  O_24
REMARK    9  A    between atoms: O_24  and  C_25
REMARK   10  A    between atoms: S_26  and  C_27
REMARK                            x       y       z     vdW  Elec       q    Type
REMARK                         _______ _______ _______ _____ _____    ______ ____
ROOT
ATOM      1  C   UNL     1       5.135   0.489  -3.400  0.00  0.00    +0.204 C 
ATOM      2  C   UNL     1       5.105   1.594  -2.368  0.00  0.00    +0.030 C 
ATOM      3  C   UNL     1       5.858   2.631  -2.903  0.00  0.00    +0.010 A 
ATOM      4  C   UNL     1       6.191   3.915  -2.415  0.00  0.00    +0.014 A 
ATOM      5  C   UNL     1       6.959   4.743  -3.166  0.00  0.00    +0.046 A 
ATOM      6  C   UNL     1       7.437   4.356  -4.425  0.00  0.00    +0.122 A 
ATOM      7  C   UNL     1       7.152   3.133  -4.954  0.00  0.00    +0.071 A 
ATOM      8  C   UNL     1       6.355   2.220  -4.225  0.00  0.00    +0.048 A 
ATOM      9  N   UNL     1       5.945   0.995  -4.513  0.00  0.00    -0.369 N 
ATOM     10  H   UNL     1       6.147   0.510  -5.328  0.00  0.00    +0.161 HD
ENDROOT
BRANCH   1  12
ATOM     11  N   UNL     1       2.936  -0.611  -3.136  0.00  0.00    -0.309 N 
ATOM     12  C   UNL     1       3.737   0.183  -3.873  0.00  0.00    +0.241 C 
ATOM     13  O   UNL     1       3.334   0.650  -4.917  0.00  0.00    -0.273 OA
ATOM     14  H   UNL     1       3.258  -0.984  -2.301  0.00  0.00    +0.149 HD
BRANCH  11  15
ATOM     15  C   UNL     1       1.577  -0.909  -3.596  0.00  0.00    +0.143 C 
BRANCH  15  21
ATOM     16  C   UNL     1       0.349  -1.276  -1.440  0.00  0.00    +0.125 A 
ATOM     17  C   UNL     1      -0.282  -2.107  -0.527  0.00  0.00    +0.046 A 
ATOM     18  C   UNL     1      -0.361  -3.465  -0.769  0.00  0.00    +0.004 A 
ATOM     19  C   UNL     1       0.189  -3.995  -1.922  0.00  0.00    +0.001 A 
ATOM     20  C   UNL     1       0.819  -3.169  -2.834  0.00  0.00    +0.009 A 
ATOM     21  C   UNL     1       0.895  -1.810  -2.598  0.00  0.00    +0.011 A 
BRANCH  16  22
ATOM     22  O   UNL     1       0.427   0.060  -1.204  0.00  0.00    -0.492 OA
BRANCH  22  24
ATOM     23  C   UNL     1       0.028   2.056   0.099  0.00  0.00    +0.048 C 
ATOM     24  C   UNL     1      -0.157   0.540   0.009  0.00  0.00    +0.225 C 
ENDBRANCH  22  24
ENDBRANCH  16  22
ENDBRANCH  15  21
ENDBRANCH  11  15
ENDBRANCH   1  12
BRANCH   6  25
ATOM     25  O   UNL     1       8.201   5.222  -5.137  0.00  0.00    -0.495 OA
ATOM     26  C   UNL     1       8.471   6.492  -4.539  0.00  0.00    +0.277 C 
ENDBRANCH   6  25
BRANCH   2  27
ATOM     27  S   UNL     1       4.332   1.571  -0.899  0.00  0.00    -0.091 S 
BRANCH  27  28
ATOM     28  C   UNL     1       5.227   0.376   0.036  0.00  0.00    +0.013 A 
ATOM     29  C   UNL     1       6.389  -0.184  -0.481  0.00  0.00    +0.015 A 
ATOM     30  C   UNL     1       7.088  -1.121   0.255  0.00  0.00    +0.001 A 
ATOM     31  C   UNL     1       6.633  -1.502   1.504  0.00  0.00    +0.000 A 
ATOM     32  C   UNL     1       5.476  -0.947   2.021  0.00  0.00    +0.001 A 
ATOM     33  C   UNL     1       4.776  -0.005   1.294  0.00  0.00    +0.015 A 
ENDBRANCH  27  28
ENDBRANCH   2  27
TORSDOF 8
