REMARK  Name = ZINC60091047
REMARK  11 active torsions:
REMARK  status: ('A' for Active; 'I' for Inactive)
REMARK    1  A    between atoms: C_1  and  C_2
REMARK    2  A    between atoms: C_2  and  C_3
REMARK    3  A    between atoms: C_3  and  C_4
REMARK    4  A    between atoms: C_4  and  C_6
REMARK    5  A    between atoms: C_4  and  N_26
REMARK    6  A    between atoms: N_8  and  C_9
REMARK    7  A    between atoms: C_12  and  O_23
REMARK    8  A    between atoms: C_13  and  S_15
REMARK    9  A    between atoms: S_15  and  N_18
REMARK   10  A    between atoms: O_23  and  C_24
REMARK   11  A    between atoms: C_24  and  C_25
REMARK                            x       y       z     vdW  Elec       q    Type
REMARK                         _______ _______ _______ _____ _____    ______ ____
ROOT
ATOM      1  C   UNL     1      -4.907  -2.699  -1.193  0.00  0.00    +0.036 A 
ATOM      2  C   UNL     1      -5.412  -3.421  -0.120  0.00  0.00    +0.027 A 
ATOM      3  C   UNL     1      -6.725  -3.850  -0.134  0.00  0.00    +0.049 A 
ATOM      4  C   UNL     1      -7.538  -3.559  -1.219  0.00  0.00    +0.147 A 
ATOM      5  C   UNL     1      -7.034  -2.838  -2.291  0.00  0.00    +0.149 A 
ATOM      6  C   UNL     1      -5.723  -2.404  -2.276  0.00  0.00    +0.055 A 
ENDROOT
BRANCH   1   9
ATOM      7  C   UNL     1      -3.249  -1.077  -1.730  0.00  0.00    +0.238 C 
ATOM      8  O   UNL     1      -4.091  -0.425  -2.310  0.00  0.00    -0.273 OA
ATOM      9  N   UNL     1      -3.575  -2.263  -1.179  0.00  0.00    -0.284 N 
ATOM     10  H   UNL     1      -2.889  -2.815  -0.773  0.00  0.00    +0.155 HD
BRANCH   7  11
ATOM     11  C   UNL     1      -1.837  -0.560  -1.624  0.00  0.00    +0.161 C 
BRANCH  11  12
ATOM     12  N   UNL     1      -1.740   0.737  -2.297  0.00  0.00    -0.288 N 
ATOM     13  C   UNL     1      -0.784   1.615  -1.934  0.00  0.00    +0.298 C 
ATOM     14  O   UNL     1      -0.002   1.330  -1.048  0.00  0.00    -0.253 OA
ATOM     15  N   UNL     1      -0.695   2.809  -2.554  0.00  0.00    -0.313 N 
ATOM     16  H   UNL     1      -2.364   0.965  -3.004  0.00  0.00    +0.151 HD
ATOM     17  H   UNL     1      -1.319   3.036  -3.261  0.00  0.00    +0.146 HD
ATOM     18  H   UNL     1      -0.007   3.441  -2.292  0.00  0.00    +0.146 HD
ENDBRANCH  11  12
BRANCH  11  19
ATOM     19  C   UNL     1      -0.880  -1.552  -2.288  0.00  0.00    +0.031 C 
BRANCH  19  21
ATOM     20  C   UNL     1       1.520  -2.083  -2.737  0.00  0.00    +0.004 C 
ATOM     21  C   UNL     1       0.563  -1.091  -2.073  0.00  0.00    -0.001 C 
ENDBRANCH  19  21
ENDBRANCH  11  19
ENDBRANCH   7  11
ENDBRANCH   1   9
BRANCH   5  22
ATOM     22  S   UNL     1      -8.068  -2.471  -3.670  0.00  0.00    +0.064 S 
ATOM     23  O   UNL     1      -9.277  -1.942  -3.142  0.00  0.00    -0.153 OA
ATOM     24  O   UNL     1      -7.266  -1.756  -4.600  0.00  0.00    -0.153 OA
BRANCH  22  25
ATOM     25  N   UNL     1      -8.456  -3.911  -4.389  0.00  0.00    -0.176 NA
ATOM     26  C   UNL     1      -7.688  -4.570  -5.456  0.00  0.00    +0.109 C 
ATOM     27  C   UNL     1      -8.439  -5.867  -5.827  0.00  0.00    +0.018 C 
ATOM     28  C   UNL     1      -9.886  -5.581  -5.343  0.00  0.00    +0.018 C 
ATOM     29  C   UNL     1      -9.624  -4.749  -4.061  0.00  0.00    +0.109 C 
ENDBRANCH  22  25
ENDBRANCH   5  22
BRANCH   4  30
ATOM     30  O   UNL     1      -8.831  -3.982  -1.232  0.00  0.00    -0.490 OA
BRANCH  30  31
ATOM     31  C   UNL     1      -9.283  -4.721  -0.095  0.00  0.00    +0.226 C 
ATOM     32  C   UNL     1     -10.751  -5.108  -0.290  0.00  0.00    +0.048 C 
ENDBRANCH  30  31
ENDBRANCH   4  30
TORSDOF 9
