REMARK  Name = ZINC35570621
REMARK  7 active torsions:
REMARK  status: ('A' for Active; 'I' for Inactive)
REMARK    1  A    between atoms: C_4  and  C_7
REMARK    2  A    between atoms: C_7  and  C_9
REMARK    3  A    between atoms: C_11  and  C_23
REMARK    4  A    between atoms: C_17  and  C_18
REMARK    5  A    between atoms: C_17  and  O_22
REMARK    6  A    between atoms: C_26  and  O_32
REMARK    7  A    between atoms: C_27  and  N_29
REMARK                            x       y       z     vdW  Elec       q    Type
REMARK                         _______ _______ _______ _____ _____    ______ ____
ROOT
ATOM      1  C   UNL     1       4.058  -2.480  -0.466  0.00  0.00    +0.144 C 
ATOM      2  C   UNL     1       4.895  -2.754   0.788  0.00  0.00    +0.117 C 
ATOM      3  N   UNL     1       6.173  -2.051   0.675  0.00  0.00    -0.319 N 
ATOM      4  C   UNL     1       6.731  -1.805  -0.520  0.00  0.00    +0.133 C 
ATOM      5  S   UNL     1       8.237  -0.991  -0.573  0.00  0.00    -0.019 S 
ATOM      6  N   UNL     1       6.157  -2.172  -1.675  0.00  0.00    -0.291 N 
ATOM      7  C   UNL     1       4.873  -2.883  -1.699  0.00  0.00    +0.241 C 
ATOM      8  H   UNL     1       6.627  -1.756   1.480  0.00  0.00    +0.148 HD
ATOM      9  H   UNL     1       6.599  -1.963  -2.513  0.00  0.00    +0.151 HD
ENDROOT
BRANCH   2  10
ATOM     10  C   UNL     1       5.142  -4.235   0.915  0.00  0.00    -0.024 A 
ATOM     11  C   UNL     1       6.365  -4.764   0.547  0.00  0.00    +0.009 A 
ATOM     12  C   UNL     1       6.595  -6.121   0.662  0.00  0.00    +0.048 A 
ATOM     13  C   UNL     1       5.597  -6.954   1.148  0.00  0.00    +0.147 A 
ATOM     14  C   UNL     1       4.371  -6.420   1.517  0.00  0.00    +0.168 A 
ATOM     15  C   UNL     1       4.148  -5.061   1.404  0.00  0.00    +0.042 A 
BRANCH  14  16
ATOM     16  N   UNL     1       3.304  -7.305   2.035  0.00  0.00    +0.060 N 
ATOM     17  O   UNL     1       2.235  -6.840   2.356  0.00  0.00    -0.126 OA
ATOM     18  O   UNL     1       3.500  -8.494   2.137  0.00  0.00    -0.126 OA
ENDBRANCH  14  16
BRANCH  13  19
ATOM     19  O   UNL     1       5.820  -8.289   1.262  0.00  0.00    -0.504 OA
ATOM     20  H   UNL     1       6.184  -8.556   2.117  0.00  0.00    +0.292 HD
ENDBRANCH  13  19
ENDBRANCH   2  10
BRANCH   7  21
ATOM     21  C   UNL     1       4.100  -2.513  -2.967  0.00  0.00    +0.436 C 
ATOM     22  F   UNL     1       3.951  -1.124  -3.033  0.00  0.00    -0.166 F 
ATOM     23  F   UNL     1       4.805  -2.961  -4.090  0.00  0.00    -0.166 F 
ATOM     24  F   UNL     1       2.839  -3.117  -2.937  0.00  0.00    -0.166 F 
ENDBRANCH   7  21
BRANCH   1  25
ATOM     25  C   UNL     1       3.721  -1.013  -0.540  0.00  0.00    +0.173 C 
ATOM     26  O   UNL     1       4.583  -0.183  -0.343  0.00  0.00    -0.292 OA
BRANCH  25  30
ATOM     27  C   UNL     1      -0.239   0.213  -1.437  0.00  0.00    +0.000 A 
ATOM     28  C   UNL     1       0.738   1.164  -1.197  0.00  0.00    +0.001 A 
ATOM     29  C   UNL     1       2.028   0.773  -0.905  0.00  0.00    +0.011 A 
ATOM     30  C   UNL     1       2.347  -0.587  -0.851  0.00  0.00    +0.018 A 
ATOM     31  C   UNL     1       1.354  -1.542  -1.093  0.00  0.00    +0.011 A 
ATOM     32  C   UNL     1       0.069  -1.135  -1.385  0.00  0.00    +0.001 A 
ENDBRANCH  25  30
ENDBRANCH   1  25
BRANCH   7  33
ATOM     33  O   UNL     1       5.108  -4.293  -1.676  0.00  0.00    -0.364 OA
ATOM     34  H   UNL     1       5.620  -4.618  -2.429  0.00  0.00    +0.212 HD
ENDBRANCH   7  33
TORSDOF 7
