REMARK  Name = ZINC32528770
REMARK  8 active torsions:
REMARK  status: ('A' for Active; 'I' for Inactive)
REMARK    1  A    between atoms: C_1  and  C_2
REMARK    2  A    between atoms: C_9  and  S_13
REMARK    3  A    between atoms: C_11  and  C_12
REMARK    4  A    between atoms: S_13  and  C_14
REMARK    5  A    between atoms: C_14  and  C_16
REMARK    6  A    between atoms: C_14  and  C_17
REMARK    7  A    between atoms: C_22  and  C_25
REMARK    8  A    between atoms: C_29  and  N_31
REMARK                            x       y       z     vdW  Elec       q    Type
REMARK                         _______ _______ _______ _____ _____    ______ ____
ROOT
ATOM      1  C   UNL     1       1.935   9.537   0.034  0.00  0.00    +0.232 C 
ATOM      2  O   UNL     1       0.803   9.971   0.047  0.00  0.00    -0.274 OA
ATOM      3  N   UNL     1       2.147   8.207   0.025  0.00  0.00    -0.264 N 
ATOM      4  C   UNL     1       1.069   7.331   0.030  0.00  0.00    +0.165 A 
ATOM      5  N   UNL     1       1.064   6.011   0.028  0.00  0.00    -0.225 NA
ATOM      6  C   UNL     1      -0.070   5.327   0.029  0.00  0.00    +0.080 A 
ATOM      7  C   UNL     1      -1.260   6.001   0.044  0.00  0.00    +0.076 A 
ATOM      8  S   UNL     1      -0.682   7.693   0.048  0.00  0.00    -0.060 S 
ATOM      9  H   UNL     1       3.175   7.814   0.013  0.00  0.00    +0.157 HD
ENDROOT
BRANCH   6  10
ATOM     10  C   UNL     1      -0.050   3.844   0.022  0.00  0.00    +0.003 A 
ATOM     11  C   UNL     1      -1.246   3.128   0.030  0.00  0.00    +0.010 A 
ATOM     12  C   UNL     1      -1.222   1.749   0.017  0.00  0.00    +0.003 A 
ATOM     13  C   UNL     1      -0.013   1.076   0.008  0.00  0.00    +0.033 A 
ATOM     14  C   UNL     1       1.177   1.781   0.000  0.00  0.00    +0.127 A 
ATOM     15  C   UNL     1       1.165   3.161   0.007  0.00  0.00    +0.042 A 
BRANCH  14  16
ATOM     16  N   UNL     1       2.467   1.054  -0.015  0.00  0.00    +0.056 N 
ATOM     17  O   UNL     1       2.479  -0.164  -0.022  0.00  0.00    -0.126 OA
ATOM     18  O   UNL     1       3.515   1.674  -0.022  0.00  0.00    -0.126 OA
ENDBRANCH  14  16
ENDBRANCH   6  10
BRANCH   1  19
ATOM     19  C   UNL     1       3.106  10.487   0.029  0.00  0.00    +0.136 C 
ATOM     20  C   UNL     1       3.673  10.606   1.445  0.00  0.00    +0.029 C 
BRANCH  19  21
ATOM     21  S   UNL     1       2.558  12.116  -0.541  0.00  0.00    -0.093 S 
BRANCH  21  30
ATOM     22  C   UNL     1       7.481  10.774   0.516  0.00  0.00    +0.046 C 
ATOM     23  C   UNL     1       7.563  12.216   0.086  0.00  0.00    -0.024 A 
ATOM     24  C   UNL     1       8.767  12.850   0.050  0.00  0.00    +0.005 A 
ATOM     25  C   UNL     1       8.865  14.182  -0.345  0.00  0.00    +0.001 A 
ATOM     26  C   UNL     1       7.757  14.887  -0.705  0.00  0.00    +0.010 A 
ATOM     27  C   UNL     1       6.500  14.265  -0.680  0.00  0.00    +0.004 A 
ATOM     28  C   UNL     1       6.397  12.910  -0.279  0.00  0.00    +0.075 A 
ATOM     29  N   UNL     1       5.202  12.310  -0.253  0.00  0.00    -0.240 NA
ATOM     30  C   UNL     1       4.105  12.957  -0.594  0.00  0.00    +0.099 A 
ATOM     31  C   UNL     1       4.142  14.298  -1.005  0.00  0.00    +0.038 A 
ATOM     32  C   UNL     1       5.330  14.963  -1.046  0.00  0.00    -0.039 A 
ATOM     33  C   UNL     1       5.394  16.405  -1.478  0.00  0.00    +0.044 C 
ENDBRANCH  21  30
ENDBRANCH  19  21
ENDBRANCH   1  19
TORSDOF 5
