REMARK  Name = ZINC35293243
REMARK  4 active torsions:
REMARK  status: ('A' for Active; 'I' for Inactive)
REMARK    1  A    between atoms: N_11  and  C_12
REMARK    2  A    between atoms: C_18  and  C_20
REMARK    3  A    between atoms: C_22  and  C_32
REMARK    4  A    between atoms: N_24  and  C_25
REMARK                            x       y       z     vdW  Elec       q    Type
REMARK                         _______ _______ _______ _____ _____    ______ ____
ROOT
ATOM      1  C   UNL     1       5.005  -1.397  -0.873  0.00  0.00    +0.095 C 
ATOM      2  C   UNL     1       6.071  -1.210  -1.955  0.00  0.00    +0.044 C 
ATOM      3  C   UNL     1       7.285  -0.495  -1.354  0.00  0.00    +0.110 C 
ATOM      4  N   UNL     1       7.744  -1.249  -0.179  0.00  0.00    -0.296 N 
ATOM      5  C   UNL     1       6.776  -1.563   0.881  0.00  0.00    +0.110 C 
ATOM      6  C   UNL     1       5.568  -2.265   0.255  0.00  0.00    +0.044 C 
ATOM      7  C   UNL     1       9.027  -1.646  -0.077  0.00  0.00    +0.265 C 
ATOM      8  O   UNL     1       9.782  -1.513  -1.021  0.00  0.00    -0.268 OA
ENDROOT
BRANCH   1  19
ATOM      9  C   UNL     1      -0.158  -1.029  -1.872  0.00  0.00    +0.002 A 
ATOM     10  C   UNL     1       0.639  -0.089  -1.242  0.00  0.00    +0.002 A 
ATOM     11  C   UNL     1       1.986  -0.332  -1.052  0.00  0.00    +0.028 A 
ATOM     12  C   UNL     1       2.541  -1.523  -1.494  0.00  0.00    +0.070 A 
ATOM     13  C   UNL     1       1.737  -2.471  -2.130  0.00  0.00    +0.067 A 
ATOM     14  C   UNL     1       0.387  -2.218  -2.316  0.00  0.00    +0.028 A 
ATOM     15  N   UNL     1       2.562  -3.546  -2.454  0.00  0.00    -0.306 N 
ATOM     16  H   UNL     1       2.284  -4.358  -2.906  0.00  0.00    +0.170 HD
ATOM     17  C   UNL     1       3.810  -3.264  -2.036  0.00  0.00    +0.328 A 
ATOM     18  O   UNL     1       4.774  -3.995  -2.165  0.00  0.00    -0.247 OA
ATOM     19  N   UNL     1       3.829  -2.050  -1.452  0.00  0.00    -0.289 N 
ENDBRANCH   1  19
BRANCH   7  20
ATOM     20  C   UNL     1       9.515  -2.242   1.177  0.00  0.00    +0.130 A 
ATOM     21  C   UNL     1       9.036  -1.987   2.443  0.00  0.00    +0.063 A 
ATOM     22  C   UNL     1       9.782  -2.764   3.344  0.00  0.00    +0.100 A 
ATOM     23  N   UNL     1      10.673  -3.457   2.661  0.00  0.00    -0.165 NA
ATOM     24  N   UNL     1      10.527  -3.157   1.301  0.00  0.00    -0.227 N 
BRANCH  24  25
ATOM     25  C   UNL     1      11.285  -3.695   0.254  0.00  0.00    +0.066 A 
ATOM     26  C   UNL     1      10.665  -4.074  -0.930  0.00  0.00    +0.030 A 
ATOM     27  C   UNL     1      11.414  -4.604  -1.962  0.00  0.00    +0.040 A 
ATOM     28  C   UNL     1      12.782  -4.758  -1.817  0.00  0.00    +0.124 A 
ATOM     29  C   UNL     1      13.403  -4.380  -0.638  0.00  0.00    +0.040 A 
ATOM     30  C   UNL     1      12.659  -3.844   0.394  0.00  0.00    +0.030 A 
ATOM     31  F   UNL     1      13.513  -5.277  -2.828  0.00  0.00    -0.205 F 
ENDBRANCH  24  25
BRANCH  22  32
ATOM     32  C   UNL     1       9.601  -2.797   4.812  0.00  0.00    +0.039 A 
ATOM     33  C   UNL     1      10.289  -3.519   5.750  0.00  0.00    +0.018 A 
ATOM     34  C   UNL     1       9.939  -3.387   7.076  0.00  0.00    +0.008 A 
ATOM     35  C   UNL     1       8.927  -2.547   7.412  0.00  0.00    +0.046 A 
ATOM     36  S   UNL     1       8.433  -1.901   5.822  0.00  0.00    -0.095 S 
ENDBRANCH  22  32
ENDBRANCH   7  20
TORSDOF 4
