REMARK  Name = ZINC44964191
REMARK  17 active torsions:
REMARK  status: ('A' for Active; 'I' for Inactive)
REMARK    1  A    between atoms: C_1  and  C_2
REMARK    2  A    between atoms: C_2  and  N_5
REMARK    3  A    between atoms: N_5  and  C_6
REMARK    4  A    between atoms: N_5  and  C_10
REMARK    5  A    between atoms: C_6  and  C_9
REMARK    6  A    between atoms: C_10  and  C_13
REMARK    7  A    between atoms: C_13  and  S_14
REMARK    8  A    between atoms: S_14  and  C_15
REMARK    9  A    between atoms: C_15  and  C_16
REMARK   10  A    between atoms: C_16  and  O_18
REMARK   11  A    between atoms: O_18  and  C_19
REMARK   12  A    between atoms: C_22  and  C_43
REMARK   13  A    between atoms: C_22  and  C_44
REMARK   14  A    between atoms: C_23  and  O_42
REMARK   15  A    between atoms: C_25  and  C_41
REMARK   16  A    between atoms: C_30  and  C_40
REMARK   17  A    between atoms: C_32  and  C_39
REMARK                            x       y       z     vdW  Elec       q    Type
REMARK                         _______ _______ _______ _____ _____    ______ ____
ROOT
ATOM      1  C   UNL     1       5.606  -8.303   6.217  0.00  0.00    +0.184 C 
ATOM      2  C   UNL     1       4.781  -9.497   6.665  0.00  0.00    +0.058 C 
ATOM      3  C   UNL     1       4.336  -9.329   8.132  0.00  0.00    +0.015 C 
ATOM      4  C   UNL     1       5.191 -10.192   8.995  0.00  0.00    +0.128 C 
ATOM      5  C   UNL     1       6.354 -11.009   8.536  0.00  0.00    +0.022 C 
ATOM      6  C   UNL     1       7.663 -10.328   8.169  0.00  0.00    -0.014 C 
ATOM      7  C   UNL     1       8.192  -9.357   9.172  0.00  0.00    +0.008 C 
ATOM      8  C   UNL     1       7.632  -7.947   9.023  0.00  0.00    +0.004 C 
ATOM      9  C   UNL     1       7.653  -7.450   7.590  0.00  0.00    -0.004 C 
ATOM     10  C   UNL     1       7.047  -8.409   6.581  0.00  0.00    +0.018 C 
ATOM     11  C   UNL     1       7.649  -9.738   6.720  0.00  0.00    +0.071 C 
ATOM     12  C   UNL     1       7.308 -10.923   5.878  0.00  0.00    +0.138 C 
ATOM     13  O   UNL     1       6.614 -10.982   4.899  0.00  0.00    -0.297 OA
ATOM     14  C   UNL     1       8.062 -12.075   6.552  0.00  0.00    +0.075 C 
ATOM     15  C   UNL     1       8.685 -11.464   7.840  0.00  0.00    +0.015 C 
ATOM     16  C   UNL     1       7.730  -7.912   5.254  0.00  0.00    +0.016 C 
ATOM     17  C   UNL     1       7.139  -6.024   7.503  0.00  0.00    +0.008 C 
ATOM     18  C   UNL     1       6.608 -12.040   9.656  0.00  0.00    +0.011 C 
ATOM     19  C   UNL     1       4.281  -7.910   8.674  0.00  0.00    +0.018 C 
ENDROOT
BRANCH   4  20
ATOM     20  O   UNL     1       5.545  -9.469  10.165  0.00  0.00    -0.391 OA
ATOM     21  H   UNL     1       4.789  -9.187  10.697  0.00  0.00    +0.210 HD
ENDBRANCH   4  20
BRANCH   3  22
ATOM     22  C   UNL     1       2.912  -9.886   8.245  0.00  0.00    -0.025 C 
ATOM     23  C   UNL     1       1.915  -9.085   8.529  0.00  0.00    +0.004 C 
ENDBRANCH   3  22
BRANCH   1  24
ATOM     24  O   UNL     1       4.985  -7.036   6.276  0.00  0.00    -0.460 OA
BRANCH  24  25
ATOM     25  C   UNL     1       4.144  -6.722   5.277  0.00  0.00    +0.317 C 
ATOM     26  O   UNL     1       3.949  -7.510   4.382  0.00  0.00    -0.250 OA
BRANCH  25  27
ATOM     27  C   UNL     1       3.445  -5.388   5.273  0.00  0.00    +0.189 C 
BRANCH  27  28
ATOM     28  S   UNL     1       2.386  -5.265   3.805  0.00  0.00    -0.151 S 
BRANCH  28  29
ATOM     29  C   UNL     1       1.626  -3.624   3.948  0.00  0.00    +0.051 C 
BRANCH  29  30
ATOM     30  C   UNL     1       0.696  -3.387   2.757  0.00  0.00    -0.068 C 
BRANCH  30  31
ATOM     31  N   UNL     1       0.012  -2.097   2.919  0.00  0.00    +0.380 N 
ATOM     32  H   UNL     1      -0.462  -2.077   3.809  0.00  0.00    -0.082 HD
BRANCH  31  34
ATOM     33  C   UNL     1       0.304   0.323   3.156  0.00  0.00    -0.017 C 
ATOM     34  C   UNL     1       0.998  -1.010   2.863  0.00  0.00    -0.082 C 
ENDBRANCH  31  34
BRANCH  31  35
ATOM     35  C   UNL     1      -0.969  -1.924   1.839  0.00  0.00    -0.082 C 
ATOM     36  C   UNL     1      -2.077  -2.969   1.984  0.00  0.00    -0.017 C 
ENDBRANCH  31  35
ENDBRANCH  30  31
ENDBRANCH  29  30
ENDBRANCH  28  29
ENDBRANCH  27  28
ENDBRANCH  25  27
ENDBRANCH  24  25
ENDBRANCH   1  24
TORSDOF 11
