REMARK  Name = ZINC40388701
REMARK  5 active torsions:
REMARK  status: ('A' for Active; 'I' for Inactive)
REMARK    1  A    between atoms: C_1  and  C_2
REMARK    2  A    between atoms: C_7  and  N_8
REMARK    3  A    between atoms: C_9  and  C_11
REMARK    4  A    between atoms: C_27  and  C_34
REMARK    5  A    between atoms: C_30  and  C_33
REMARK                            x       y       z     vdW  Elec       q    Type
REMARK                         _______ _______ _______ _____ _____    ______ ____
ROOT
ATOM      1  C   UNL     1      -0.054   0.213   4.792  0.00  0.00    +0.122 C 
ATOM      2  C   UNL     1      -1.365   1.000   4.819  0.00  0.00    +0.114 C 
ATOM      3  C   UNL     1      -1.574   1.588   6.190  0.00  0.00    +0.219 C 
ATOM      4  O   UNL     1      -2.068   2.689   6.301  0.00  0.00    -0.275 OA
ATOM      5  N   UNL     1      -1.220   0.903   7.291  0.00  0.00    -0.270 N 
ATOM      6  C   UNL     1      -0.559  -0.309   7.193  0.00  0.00    +0.138 A 
ATOM      7  C   UNL     1       0.015  -0.692   5.993  0.00  0.00    +0.069 A 
ATOM      8  C   UNL     1       0.659  -1.930   5.912  0.00  0.00    +0.258 A 
ATOM      9  O   UNL     1       1.165  -2.301   4.865  0.00  0.00    -0.267 OA
ATOM     10  N   UNL     1       0.710  -2.707   7.016  0.00  0.00    -0.295 N 
ATOM     11  H   UNL     1       1.139  -3.576   6.977  0.00  0.00    +0.172 HD
ATOM     12  C   UNL     1       0.160  -2.271   8.181  0.00  0.00    +0.200 A 
ATOM     13  N   UNL     1      -0.448  -1.106   8.261  0.00  0.00    -0.200 NA
ATOM     14  N   UNL     1       0.243  -3.060   9.297  0.00  0.00    -0.301 N 
ATOM     15  C   UNL     1      -0.236  -2.571  10.597  0.00  0.00    +0.111 C 
ATOM     16  C   UNL     1      -1.230  -3.587  11.170  0.00  0.00    +0.004 C 
ATOM     17  C   UNL     1      -0.571  -4.967  11.221  0.00  0.00    +0.009 C 
ATOM     18  C   UNL     1      -0.193  -5.407   9.805  0.00  0.00    +0.004 C 
ATOM     19  C   UNL     1       0.807  -4.414   9.216  0.00  0.00    +0.111 C 
ATOM     20  C   UNL     1       0.436  -6.801   9.854  0.00  0.00    +0.009 C 
ATOM     21  C   UNL     1      -2.471  -3.646  10.277  0.00  0.00    +0.009 C 
ATOM     22  H   UNL     1      -1.430   1.264   8.166  0.00  0.00    +0.156 HD
ENDROOT
BRANCH   1  24
ATOM     23  N   UNL     1       1.061  -0.498   2.701  0.00  0.00    -0.285 N 
ATOM     24  C   UNL     1       0.009  -0.617   3.535  0.00  0.00    +0.225 C 
ATOM     25  O   UNL     1      -0.888  -1.390   3.274  0.00  0.00    -0.275 OA
ATOM     26  H   UNL     1       1.808   0.072   2.941  0.00  0.00    +0.155 HD
BRANCH  23  33
ATOM     27  C   UNL     1       2.279   0.741   0.448  0.00  0.00    +0.045 C 
ATOM     28  C   UNL     1       1.659  -0.631   0.365  0.00  0.00    -0.029 A 
ATOM     29  C   UNL     1       1.677  -1.326  -0.828  0.00  0.00    +0.006 A 
ATOM     30  C   UNL     1       1.110  -2.584  -0.906  0.00  0.00    +0.020 A 
ATOM     31  C   UNL     1       0.522  -3.151   0.212  0.00  0.00    +0.043 A 
ATOM     32  C   UNL     1       0.501  -2.460   1.408  0.00  0.00    +0.043 A 
ATOM     33  C   UNL     1       1.075  -1.198   1.490  0.00  0.00    +0.038 A 
ATOM     34 CL   UNL     1      -0.190  -4.731   0.110  0.00  0.00    -0.083 Cl
ENDBRANCH  23  33
ENDBRANCH   1  24
TORSDOF 2
