REMARK  Name = ZINC20465255
REMARK  9 active torsions:
REMARK  status: ('A' for Active; 'I' for Inactive)
REMARK    1  A    between atoms: C_1  and  C_2
REMARK    2  A    between atoms: C_2  and  C_3
REMARK    3  A    between atoms: C_2  and  N_4
REMARK    4  A    between atoms: N_4  and  C_5
REMARK    5  A    between atoms: C_5  and  C_6
REMARK    6  A    between atoms: C_8  and  N_18
REMARK    7  A    between atoms: C_10  and  O_17
REMARK    8  A    between atoms: C_12  and  C_15
REMARK    9  A    between atoms: C_15  and  O_16
REMARK                            x       y       z     vdW  Elec       q    Type
REMARK                         _______ _______ _______ _____ _____    ______ ____
ROOT
ATOM      1  C   UNL     1      -3.502  -2.191  -1.106  0.00  0.00    +0.122 C 
ATOM      2  C   UNL     1      -2.340  -2.903  -0.380  0.00  0.00    +0.115 C 
ATOM      3  C   UNL     1      -2.253  -4.282  -1.072  0.00  0.00    +0.165 C 
ATOM      4  C   UNL     1      -3.375  -4.240  -2.134  0.00  0.00    +0.174 C 
ATOM      5  O   UNL     1      -3.581  -2.835  -2.397  0.00  0.00    -0.369 OA
ENDROOT
BRANCH   2   6
ATOM      6  N   UNL     1      -1.087  -2.158  -0.560  0.00  0.00    -0.290 NA
ATOM      7  C   UNL     1      -0.745  -2.038  -1.987  0.00  0.00    +0.090 C 
ATOM      8  C   UNL     1       0.335  -0.967  -2.139  0.00  0.00    +0.051 C 
ATOM      9  C   UNL     1       1.464  -1.234  -1.177  0.00  0.00    -0.042 A 
ATOM     10  C   UNL     1       2.682  -0.606  -1.395  0.00  0.00    +0.004 A 
ATOM     11  C   UNL     1       3.739  -0.818  -0.533  0.00  0.00    +0.000 A 
ATOM     12  C   UNL     1       3.584  -1.659   0.553  0.00  0.00    +0.000 A 
ATOM     13  C   UNL     1       2.373  -2.287   0.769  0.00  0.00    +0.005 A 
ATOM     14  C   UNL     1       1.310  -2.077  -0.097  0.00  0.00    -0.030 A 
ATOM     15  C   UNL     1       0.013  -2.792   0.174  0.00  0.00    +0.120 C 
ENDBRANCH   2   6
BRANCH   3  16
ATOM     16  O   UNL     1      -0.979  -4.451  -1.696  0.00  0.00    -0.388 OA
ATOM     17  H   UNL     1      -0.750  -5.381  -2.235  0.00  0.00    +0.210 HD
ENDBRANCH   3  16
BRANCH   1  18
ATOM     18  C   UNL     1      -3.194  -0.701  -1.272  0.00  0.00    -0.049 C 
BRANCH  18  19
ATOM     19  N   UNL     1      -4.368  -0.018  -1.831  0.00  0.00    +0.382 N 
ATOM     20  H   UNL     1      -5.217  -0.156  -1.146  0.00  0.00    -0.085 HD
ATOM     21  H   UNL     1      -4.607  -0.468  -2.806  0.00  0.00    -0.085 HD
BRANCH  19  23
ATOM     22  C   UNL     1      -3.414   1.651  -3.348  0.00  0.00    -0.014 C 
ATOM     23  C   UNL     1      -4.108   1.418  -2.005  0.00  0.00    -0.078 C 
ATOM     24  C   UNL     1      -5.432   2.183  -1.976  0.00  0.00    -0.014 C 
ENDBRANCH  19  23
ENDBRANCH  18  19
ENDBRANCH   1  18
BRANCH   4  25
ATOM     25  C   UNL     1      -2.929  -4.962  -3.407  0.00  0.00    +0.190 C 
BRANCH  25  26
ATOM     26  O   UNL     1      -4.018  -5.013  -4.331  0.00  0.00    -0.392 OA
ATOM     27  H   UNL     1      -3.887  -5.498  -5.310  0.00  0.00    +0.210 HD
ENDBRANCH  25  26
ENDBRANCH   4  25
TORSDOF 7
