REMARK  Name = ZINC44813372
REMARK  6 active torsions:
REMARK  status: ('A' for Active; 'I' for Inactive)
REMARK    1  A    between atoms: C_6  and  C_7
REMARK    2  A    between atoms: C_9  and  C_12
REMARK    3  A    between atoms: C_12  and  N_13
REMARK    4  A    between atoms: C_17  and  C_20
REMARK    5  A    between atoms: N_22  and  C_23
REMARK    6  A    between atoms: C_23  and  C_24
REMARK                            x       y       z     vdW  Elec       q    Type
REMARK                         _______ _______ _______ _____ _____    ______ ____
ROOT
ATOM      1  N   UNL     1      -3.331  -4.320   1.406  0.00  0.00    +0.386 N 
ATOM      2  C   UNL     1      -2.016  -4.388   2.053  0.00  0.00    -0.078 C 
ATOM      3  C   UNL     1      -2.186  -4.790   3.520  0.00  0.00    -0.018 C 
ATOM      4  C   UNL     1      -2.864  -6.161   3.593  0.00  0.00    +0.009 C 
ATOM      5  C   UNL     1      -4.202  -6.097   2.850  0.00  0.00    +0.058 C 
ATOM      6  C   UNL     1      -3.958  -5.647   1.408  0.00  0.00    -0.065 C 
ATOM      7  H   UNL     1      -3.918  -3.671   1.909  0.00  0.00    -0.081 HD
ENDROOT
BRANCH   5   8
ATOM      8  C   UNL     1      -4.843  -7.461   2.851  0.00  0.00    +0.215 C 
ATOM      9  O   UNL     1      -5.085  -8.018   1.801  0.00  0.00    -0.276 OA
ATOM     10  N   UNL     1      -5.148  -8.062   4.018  0.00  0.00    -0.311 N 
ATOM     11  H   UNL     1      -4.954  -7.617   4.858  0.00  0.00    +0.149 HD
BRANCH  10  12
ATOM     12  C   UNL     1      -5.771  -9.388   4.019  0.00  0.00    +0.139 C 
BRANCH  12  13
ATOM     13  C   UNL     1      -6.007  -9.831   5.440  0.00  0.00    -0.027 A 
ATOM     14  C   UNL     1      -5.028 -10.539   6.113  0.00  0.00    +0.009 A 
ATOM     15  C   UNL     1      -5.239 -10.948   7.416  0.00  0.00    +0.050 A 
ATOM     16  C   UNL     1      -6.434 -10.649   8.052  0.00  0.00    +0.166 A 
ATOM     17  C   UNL     1      -7.419  -9.936   7.374  0.00  0.00    +0.167 A 
ATOM     18  C   UNL     1      -7.199  -9.525   6.070  0.00  0.00    +0.054 A 
ATOM     19  O   UNL     1      -8.488  -9.771   8.207  0.00  0.00    -0.453 OA
ATOM     20  C   UNL     1      -8.311 -10.740   9.257  0.00  0.00    +0.466 C 
ATOM     21  O   UNL     1      -6.885 -10.931   9.309  0.00  0.00    -0.453 OA
ENDBRANCH  12  13
ENDBRANCH  10  12
ENDBRANCH   5   8
BRANCH   1  22
ATOM     22  C   UNL     1      -3.170  -3.859   0.020  0.00  0.00    +0.022 C 
BRANCH  22  25
ATOM     23  C   UNL     1      -1.272  -0.765   0.011  0.00  0.00    +0.202 A 
ATOM     24  N   UNL     1      -1.384  -2.106   0.010  0.00  0.00    -0.193 NA
ATOM     25  C   UNL     1      -2.641  -2.448   0.019  0.00  0.00    +0.211 A 
ATOM     26  O   UNL     1      -3.384  -1.333   0.026  0.00  0.00    -0.340 OA
ATOM     27  N   UNL     1      -2.474  -0.244   0.026  0.00  0.00    -0.056 NA
BRANCH  23  33
ATOM     28  C   UNL     1      -0.017   1.389   0.010  0.00  0.00    +0.014 A 
ATOM     29  C   UNL     1       1.170   2.093   0.002  0.00  0.00    +0.039 A 
ATOM     30  C   UNL     1       2.379   1.417  -0.013  0.00  0.00    +0.123 A 
ATOM     31  C   UNL     1       2.402   0.031  -0.021  0.00  0.00    +0.039 A 
ATOM     32  C   UNL     1       1.220  -0.680  -0.013  0.00  0.00    +0.014 A 
ATOM     33  C   UNL     1       0.002  -0.004   0.002  0.00  0.00    +0.023 A 
ATOM     34  F   UNL     1       3.538   2.110  -0.022  0.00  0.00    -0.205 F 
ENDBRANCH  23  33
ENDBRANCH  22  25
ENDBRANCH   1  22
TORSDOF 6
