REMARK  Name = ZINC14547837
REMARK  4 active torsions:
REMARK  status: ('A' for Active; 'I' for Inactive)
REMARK    1  A    between atoms: C_4  and  N_7
REMARK    2  A    between atoms: C_8  and  C_10
REMARK    3  A    between atoms: C_17  and  C_26
REMARK    4  A    between atoms: C_35  and  O_36
REMARK                            x       y       z     vdW  Elec       q    Type
REMARK                         _______ _______ _______ _____ _____    ______ ____
ROOT
ATOM      1  C   UNL     1       2.728   2.303  -0.317  0.00  0.00    +0.058 A 
ATOM      2  C   UNL     1       2.649   2.902   0.939  0.00  0.00    +0.015 A 
ATOM      3  C   UNL     1       1.435   2.996   1.583  0.00  0.00    +0.001 A 
ATOM      4  C   UNL     1       0.295   2.489   0.983  0.00  0.00    +0.006 A 
ATOM      5  C   UNL     1       0.355   1.889  -0.256  0.00  0.00    -0.019 A 
ATOM      6  C   UNL     1       1.571   1.790  -0.939  0.00  0.00    +0.044 A 
ATOM      7  N   UNL     1       1.712   1.239  -2.201  0.00  0.00    -0.336 N 
ATOM      8  C   UNL     1       0.512   0.635  -2.802  0.00  0.00    +0.109 C 
ATOM      9  C   UNL     1      -0.661   1.524  -2.444  0.00  0.00    +0.029 C 
ATOM     10  C   UNL     1      -0.848   1.326  -0.907  0.00  0.00    +0.049 C 
ATOM     11  C   UNL     1      -2.211   1.866  -0.681  0.00  0.00    -0.023 C 
ATOM     12  C   UNL     1      -2.926   1.723  -1.769  0.00  0.00    -0.030 C 
ATOM     13  C   UNL     1      -2.068   1.091  -2.868  0.00  0.00    +0.033 C 
ATOM     14  H   UNL     1       2.143   1.895  -2.835  0.00  0.00    +0.147 HD
ENDROOT
BRANCH   8  15
ATOM     15  C   UNL     1       0.299  -0.748  -2.243  0.00  0.00    +0.022 A 
ATOM     16  C   UNL     1      -0.587  -1.636  -2.874  0.00  0.00    -0.009 A 
ATOM     17  C   UNL     1      -1.281  -1.267  -4.040  0.00  0.00    +0.009 A 
ATOM     18  C   UNL     1      -2.128  -2.155  -4.629  0.00  0.00    +0.001 A 
ATOM     19  C   UNL     1      -2.314  -3.430  -4.097  0.00  0.00    +0.001 A 
ATOM     20  C   UNL     1      -1.655  -3.824  -2.973  0.00  0.00    +0.008 A 
ATOM     21  C   UNL     1      -0.772  -2.934  -2.337  0.00  0.00    -0.017 A 
ATOM     22  C   UNL     1      -0.074  -3.307  -1.175  0.00  0.00    +0.012 A 
ATOM     23  C   UNL     1       0.773  -2.422  -0.584  0.00  0.00    +0.046 A 
ATOM     24  C   UNL     1       0.961  -1.143  -1.115  0.00  0.00    +0.122 A 
BRANCH  24  25
ATOM     25  O   UNL     1       1.814  -0.281  -0.502  0.00  0.00    -0.506 OA
ATOM     26  H   UNL     1       1.499   0.043   0.353  0.00  0.00    +0.292 HD
ENDBRANCH  24  25
ENDBRANCH   8  15
BRANCH   1  28
ATOM     27  N   UNL     1       5.139   2.694  -0.411  0.00  0.00    -0.281 N 
ATOM     28  C   UNL     1       4.031   2.205  -1.001  0.00  0.00    +0.250 C 
ATOM     29  O   UNL     1       4.104   1.683  -2.097  0.00  0.00    -0.270 OA
ATOM     30  H   UNL     1       5.093   3.047   0.491  0.00  0.00    +0.155 HD
BRANCH  27  34
ATOM     31  C   UNL     1       8.764   2.687  -2.463  0.00  0.00    +0.000 A 
ATOM     32  C   UNL     1       8.460   3.727  -1.603  0.00  0.00    +0.002 A 
ATOM     33  C   UNL     1       7.260   3.732  -0.921  0.00  0.00    +0.023 A 
ATOM     34  C   UNL     1       6.357   2.692  -1.100  0.00  0.00    +0.034 A 
ATOM     35  C   UNL     1       6.668   1.646  -1.960  0.00  0.00    +0.023 A 
ATOM     36  C   UNL     1       7.867   1.650  -2.644  0.00  0.00    +0.002 A 
ENDBRANCH  27  34
ENDBRANCH   1  28
TORSDOF 4
