REMARK  Name = ZINC20576203
REMARK  11 active torsions:
REMARK  status: ('A' for Active; 'I' for Inactive)
REMARK    1  A    between atoms: C_1  and  C_2
REMARK    2  A    between atoms: C_2  and  C_3
REMARK    3  A    between atoms: C_6  and  C_9
REMARK    4  A    between atoms: C_11  and  C_29
REMARK    5  A    between atoms: C_15  and  C_18
REMARK    6  A    between atoms: N_20  and  C_21
REMARK    7  A    between atoms: C_24  and  C_27
REMARK    8  A    between atoms: C_33  and  O_37
REMARK    9  A    between atoms: C_34  and  O_35
REMARK   10  A    between atoms: O_35  and  C_36
REMARK   11  A    between atoms: O_37  and  C_38
REMARK                            x       y       z     vdW  Elec       q    Type
REMARK                         _______ _______ _______ _____ _____    ______ ____
ROOT
ATOM      1  C   UNL     1      -5.389  -1.993   0.044  0.00  0.00    +0.053 C 
ATOM      2  C   UNL     1      -6.078  -2.237  -1.269  0.00  0.00    +0.088 C 
ATOM      3  C   UNL     1      -7.039  -3.428  -1.178  0.00  0.00    +0.149 C 
ATOM      4  N   UNL     1      -7.763  -3.330   0.094  0.00  0.00    -0.238 N 
ATOM      5  C   UNL     1      -7.209  -2.750   1.202  0.00  0.00    +0.164 A 
ATOM      6  C   UNL     1      -8.148  -2.841   2.221  0.00  0.00    +0.100 A 
ATOM      7  C   UNL     1      -9.282  -3.487   1.677  0.00  0.00    +0.149 A 
ATOM      8  N   UNL     1      -9.040  -3.767   0.422  0.00  0.00    -0.176 NA
ATOM      9  N   UNL     1      -5.971  -2.214   1.193  0.00  0.00    -0.232 NA
ENDROOT
BRANCH   1  13
ATOM     10  C   UNL     1      -1.403  -0.546   0.019  0.00  0.00    -0.048 A 
ATOM     11  C   UNL     1      -2.040  -0.787   1.223  0.00  0.00    +0.004 A 
ATOM     12  C   UNL     1      -3.336  -1.258   1.240  0.00  0.00    +0.010 A 
ATOM     13  C   UNL     1      -4.007  -1.490   0.035  0.00  0.00    -0.004 A 
ATOM     14  C   UNL     1      -3.356  -1.244  -1.179  0.00  0.00    +0.010 A 
ATOM     15  C   UNL     1      -2.062  -0.769  -1.178  0.00  0.00    +0.004 A 
BRANCH  10  17
ATOM     16  C   UNL     1       0.001   1.498   0.025  0.00  0.00    +0.009 C 
ATOM     17  C   UNL     1       0.014  -0.032   0.010  0.00  0.00    +0.032 C 
ENDBRANCH  10  17
ENDBRANCH   1  13
BRANCH   3  18
ATOM     18  C   UNL     1      -8.015  -3.384  -2.325  0.00  0.00    +0.023 A 
ATOM     19  C   UNL     1      -8.849  -2.292  -2.482  0.00  0.00    +0.009 A 
ATOM     20  C   UNL     1      -9.745  -2.249  -3.534  0.00  0.00    +0.004 A 
ATOM     21  C   UNL     1      -9.812  -3.297  -4.433  0.00  0.00    +0.049 A 
ATOM     22  C   UNL     1      -8.979  -4.394  -4.281  0.00  0.00    +0.162 A 
ATOM     23  C   UNL     1      -8.072  -4.435  -3.226  0.00  0.00    +0.167 A 
BRANCH  23  24
ATOM     24  O   UNL     1      -7.249  -5.507  -3.076  0.00  0.00    -0.491 OA
ATOM     25  C   UNL     1      -7.733  -6.591  -2.281  0.00  0.00    +0.277 C 
ENDBRANCH  23  24
BRANCH  22  26
ATOM     26  O   UNL     1      -9.043  -5.426  -5.165  0.00  0.00    -0.491 OA
ATOM     27  C   UNL     1      -9.994  -5.313  -6.226  0.00  0.00    +0.277 C 
ENDBRANCH  22  26
ENDBRANCH   3  18
BRANCH   6  28
ATOM     28  C   UNL     1      -7.992  -2.358   3.600  0.00  0.00    +0.253 C 
ATOM     29  O   UNL     1      -6.958  -1.815   3.942  0.00  0.00    -0.270 OA
ATOM     30  N   UNL     1      -8.995  -2.515   4.486  0.00  0.00    -0.281 N 
ATOM     31  H   UNL     1      -9.844  -2.886   4.197  0.00  0.00    +0.155 HD
BRANCH  30  32
ATOM     32  C   UNL     1      -8.813  -2.144   5.822  0.00  0.00    +0.034 A 
ATOM     33  C   UNL     1      -8.035  -1.037   6.137  0.00  0.00    +0.023 A 
ATOM     34  C   UNL     1      -7.857  -0.674   7.457  0.00  0.00    +0.005 A 
ATOM     35  C   UNL     1      -8.451  -1.411   8.465  0.00  0.00    -0.050 A 
ATOM     36  C   UNL     1      -9.226  -2.513   8.155  0.00  0.00    +0.005 A 
ATOM     37  C   UNL     1      -9.413  -2.879   6.837  0.00  0.00    +0.023 A 
ATOM     38  C   UNL     1      -8.254  -1.011   9.905  0.00  0.00    +0.044 C 
ENDBRANCH  30  32
ENDBRANCH   6  28
TORSDOF 7
