REMARK  Name = ZINC16256287
REMARK  7 active torsions:
REMARK  status: ('A' for Active; 'I' for Inactive)
REMARK    1  A    between atoms: C_1  and  C_2
REMARK    2  A    between atoms: C_2  and  C_4
REMARK    3  A    between atoms: C_2  and  N_14
REMARK    4  A    between atoms: C_15  and  C_17
REMARK    5  A    between atoms: C_17  and  N_18
REMARK    6  A    between atoms: C_21  and  C_25
REMARK    7  A    between atoms: C_21  and  C_26
REMARK                            x       y       z     vdW  Elec       q    Type
REMARK                         _______ _______ _______ _____ _____    ______ ____
ROOT
ATOM      1  C   UNL     1       0.201  -2.176  -1.164  0.00  0.00    +0.213 C 
ENDROOT
BRANCH   1   2
ATOM      2  N   UNL     1       0.200  -2.663  -2.546  0.00  0.00    -0.215 N 
ATOM      3  C   UNL     1       1.312  -2.839  -3.287  0.00  0.00    +0.251 C 
ATOM      4  O   UNL     1       2.458  -2.632  -2.950  0.00  0.00    -0.272 OA
ATOM      5  C   UNL     1       0.832  -3.350  -4.631  0.00  0.00    +0.135 C 
ATOM      6  N   UNL     1      -0.632  -3.409  -4.476  0.00  0.00    -0.281 N 
ATOM      7  C   UNL     1      -0.904  -2.994  -3.225  0.00  0.00    +0.310 C 
ATOM      8  O   UNL     1      -2.026  -2.924  -2.765  0.00  0.00    -0.252 OA
ATOM      9  C   UNL     1       1.399  -4.743  -4.911  0.00  0.00    +0.047 C 
ATOM     10  H   UNL     1      -1.275  -3.694  -5.144  0.00  0.00    +0.152 HD
BRANCH   5  11
ATOM     11  C   UNL     1       1.214  -2.393  -5.730  0.00  0.00    -0.014 A 
ATOM     12  C   UNL     1       0.421  -2.283  -6.858  0.00  0.00    +0.008 A 
ATOM     13  C   UNL     1       0.771  -1.405  -7.867  0.00  0.00    +0.022 A 
ATOM     14  C   UNL     1       1.914  -0.635  -7.748  0.00  0.00    +0.059 A 
ATOM     15  C   UNL     1       2.707  -0.745  -6.619  0.00  0.00    +0.060 A 
ATOM     16  C   UNL     1       2.353  -1.620  -5.608  0.00  0.00    +0.027 A 
ATOM     17 CL   UNL     1       4.142   0.221  -6.469  0.00  0.00    -0.082 Cl
ATOM     18 CL   UNL     1       2.353   0.467  -9.015  0.00  0.00    -0.082 Cl
ENDBRANCH   5  11
ENDBRANCH   1   2
BRANCH   1  20
ATOM     19  N   UNL     1       0.082  -0.001   0.007  0.00  0.00    -0.307 N 
ATOM     20  C   UNL     1       0.099  -0.673  -1.161  0.00  0.00    +0.231 C 
ATOM     21  O   UNL     1       0.032  -0.068  -2.210  0.00  0.00    -0.274 OA
ATOM     22  H   UNL     1       0.136  -0.485   0.846  0.00  0.00    +0.149 HD
BRANCH  19  24
ATOM     23  C   UNL     1       1.383   2.068  -0.094  0.00  0.00    +0.033 C 
ATOM     24  C   UNL     1      -0.018   1.461   0.010  0.00  0.00    +0.101 C 
BRANCH  24  25
ATOM     25  C   UNL     1      -0.669   1.917   1.290  0.00  0.00    -0.020 A 
ATOM     26  C   UNL     1      -0.570   1.160   2.417  0.00  0.00    +0.006 A 
ATOM     27  C   UNL     1      -1.160   1.569   3.611  0.00  0.00    +0.001 A 
ATOM     28  C   UNL     1      -1.864   2.732   3.682  0.00  0.00    +0.008 A 
ATOM     29  C   UNL     1      -1.994   3.537   2.538  0.00  0.00    -0.018 A 
ATOM     30  C   UNL     1      -1.388   3.124   1.325  0.00  0.00    -0.013 A 
ATOM     31  C   UNL     1      -1.519   3.930   0.181  0.00  0.00    +0.009 A 
ATOM     32  C   UNL     1      -2.223   5.092   0.252  0.00  0.00    +0.001 A 
ATOM     33  C   UNL     1      -2.819   5.498   1.445  0.00  0.00    +0.001 A 
ATOM     34  C   UNL     1      -2.714   4.744   2.573  0.00  0.00    +0.008 A 
ENDBRANCH  24  25
ENDBRANCH  19  24
ENDBRANCH   1  20
TORSDOF 5
