REMARK  Name = ZINC18180963
REMARK  4 active torsions:
REMARK  status: ('A' for Active; 'I' for Inactive)
REMARK    1  A    between atoms: C_1  and  C_2
REMARK    2  A    between atoms: C_4  and  C_38
REMARK    3  A    between atoms: C_6  and  N_8
REMARK    4  A    between atoms: C_13  and  C_31
REMARK                            x       y       z     vdW  Elec       q    Type
REMARK                         _______ _______ _______ _____ _____    ______ ____
ROOT
ATOM      1  N   UNL     1       0.050  -2.798   2.395  0.00  0.00    -0.210 N 
ATOM      2  C   UNL     1      -0.025  -4.133   2.452  0.00  0.00    +0.233 C 
ATOM      3  O   UNL     1      -0.114  -4.870   1.494  0.00  0.00    -0.274 OA
ATOM      4  C   UNL     1       0.018  -4.578   3.895  0.00  0.00    +0.125 C 
ATOM      5  C   UNL     1      -1.359  -5.153   4.293  0.00  0.00    +0.164 C 
ATOM      6  O   UNL     1      -2.138  -4.008   4.707  0.00  0.00    -0.348 OA
ATOM      7  C   UNL     1      -1.228  -3.177   5.442  0.00  0.00    +0.206 C 
ATOM      8  C   UNL     1       0.126  -3.239   4.680  0.00  0.00    +0.138 C 
ATOM      9  C   UNL     1       0.146  -2.196   3.586  0.00  0.00    +0.234 C 
ATOM     10  O   UNL     1       0.232  -1.000   3.761  0.00  0.00    -0.274 OA
ATOM     11  C   UNL     1      -1.732  -1.764   5.532  0.00  0.00    +0.204 C 
ATOM     12  O   UNL     1      -1.991  -1.029   4.603  0.00  0.00    -0.288 OA
ATOM     13  C   UNL     1      -1.851  -1.440   6.967  0.00  0.00    +0.031 A 
ATOM     14  C   UNL     1      -2.267  -0.270   7.606  0.00  0.00    +0.012 A 
ATOM     15  C   UNL     1      -2.293  -0.205   8.986  0.00  0.00    +0.001 A 
ATOM     16  C   UNL     1      -1.908  -1.296   9.746  0.00  0.00    +0.001 A 
ATOM     17  C   UNL     1      -1.494  -2.464   9.134  0.00  0.00    +0.012 A 
ATOM     18  C   UNL     1      -1.460  -2.551   7.741  0.00  0.00    +0.031 A 
ATOM     19  C   UNL     1      -1.065  -3.663   6.855  0.00  0.00    +0.204 C 
ATOM     20  O   UNL     1      -0.683  -4.760   7.201  0.00  0.00    -0.288 OA
ENDROOT
BRANCH   1  26
ATOM     21  C   UNL     1       2.234  -1.626  -1.853  0.00  0.00    +0.044 C 
ATOM     22  C   UNL     1       1.081  -1.502  -0.890  0.00  0.00    -0.048 A 
ATOM     23  C   UNL     1       0.008  -0.687  -1.199  0.00  0.00    +0.006 A 
ATOM     24  C   UNL     1      -1.052  -0.571  -0.318  0.00  0.00    -0.048 A 
ATOM     25  C   UNL     1      -1.041  -1.269   0.874  0.00  0.00    +0.027 A 
ATOM     26  C   UNL     1       0.035  -2.088   1.186  0.00  0.00    +0.044 A 
ATOM     27  C   UNL     1       1.095  -2.208   0.297  0.00  0.00    +0.027 A 
ATOM     28  C   UNL     1      -2.220   0.319  -0.658  0.00  0.00    +0.044 C 
ENDBRANCH   1  26
BRANCH   5  29
ATOM     29  C   UNL     1      -2.005  -5.829   3.112  0.00  0.00    +0.000 A 
ATOM     30  C   UNL     1      -2.897  -5.132   2.319  0.00  0.00    +0.007 A 
ATOM     31  C   UNL     1      -3.490  -5.753   1.235  0.00  0.00    +0.000 A 
ATOM     32  C   UNL     1      -3.191  -7.071   0.943  0.00  0.00    +0.001 A 
ATOM     33  C   UNL     1      -2.299  -7.768   1.735  0.00  0.00    +0.020 A 
ATOM     34  C   UNL     1      -1.700  -7.146   2.817  0.00  0.00    +0.047 A 
ATOM     35 CL   UNL     1      -0.575  -8.020   3.808  0.00  0.00    -0.083 Cl
ENDBRANCH   5  29
TORSDOF 2
