REMARK  Name = ZINC15067333
REMARK  10 active torsions:
REMARK  status: ('A' for Active; 'I' for Inactive)
REMARK    1  A    between atoms: C_1  and  O_2
REMARK    2  A    between atoms: O_2  and  C_3
REMARK    3  A    between atoms: C_8  and  C_9
REMARK    4  A    between atoms: N_12  and  C_21
REMARK    5  A    between atoms: C_21  and  C_22
REMARK    6  A    between atoms: N_24  and  C_25
REMARK    7  A    between atoms: C_25  and  C_27
REMARK    8  A    between atoms: C_25  and  C_34
REMARK    9  A    between atoms: C_27  and  C_28
REMARK   10  A    between atoms: C_28  and  N_29
REMARK                            x       y       z     vdW  Elec       q    Type
REMARK                         _______ _______ _______ _____ _____    ______ ____
ROOT
ATOM      1  C   UNL     1      -3.595  -3.545   0.611  0.00  0.00    +0.180 C 
ENDROOT
BRANCH   1   4
ATOM      2  C   UNL     1       0.051  -2.828  -0.033  0.00  0.00    +0.221 C 
ATOM      3  C   UNL     1      -1.428  -3.002  -0.304  0.00  0.00    +0.134 C 
ATOM      4  N   UNL     1      -2.142  -3.693   0.766  0.00  0.00    -0.286 NA
ATOM      5  C   UNL     1      -1.766  -5.107   0.872  0.00  0.00    +0.124 C 
ATOM      6  C   UNL     1      -0.510  -5.216   1.715  0.00  0.00    +0.008 A 
ATOM      7  C   UNL     1      -0.561  -5.804   2.963  0.00  0.00    +0.008 A 
ATOM      8  C   UNL     1       0.595  -5.914   3.716  0.00  0.00    +0.001 A 
ATOM      9  C   UNL     1       1.794  -5.440   3.218  0.00  0.00    +0.004 A 
ATOM     10  C   UNL     1       1.844  -4.846   1.971  0.00  0.00    +0.046 A 
ATOM     11  C   UNL     1       0.683  -4.727   1.220  0.00  0.00    +0.126 A 
ATOM     12  O   UNL     1       0.711  -4.099   0.012  0.00  0.00    -0.483 OA
BRANCH   2  18
ATOM     13  C   UNL     1       0.606  -0.607  -1.056  0.00  0.00    +0.127 A 
ATOM     14  C   UNL     1       1.173   0.161  -2.063  0.00  0.00    +0.046 A 
ATOM     15  C   UNL     1       1.786  -0.455  -3.136  0.00  0.00    +0.004 A 
ATOM     16  C   UNL     1       1.836  -1.835  -3.208  0.00  0.00    +0.001 A 
ATOM     17  C   UNL     1       1.271  -2.602  -2.207  0.00  0.00    +0.011 A 
ATOM     18  C   UNL     1       0.661  -1.991  -1.128  0.00  0.00    +0.036 A 
BRANCH  13  20
ATOM     19  C   UNL     1      -0.017   1.425   0.010  0.00  0.00    +0.277 C 
ATOM     20  O   UNL     1       0.002  -0.004   0.002  0.00  0.00    -0.495 OA
ENDBRANCH  13  20
ENDBRANCH   2  18
ENDBRANCH   1   4
BRANCH   1  21
ATOM     21  C   UNL     1      -4.287  -4.052   1.850  0.00  0.00    +0.228 C 
ATOM     22  O   UNL     1      -3.634  -4.494   2.771  0.00  0.00    -0.274 OA
ATOM     23  N   UNL     1      -5.632  -4.015   1.934  0.00  0.00    -0.307 N 
ATOM     24  H   UNL     1      -6.154  -3.662   1.197  0.00  0.00    +0.149 HD
BRANCH  23  25
ATOM     25  C   UNL     1      -6.304  -4.509   3.138  0.00  0.00    +0.105 C 
BRANCH  25  26
ATOM     26  C   UNL     1      -6.496  -6.000   3.031  0.00  0.00    -0.027 A 
ATOM     27  C   UNL     1      -6.857  -6.565   1.822  0.00  0.00    +0.005 A 
ATOM     28  C   UNL     1      -7.033  -7.933   1.724  0.00  0.00    +0.000 A 
ATOM     29  C   UNL     1      -6.848  -8.735   2.835  0.00  0.00    +0.000 A 
ATOM     30  C   UNL     1      -6.486  -8.169   4.043  0.00  0.00    +0.000 A 
ATOM     31  C   UNL     1      -6.306  -6.802   4.140  0.00  0.00    +0.005 A 
ENDBRANCH  25  26
BRANCH  25  32
ATOM     32  C   UNL     1      -7.668  -3.828   3.276  0.00  0.00    +0.048 C 
BRANCH  32  33
ATOM     33  C   UNL     1      -7.468  -2.329   3.510  0.00  0.00    +0.125 C 
BRANCH  33  34
ATOM     34  N   UNL     1      -8.773  -1.677   3.642  0.00  0.00    -0.338 N 
ATOM     35  C   UNL     1      -9.523  -1.148   2.626  0.00  0.00    +0.104 A 
ATOM     36  C   UNL     1     -10.643  -0.653   3.187  0.00  0.00    +0.101 A 
ATOM     37  N   UNL     1     -10.578  -0.873   4.508  0.00  0.00    -0.352 N 
ATOM     38  C   UNL     1      -9.463  -1.490   4.787  0.00  0.00    +0.173 A 
ATOM     39  H   UNL     1     -11.255  -0.617   5.154  0.00  0.00    +0.166 HD
ENDBRANCH  33  34
ENDBRANCH  32  33
ENDBRANCH  25  32
ENDBRANCH  23  25
ENDBRANCH   1  21
TORSDOF 9
