REMARK  Name = ZINC06322227
REMARK  15 active torsions:
REMARK  status: ('A' for Active; 'I' for Inactive)
REMARK    1  A    between atoms: C_1  and  C_2
REMARK    2  A    between atoms: C_5  and  C_40
REMARK    3  A    between atoms: C_9  and  C_14
REMARK    4  A    between atoms: C_14  and  C_16
REMARK    5  A    between atoms: C_14  and  N_73
REMARK    6  A    between atoms: N_20  and  C_21
REMARK    7  A    between atoms: C_21  and  C_22
REMARK    8  A    between atoms: C_21  and  C_23
REMARK    9  A    between atoms: C_21  and  C_24
REMARK   10  A    between atoms: C_25  and  C_26
REMARK   11  A    between atoms: C_25  and  N_73
REMARK   12  A    between atoms: C_29  and  O_32
REMARK   13  A    between atoms: O_32  and  C_33
REMARK   14  A    between atoms: C_34  and  C_35
REMARK   15  A    between atoms: C_34  and  N_73
REMARK                            x       y       z     vdW  Elec       q    Type
REMARK                         _______ _______ _______ _____ _____    ______ ____
ROOT
ATOM      1  C   UNL     1       3.067   2.160   3.330  0.00  0.00    +0.040 C 
ENDROOT
BRANCH   1  10
ATOM      2  C   UNL     1      -0.931   3.010   0.104  0.00  0.00    +0.044 C 
ATOM      3  C   UNL     1      -1.370   3.433   1.482  0.00  0.00    -0.041 A 
ATOM      4  C   UNL     1      -2.625   3.935   1.678  0.00  0.00    +0.004 A 
ATOM      5  C   UNL     1      -3.041   4.324   2.944  0.00  0.00    +0.005 A 
ATOM      6  C   UNL     1      -2.193   4.219   4.026  0.00  0.00    -0.026 A 
ATOM      7  C   UNL     1      -0.909   3.715   3.850  0.00  0.00    +0.052 A 
ATOM      8  C   UNL     1      -0.492   3.318   2.565  0.00  0.00    +0.002 A 
ATOM      9  C   UNL     1       0.862   2.789   2.389  0.00  0.00    +0.018 A 
ATOM     10  C   UNL     1       1.668   2.700   3.476  0.00  0.00    +0.011 A 
ATOM     11  C   UNL     1       1.201   3.111   4.743  0.00  0.00    +0.251 A 
ATOM     12  O   UNL     1       1.942   3.023   5.707  0.00  0.00    -0.268 OA
ATOM     13  N   UNL     1      -0.041   3.598   4.914  0.00  0.00    -0.322 N 
ATOM     14  H   UNL     1      -0.329   3.872   5.799  0.00  0.00    +0.169 HD
ATOM     15  C   UNL     1      -2.656   4.649   5.394  0.00  0.00    +0.046 C 
ENDBRANCH   1  10
BRANCH   1  16
ATOM     16  C   UNL     1       3.189   0.868   4.096  0.00  0.00    +0.143 A 
ATOM     17  N   UNL     1       3.314   0.736   5.394  0.00  0.00    -0.115 NA
ATOM     18  N   UNL     1       3.388  -0.522   5.661  0.00  0.00    -0.023 NA
ATOM     19  N   UNL     1       3.314  -1.197   4.566  0.00  0.00    -0.043 NA
ATOM     20  N   UNL     1       3.186  -0.375   3.580  0.00  0.00    -0.225 N 
BRANCH  20  21
ATOM     21  C   UNL     1       3.062  -0.729   2.163  0.00  0.00    +0.059 C 
ATOM     22  C   UNL     1       4.254  -0.161   1.390  0.00  0.00    +0.036 C 
ATOM     23  C   UNL     1       3.039  -2.252   2.018  0.00  0.00    +0.036 C 
ATOM     24  C   UNL     1       1.765  -0.144   1.603  0.00  0.00    +0.036 C 
ENDBRANCH  20  21
ENDBRANCH   1  16
BRANCH   1  25
ATOM     25  N   UNL     1       4.026   3.135   3.891  0.00  0.00    +0.397 N 
ATOM     26  H   UNL     1       3.990   3.087   4.916  0.00  0.00    -0.079 HD
BRANCH  25  27
ATOM     27  C   UNL     1       5.396   2.812   3.443  0.00  0.00    -0.041 C 
BRANCH  27  28
ATOM     28  C   UNL     1       5.997   1.826   4.411  0.00  0.00    -0.064 A 
ATOM     29  C   UNL     1       6.552   2.272   5.596  0.00  0.00    +0.005 A 
ATOM     30  C   UNL     1       7.098   1.370   6.488  0.00  0.00    +0.046 A 
ATOM     31  C   UNL     1       7.101   0.015   6.189  0.00  0.00    +0.120 A 
ATOM     32  C   UNL     1       6.549  -0.430   4.996  0.00  0.00    +0.046 A 
ATOM     33  C   UNL     1       5.998   0.476   4.111  0.00  0.00    +0.005 A 
BRANCH  31  34
ATOM     34  O   UNL     1       7.642  -0.874   7.062  0.00  0.00    -0.495 OA
ATOM     35  C   UNL     1       8.091  -0.359   8.318  0.00  0.00    +0.277 C 
ENDBRANCH  31  34
ENDBRANCH  27  28
ENDBRANCH  25  27
BRANCH  25  36
ATOM     36  C   UNL     1       3.664   4.503   3.462  0.00  0.00    -0.001 C 
BRANCH  36  37
ATOM     37  C   UNL     1       4.452   5.492   4.281  0.00  0.00    +0.089 A 
ATOM     38  C   UNL     1       5.603   6.082   3.908  0.00  0.00    +0.042 A 
ATOM     39  C   UNL     1       5.992   6.929   4.971  0.00  0.00    +0.041 A 
ATOM     40  C   UNL     1       5.056   6.807   5.929  0.00  0.00    +0.195 A 
ATOM     41  O   UNL     1       4.123   5.940   5.503  0.00  0.00    -0.470 OA
ENDBRANCH  36  37
ENDBRANCH  25  36
ENDBRANCH   1  25
TORSDOF 9
