REMARK  Name = ZINC35744168
REMARK  15 active torsions:
REMARK  status: ('A' for Active; 'I' for Inactive)
REMARK    1  A    between atoms: C_1  and  C_2
REMARK    2  A    between atoms: C_2  and  C_3
REMARK    3  A    between atoms: C_3  and  N_4
REMARK    4  A    between atoms: N_4  and  C_5
REMARK    5  A    between atoms: N_4  and  C_16
REMARK    6  A    between atoms: C_5  and  C_6
REMARK    7  A    between atoms: C_9  and  O_14
REMARK    8  A    between atoms: C_10  and  O_12
REMARK    9  A    between atoms: O_12  and  C_13
REMARK   10  A    between atoms: O_14  and  C_15
REMARK   11  A    between atoms: C_16  and  C_17
REMARK   12  A    between atoms: C_20  and  C_22
REMARK   13  A    between atoms: C_22  and  C_23
REMARK   14  A    between atoms: C_22  and  C_28
REMARK   15  A    between atoms: C_22  and  O_33
REMARK                            x       y       z     vdW  Elec       q    Type
REMARK                         _______ _______ _______ _____ _____    ______ ____
ROOT
ATOM      1  C   UNL     1      -0.394  -4.047  -1.083  0.00  0.00    +0.089 A 
ATOM      2  C   UNL     1      -0.486  -4.614   0.134  0.00  0.00    +0.043 A 
ATOM      3  C   UNL     1      -0.351  -6.009  -0.053  0.00  0.00    +0.048 A 
ATOM      4  C   UNL     1      -0.186  -6.211  -1.373  0.00  0.00    +0.147 A 
ATOM      5  O   UNL     1      -0.219  -5.020  -1.992  0.00  0.00    -0.463 OA
ENDROOT
BRANCH   1   6
ATOM      6  C   UNL     1      -0.481  -2.572  -1.377  0.00  0.00    -0.003 C 
BRANCH   6   7
ATOM      7  N   UNL     1       0.843  -1.959  -1.202  0.00  0.00    +0.387 N 
ATOM      8  H   UNL     1       1.194  -2.175  -0.281  0.00  0.00    -0.081 HD
BRANCH   7   9
ATOM      9  C   UNL     1       0.733  -0.502  -1.356  0.00  0.00    -0.078 C 
BRANCH   9  11
ATOM     10  C   UNL     1      -0.120   1.596  -0.301  0.00  0.00    +0.002 C 
ATOM     11  C   UNL     1      -0.116   0.068  -0.218  0.00  0.00    -0.022 C 
ENDBRANCH   9  11
ENDBRANCH   7   9
BRANCH   7  12
ATOM     12  C   UNL     1       1.766  -2.490  -2.214  0.00  0.00    -0.042 C 
BRANCH  12  13
ATOM     13  C   UNL     1       3.152  -1.956  -1.960  0.00  0.00    -0.060 A 
ATOM     14  C   UNL     1       3.551  -0.769  -2.544  0.00  0.00    +0.005 A 
ATOM     15  C   UNL     1       4.822  -0.275  -2.313  0.00  0.00    +0.049 A 
ATOM     16  C   UNL     1       5.698  -0.970  -1.495  0.00  0.00    +0.161 A 
ATOM     17  C   UNL     1       5.295  -2.165  -0.906  0.00  0.00    +0.162 A 
ATOM     18  C   UNL     1       4.019  -2.652  -1.138  0.00  0.00    +0.051 A 
BRANCH  17  19
ATOM     19  O   UNL     1       6.151  -2.851  -0.103  0.00  0.00    -0.491 OA
ATOM     20  C   UNL     1       5.670  -4.070   0.467  0.00  0.00    +0.277 C 
ENDBRANCH  17  19
BRANCH  16  21
ATOM     21  O   UNL     1       6.948  -0.486  -1.268  0.00  0.00    -0.491 OA
ATOM     22  C   UNL     1       7.293   0.746  -1.905  0.00  0.00    +0.277 C 
ENDBRANCH  16  21
ENDBRANCH  12  13
ENDBRANCH   7  12
ENDBRANCH   6   7
ENDBRANCH   1   6
BRANCH   4  23
ATOM     23  C   UNL     1      -0.002  -7.548  -2.043  0.00  0.00    +0.186 C 
BRANCH  23  24
ATOM     24  C   UNL     1      -0.566  -7.493  -3.439  0.00  0.00    +0.034 A 
ATOM     25  C   UNL     1      -1.120  -8.487  -4.176  0.00  0.00    +0.015 A 
ATOM     26  C   UNL     1      -1.577  -8.202  -5.449  0.00  0.00    +0.008 A 
ATOM     27  C   UNL     1      -1.458  -6.938  -5.923  0.00  0.00    +0.045 A 
ATOM     28  S   UNL     1      -0.687  -6.099  -4.548  0.00  0.00    -0.098 S 
ENDBRANCH  23  24
BRANCH  23  29
ATOM     29  C   UNL     1       1.467  -7.879  -2.108  0.00  0.00    +0.034 A 
ATOM     30  C   UNL     1       2.070  -9.093  -2.098  0.00  0.00    +0.015 A 
ATOM     31  C   UNL     1       3.449  -9.158  -2.168  0.00  0.00    +0.008 A 
ATOM     32  C   UNL     1       4.158  -8.005  -2.244  0.00  0.00    +0.045 A 
ATOM     33  S   UNL     1       2.864  -6.774  -2.225  0.00  0.00    -0.098 S 
ENDBRANCH  23  29
BRANCH  23  34
ATOM     34  O   UNL     1      -0.684  -8.555  -1.293  0.00  0.00    -0.371 OA
ATOM     35  H   UNL     1      -1.636  -8.407  -1.210  0.00  0.00    +0.212 HD
ENDBRANCH  23  34
ENDBRANCH   4  23
TORSDOF 12
