REMARK  Name = ZINC59500443
REMARK  8 active torsions:
REMARK  status: ('A' for Active; 'I' for Inactive)
REMARK    1  A    between atoms: C_1  and  C_2
REMARK    2  A    between atoms: C_5  and  C_8
REMARK    3  A    between atoms: C_8  and  O_10
REMARK    4  A    between atoms: O_10  and  C_11
REMARK    5  A    between atoms: C_16  and  C_17
REMARK    6  A    between atoms: N_18  and  N_19
REMARK    7  A    between atoms: C_20  and  C_22
REMARK    8  A    between atoms: C_25  and  N_28
REMARK                            x       y       z     vdW  Elec       q    Type
REMARK                         _______ _______ _______ _____ _____    ______ ____
ROOT
ATOM      1  C   UNL     1       0.299  -6.412   1.198  0.00  0.00    +0.141 A 
ATOM      2  C   UNL     1       0.121  -7.161   0.047  0.00  0.00    +0.048 A 
ATOM      3  C   UNL     1      -0.382  -8.446   0.126  0.00  0.00    +0.019 A 
ATOM      4  C   UNL     1      -0.712  -8.994   1.354  0.00  0.00    +0.019 A 
ATOM      5  C   UNL     1      -0.542  -8.262   2.511  0.00  0.00    +0.028 A 
ATOM      6  C   UNL     1      -0.028  -6.965   2.444  0.00  0.00    +0.038 A 
ATOM      7 BR   UNL     1      -1.401 -10.753   1.446  0.00  0.00    -0.050 Br
ENDROOT
BRANCH   6   8
ATOM      8  C   UNL     1       0.164  -6.179   3.676  0.00  0.00    +0.142 C 
ATOM      9  N   UNL     1       0.345  -6.785   4.811  0.00  0.00    -0.187 NA
BRANCH   9  10
ATOM     10  N   UNL     1       0.555  -8.169   4.840  0.00  0.00    -0.203 N 
ATOM     11  C   UNL     1       0.626  -8.815   6.021  0.00  0.00    +0.263 C 
ATOM     12  O   UNL     1       0.418  -8.213   7.057  0.00  0.00    -0.268 OA
ATOM     13  H   UNL     1       0.650  -8.663   4.011  0.00  0.00    +0.178 HD
BRANCH  11  14
ATOM     14  C   UNL     1       0.957 -10.255   6.057  0.00  0.00    +0.038 A 
ATOM     15  C   UNL     1       1.315 -10.922   4.883  0.00  0.00    +0.015 A 
ATOM     16  C   UNL     1       1.622 -12.266   4.924  0.00  0.00    +0.033 A 
ATOM     17  C   UNL     1       1.577 -12.953   6.124  0.00  0.00    +0.126 A 
ATOM     18  C   UNL     1       1.223 -12.299   7.290  0.00  0.00    +0.033 A 
ATOM     19  C   UNL     1       0.919 -10.953   7.265  0.00  0.00    +0.015 A 
BRANCH  17  20
ATOM     20  N   UNL     1       1.909 -14.395   6.160  0.00  0.00    +0.056 N 
ATOM     21  O   UNL     1       2.308 -14.949   5.162  0.00  0.00    -0.126 OA
ATOM     22  O   UNL     1       1.780 -15.020   7.187  0.00  0.00    -0.126 OA
ENDBRANCH  17  20
ENDBRANCH  11  14
ENDBRANCH   9  10
ENDBRANCH   6   8
BRANCH   1  23
ATOM     23  O   UNL     1       0.794  -5.150   1.121  0.00  0.00    -0.422 OA
BRANCH  23  24
ATOM     24  C   UNL     1       2.107  -4.969   1.363  0.00  0.00    +0.344 C 
ATOM     25  O   UNL     1       2.828  -5.928   1.548  0.00  0.00    -0.245 OA
BRANCH  24  30
ATOM     26  C   UNL     1       4.297   0.349   1.520  0.00  0.00    +0.044 C 
ATOM     27  C   UNL     1       3.723  -1.044   1.479  0.00  0.00    -0.050 A 
ATOM     28  C   UNL     1       4.564  -2.138   1.583  0.00  0.00    +0.004 A 
ATOM     29  C   UNL     1       4.045  -3.416   1.546  0.00  0.00    +0.015 A 
ATOM     30  C   UNL     1       2.669  -3.603   1.403  0.00  0.00    +0.059 A 
ATOM     31  C   UNL     1       1.827  -2.495   1.299  0.00  0.00    +0.015 A 
ATOM     32  C   UNL     1       2.358  -1.222   1.343  0.00  0.00    +0.004 A 
ENDBRANCH  24  30
ENDBRANCH  23  24
ENDBRANCH   1  23
TORSDOF 7
