REMARK  Name = ZINC59437009
REMARK  10 active torsions:
REMARK  status: ('A' for Active; 'I' for Inactive)
REMARK    1  A    between atoms: C_1  and  C_2
REMARK    2  A    between atoms: C_5  and  S_8
REMARK    3  A    between atoms: S_8  and  N_11
REMARK    4  A    between atoms: N_11  and  C_12
REMARK    5  A    between atoms: N_11  and  C_30
REMARK    6  A    between atoms: C_12  and  C_13
REMARK    7  A    between atoms: N_15  and  N_16
REMARK    8  A    between atoms: C_17  and  C_18
REMARK    9  A    between atoms: C_32  and  C_37
REMARK   10  A    between atoms: C_34  and  C_36
REMARK                            x       y       z     vdW  Elec       q    Type
REMARK                         _______ _______ _______ _____ _____    ______ ____
ROOT
ATOM      1  N   UNL     1       1.651  -4.999  -0.034  0.00  0.00    -0.194 N 
ENDROOT
BRANCH   1   2
ATOM      2  C   UNL     1       2.284  -5.292  -1.244  0.00  0.00    +0.052 A 
ATOM      3  C   UNL     1       3.515  -4.721  -1.542  0.00  0.00    +0.028 A 
ATOM      4  C   UNL     1       4.139  -5.013  -2.739  0.00  0.00    -0.048 A 
ATOM      5  C   UNL     1       3.539  -5.872  -3.642  0.00  0.00    +0.006 A 
ATOM      6  C   UNL     1       2.313  -6.441  -3.349  0.00  0.00    -0.048 A 
ATOM      7  C   UNL     1       1.687  -6.158  -2.151  0.00  0.00    +0.028 A 
ATOM      8  C   UNL     1       1.663  -7.376  -4.336  0.00  0.00    +0.044 C 
ATOM      9  C   UNL     1       5.474  -4.394  -3.062  0.00  0.00    +0.044 C 
ENDBRANCH   1   2
BRANCH   1  10
ATOM     10  S   UNL     1       0.149  -4.301  -0.033  0.00  0.00    +0.075 S 
ATOM     11  O   UNL     1      -0.501  -4.738   1.152  0.00  0.00    -0.150 OA
ATOM     12  O   UNL     1      -0.399  -4.515  -1.326  0.00  0.00    -0.150 OA
BRANCH  10  17
ATOM     13  C   UNL     1       0.949   1.653   0.535  0.00  0.00    +0.044 C 
ATOM     14  C   UNL     1       0.750   0.166   0.394  0.00  0.00    -0.050 A 
ATOM     15  C   UNL     1       0.708  -0.409  -0.863  0.00  0.00    +0.005 A 
ATOM     16  C   UNL     1       0.525  -1.773  -0.993  0.00  0.00    +0.029 A 
ATOM     17  C   UNL     1       0.384  -2.562   0.133  0.00  0.00    +0.109 A 
ATOM     18  C   UNL     1       0.427  -1.988   1.389  0.00  0.00    +0.029 A 
ATOM     19  C   UNL     1       0.614  -0.624   1.520  0.00  0.00    +0.005 A 
ENDBRANCH  10  17
ENDBRANCH   1  10
BRANCH   1  20
ATOM     20  C   UNL     1       2.315  -5.311   1.234  0.00  0.00    +0.228 C 
BRANCH  20  21
ATOM     21  C   UNL     1       2.043  -6.746   1.604  0.00  0.00    +0.251 C 
ATOM     22  O   UNL     1       1.361  -7.441   0.880  0.00  0.00    -0.272 OA
ATOM     23  N   UNL     1       2.557  -7.258   2.740  0.00  0.00    -0.206 N 
ATOM     24  H   UNL     1       3.102  -6.702   3.319  0.00  0.00    +0.177 HD
BRANCH  23  25
ATOM     25  N   UNL     1       2.304  -8.592   3.085  0.00  0.00    -0.188 NA
ATOM     26  C   UNL     1       2.799  -9.086   4.180  0.00  0.00    +0.139 C 
BRANCH  26  27
ATOM     27  C   UNL     1       2.534 -10.486   4.541  0.00  0.00    +0.002 A 
ATOM     28  C   UNL     1       3.048 -11.038   5.713  0.00  0.00    +0.010 A 
ATOM     29  C   UNL     1       2.808 -12.361   6.069  0.00  0.00    +0.005 A 
ATOM     30  C   UNL     1       2.052 -13.181   5.284  0.00  0.00    -0.039 A 
ATOM     31  C   UNL     1       1.517 -12.672   4.105  0.00  0.00    -0.011 A 
ATOM     32  C   UNL     1       1.716 -11.345   3.688  0.00  0.00    -0.009 A 
ATOM     33  C   UNL     1       1.126 -10.935   2.487  0.00  0.00    +0.009 A 
ATOM     34  C   UNL     1       0.382 -11.836   1.778  0.00  0.00    +0.001 A 
ATOM     35  C   UNL     1       0.191 -13.149   2.212  0.00  0.00    +0.004 A 
ATOM     36  C   UNL     1       0.762 -13.581   3.370  0.00  0.00    -0.039 A 
ATOM     37  C   UNL     1       0.768 -14.887   4.127  0.00  0.00    +0.040 C 
ATOM     38  C   UNL     1       1.618 -14.624   5.388  0.00  0.00    +0.040 C 
ENDBRANCH  26  27
ENDBRANCH  23  25
ENDBRANCH  20  21
ENDBRANCH   1  20
TORSDOF 7
