REMARK  Name = ZINC39886753
REMARK  1 active torsions:
REMARK  status: ('A' for Active; 'I' for Inactive)
REMARK    1  A    between atoms: C_6  and  C_7
REMARK                            x       y       z     vdW  Elec       q    Type
REMARK                         _______ _______ _______ _____ _____    ______ ____
ROOT
ATOM      1  C   UNL     1      -1.293  -0.775   0.011  0.00  0.00    +0.072 C 
ATOM      2  C   UNL     1      -1.376  -1.548  -1.244  0.00  0.00    +0.032 A 
ATOM      3  C   UNL     1      -1.840  -2.810  -1.457  0.00  0.00    +0.110 A 
ATOM      4  N   UNL     1      -1.844  -3.208  -2.729  0.00  0.00    -0.225 NA
ATOM      5  C   UNL     1      -1.383  -2.442  -3.694  0.00  0.00    +0.147 A 
ATOM      6  S   UNL     1      -1.296  -2.790  -5.419  0.00  0.00    -0.023 SA
ATOM      7  S   UNL     1      -0.898  -1.050  -2.883  0.00  0.00    -0.063 S 
ATOM      8  S   UNL     1      -2.354  -3.810  -0.084  0.00  0.00    -0.091 S 
ATOM      9  C   UNL     1      -2.446  -2.665   1.285  0.00  0.00    +0.152 C 
ATOM     10  C   UNL     1      -1.354  -1.589   1.302  0.00  0.00    +0.110 C 
ATOM     11  C   UNL     1      -2.041  -0.625   2.296  0.00  0.00    +0.235 C 
ATOM     12  O   UNL     1      -1.494   0.120   3.074  0.00  0.00    -0.274 OA
ATOM     13  N   UNL     1      -3.371  -0.775   2.124  0.00  0.00    -0.162 N 
ATOM     14  C   UNL     1      -3.705  -1.859   1.395  0.00  0.00    +0.244 C 
ATOM     15  O   UNL     1      -4.790  -2.129   0.938  0.00  0.00    -0.273 OA
ATOM     16  C   UNL     1      -4.280   0.086   2.623  0.00  0.00    +0.313 C 
ATOM     17  O   UNL     1      -3.915   1.053   3.261  0.00  0.00    -0.252 OA
ATOM     18  N   UNL     1      -5.595  -0.126   2.414  0.00  0.00    -0.313 N 
ATOM     19  H   UNL     1      -5.886  -0.898   1.904  0.00  0.00    +0.147 HD
ATOM     20  H   UNL     1      -6.249   0.493   2.773  0.00  0.00    +0.147 HD
ENDROOT
BRANCH   1  26
ATOM     21  C   UNL     1      -0.017   1.378   0.010  0.00  0.00    +0.006 A 
ATOM     22  C   UNL     1       1.171   2.086   0.002  0.00  0.00    +0.020 A 
ATOM     23  C   UNL     1       2.378   1.410  -0.013  0.00  0.00    +0.041 A 
ATOM     24  C   UNL     1       2.396   0.027  -0.021  0.00  0.00    +0.020 A 
ATOM     25  C   UNL     1       1.208  -0.679  -0.013  0.00  0.00    +0.006 A 
ATOM     26  C   UNL     1       0.002  -0.004   0.002  0.00  0.00    -0.039 A 
ATOM     27 CL   UNL     1       3.870   2.298  -0.023  0.00  0.00    -0.084 Cl
ENDBRANCH   1  26
TORSDOF 1
