REMARK  Name = ZINC39665765
REMARK  9 active torsions:
REMARK  status: ('A' for Active; 'I' for Inactive)
REMARK    1  A    between atoms: C_1  and  C_2
REMARK    2  A    between atoms: C_2  and  C_4
REMARK    3  A    between atoms: C_2  and  O_29
REMARK    4  A    between atoms: C_4  and  N_5
REMARK    5  A    between atoms: C_6  and  C_8
REMARK    6  A    between atoms: C_19  and  C_21
REMARK    7  A    between atoms: O_29  and  C_30
REMARK    8  A    between atoms: C_33  and  O_36
REMARK    9  A    between atoms: O_36  and  C_37
REMARK                            x       y       z     vdW  Elec       q    Type
REMARK                         _______ _______ _______ _____ _____    ______ ____
ROOT
ATOM      1  C   UNL     1      -4.009  -6.268  -1.585  0.00  0.00    +0.100 C 
ATOM      2  C   UNL     1      -3.335  -6.821  -2.860  0.00  0.00    +0.121 C 
ATOM      3  N   UNL     1      -4.403  -7.587  -3.546  0.00  0.00    -0.296 N 
ATOM      4  C   UNL     1      -5.624  -6.767  -3.356  0.00  0.00    +0.115 C 
ATOM      5  C   UNL     1      -5.511  -6.232  -1.915  0.00  0.00    -0.004 C 
ATOM      6  C   UNL     1      -6.035  -4.802  -1.840  0.00  0.00    -0.010 C 
ATOM      7  C   UNL     1      -7.541  -4.800  -2.114  0.00  0.00    -0.082 C 
ATOM      8  N   UNL     1      -8.222  -5.644  -1.124  0.00  0.00    +0.379 N 
ATOM      9  C   UNL     1      -7.780  -7.036  -1.266  0.00  0.00    -0.082 C 
ATOM     10  C   UNL     1      -6.283  -7.133  -0.955  0.00  0.00    -0.010 C 
ATOM     11  C   UNL     1      -4.291  -8.763  -4.194  0.00  0.00    +0.249 C 
ATOM     12  O   UNL     1      -5.247  -9.225  -4.785  0.00  0.00    -0.270 OA
ATOM     13  H   UNL     1      -8.002  -5.315  -0.196  0.00  0.00    -0.086 HD
ATOM     14  H   UNL     1      -9.219  -5.592  -1.269  0.00  0.00    -0.086 HD
ENDROOT
BRANCH  11  15
ATOM     15  C   UNL     1      -3.005  -9.490  -4.186  0.00  0.00    +0.073 A 
ATOM     16  C   UNL     1      -1.804  -8.794  -4.338  0.00  0.00    +0.036 A 
ATOM     17  C   UNL     1      -0.607  -9.479  -4.329  0.00  0.00    +0.042 A 
ATOM     18  C   UNL     1      -0.593 -10.856  -4.171  0.00  0.00    +0.023 A 
ATOM     19  C   UNL     1      -1.777 -11.553  -4.020  0.00  0.00    +0.040 A 
ATOM     20  C   UNL     1      -2.985 -10.878  -4.022  0.00  0.00    +0.136 A 
ATOM     21  F   UNL     1      -4.141 -11.559  -3.869  0.00  0.00    -0.205 F 
ATOM     22 CL   UNL     1       0.887  -8.615  -4.518  0.00  0.00    -0.084 Cl
ENDBRANCH  11  15
BRANCH   1  24
ATOM     23  N   UNL     1      -3.455  -4.440  -0.012  0.00  0.00    -0.312 N 
ATOM     24  C   UNL     1      -3.505  -4.879  -1.285  0.00  0.00    +0.218 C 
ATOM     25  O   UNL     1      -3.143  -4.157  -2.190  0.00  0.00    -0.275 OA
ATOM     26  H   UNL     1      -3.744  -5.018   0.712  0.00  0.00    +0.149 HD
BRANCH  23  27
ATOM     27  C   UNL     1      -2.965  -3.091   0.279  0.00  0.00    +0.148 C 
BRANCH  27  29
ATOM     28  C   UNL     1      -2.500  -1.436   2.092  0.00  0.00    +0.053 C 
ATOM     29  C   UNL     1      -3.012  -2.845   1.788  0.00  0.00    +0.187 C 
BRANCH  29  30
ATOM     30  O   UNL     1      -4.358  -2.973   2.250  0.00  0.00    -0.488 OA
BRANCH  30  31
ATOM     31  C   UNL     1      -4.534  -3.361   3.542  0.00  0.00    +0.121 A 
ATOM     32  C   UNL     1      -5.810  -3.615   4.022  0.00  0.00    +0.049 A 
ATOM     33  C   UNL     1      -5.988  -4.009   5.334  0.00  0.00    +0.049 A 
ATOM     34  C   UNL     1      -4.891  -4.150   6.170  0.00  0.00    +0.120 A 
ATOM     35  C   UNL     1      -3.615  -3.897   5.690  0.00  0.00    +0.049 A 
ATOM     36  C   UNL     1      -3.437  -3.507   4.377  0.00  0.00    +0.049 A 
BRANCH  34  37
ATOM     37  O   UNL     1      -5.067  -4.537   7.462  0.00  0.00    -0.495 OA
ATOM     38  C   UNL     1      -3.893  -4.662   8.267  0.00  0.00    +0.277 C 
ENDBRANCH  34  37
ENDBRANCH  30  31
ENDBRANCH  29  30
ENDBRANCH  27  29
ENDBRANCH  23  27
ENDBRANCH   1  24
TORSDOF 7
