REMARK  Name = ZINC33514979
REMARK  9 active torsions:
REMARK  status: ('A' for Active; 'I' for Inactive)
REMARK    1  A    between atoms: C_1  and  C_2
REMARK    2  A    between atoms: C_5  and  N_8
REMARK    3  A    between atoms: C_10  and  C_14
REMARK    4  A    between atoms: C_11  and  C_13
REMARK    5  A    between atoms: N_15  and  N_16
REMARK    6  A    between atoms: C_17  and  C_19
REMARK    7  A    between atoms: C_19  and  N_20
REMARK    8  A    between atoms: C_28  and  C_29
REMARK    9  A    between atoms: C_29  and  C_30
REMARK                            x       y       z     vdW  Elec       q    Type
REMARK                         _______ _______ _______ _____ _____    ______ ____
ROOT
ATOM      1  N   UNL     1      -1.191   1.867   0.018  0.00  0.00    -0.206 N 
ATOM      2  C   UNL     1      -0.014   1.209   0.009  0.00  0.00    +0.252 C 
ATOM      3  O   UNL     1       0.002  -0.004   0.002  0.00  0.00    -0.272 OA
ATOM      4  H   UNL     1      -1.206   2.967   0.024  0.00  0.00    +0.177 HD
ENDROOT
BRANCH   1   6
ATOM      5  C   UNL     1      -3.527   1.784   0.029  0.00  0.00    +0.143 C 
ATOM      6  N   UNL     1      -2.394   1.150   0.020  0.00  0.00    -0.188 NA
BRANCH   5   9
ATOM      7  N   UNL     1      -6.251  -0.619   0.027  0.00  0.00    -0.221 N 
ATOM      8  C   UNL     1      -4.929  -0.345   0.018  0.00  0.00    +0.142 A 
ATOM      9  C   UNL     1      -4.794   1.029   0.030  0.00  0.00    +0.054 A 
ATOM     10  C   UNL     1      -6.096   1.577   0.040  0.00  0.00    +0.070 A 
ATOM     11  N   UNL     1      -6.952   0.592   0.037  0.00  0.00    -0.170 NA
ATOM     12  C   UNL     1      -6.436   3.045   0.050  0.00  0.00    +0.068 C 
ATOM     13 CL   UNL     1      -3.638  -1.505  -0.004  0.00  0.00    -0.061 Cl
BRANCH   7  18
ATOM     14  C   UNL     1      -8.569  -5.799   0.006  0.00  0.00    +0.044 C 
ATOM     15  C   UNL     1      -7.953  -4.424   0.012  0.00  0.00    -0.050 A 
ATOM     16  C   UNL     1      -8.564  -3.397   0.709  0.00  0.00    +0.005 A 
ATOM     17  C   UNL     1      -8.003  -2.136   0.716  0.00  0.00    +0.028 A 
ATOM     18  C   UNL     1      -6.823  -1.898   0.022  0.00  0.00    +0.067 A 
ATOM     19  C   UNL     1      -6.215  -2.930  -0.681  0.00  0.00    +0.028 A 
ATOM     20  C   UNL     1      -6.779  -4.191  -0.680  0.00  0.00    +0.005 A 
ENDBRANCH   7  18
ENDBRANCH   5   9
ENDBRANCH   1   6
BRANCH   2  21
ATOM     21  C   UNL     1       1.280   1.980   0.001  0.00  0.00    +0.221 C 
BRANCH  21  22
ATOM     22  N   UNL     1       2.407   1.044  -0.015  0.00  0.00    -0.318 N 
ATOM     23  C   UNL     1       3.025   0.527  -1.136  0.00  0.00    +0.069 A 
ATOM     24  C   UNL     1       2.837   0.681  -2.503  0.00  0.00    +0.028 A 
ATOM     25  C   UNL     1       3.650   0.003  -3.385  0.00  0.00    +0.002 A 
ATOM     26  C   UNL     1       4.654  -0.832  -2.917  0.00  0.00    +0.002 A 
ATOM     27  C   UNL     1       4.855  -0.996  -1.576  0.00  0.00    +0.030 A 
ATOM     28  C   UNL     1       4.043  -0.319  -0.662  0.00  0.00    +0.089 A 
ATOM     29  N   UNL     1       3.994  -0.275   0.694  0.00  0.00    -0.232 NA
ATOM     30  C   UNL     1       3.040   0.526   1.072  0.00  0.00    +0.116 A 
BRANCH  30  31
ATOM     31  C   UNL     1       2.687   0.833   2.504  0.00  0.00    +0.109 C 
BRANCH  31  32
ATOM     32  C   UNL     1       1.661  -0.156   2.992  0.00  0.00    -0.040 A 
ATOM     33  C   UNL     1       0.314   0.118   2.849  0.00  0.00    +0.004 A 
ATOM     34  C   UNL     1      -0.628  -0.792   3.292  0.00  0.00    +0.000 A 
ATOM     35  C   UNL     1      -0.222  -1.972   3.887  0.00  0.00    +0.000 A 
ATOM     36  C   UNL     1       1.125  -2.244   4.035  0.00  0.00    +0.000 A 
ATOM     37  C   UNL     1       2.067  -1.336   3.587  0.00  0.00    +0.004 A 
ENDBRANCH  31  32
ENDBRANCH  30  31
ENDBRANCH  21  22
ENDBRANCH   2  21
TORSDOF 7
