REMARK  Name = ZINC06409745
REMARK  8 active torsions:
REMARK  status: ('A' for Active; 'I' for Inactive)
REMARK    1  A    between atoms: C_1  and  C_2
REMARK    2  A    between atoms: C_7  and  C_14
REMARK    3  A    between atoms: C_14  and  N_15
REMARK    4  A    between atoms: N_15  and  C_16
REMARK    5  A    between atoms: N_15  and  S_22
REMARK    6  A    between atoms: C_16  and  C_17
REMARK    7  A    between atoms: S_22  and  C_25
REMARK    8  A    between atoms: C_29  and  N_31
REMARK                            x       y       z     vdW  Elec       q    Type
REMARK                         _______ _______ _______ _____ _____    ______ ____
ROOT
ATOM      1  N   UNL     1      -5.476   0.634   1.556  0.00  0.00    -0.165 NA
ENDROOT
BRANCH   1   2
ATOM      2  S   UNL     1      -4.881   1.077   0.076  0.00  0.00    +0.062 S 
ATOM      3  O   UNL     1      -5.930   1.761  -0.596  0.00  0.00    -0.153 OA
ATOM      4  O   UNL     1      -4.250  -0.074  -0.469  0.00  0.00    -0.153 OA
BRANCH   2   5
ATOM      5  C   UNL     1      -3.608   2.262   0.359  0.00  0.00    +0.108 A 
ATOM      6  C   UNL     1      -3.931   3.593   0.542  0.00  0.00    +0.028 A 
ATOM      7  C   UNL     1      -2.933   4.523   0.764  0.00  0.00    +0.004 A 
ATOM      8  C   UNL     1      -1.611   4.120   0.808  0.00  0.00    +0.033 A 
ATOM      9  C   UNL     1      -1.287   2.789   0.621  0.00  0.00    +0.128 A 
ATOM     10  C   UNL     1      -2.286   1.859   0.399  0.00  0.00    +0.061 A 
BRANCH   9  11
ATOM     11  N   UNL     1       0.129   2.359   0.664  0.00  0.00    +0.056 N 
ATOM     12  O   UNL     1       0.413   1.185   0.504  0.00  0.00    -0.126 OA
ATOM     13  O   UNL     1       1.009   3.179   0.854  0.00  0.00    -0.126 OA
ENDBRANCH   9  11
ENDBRANCH   2   5
ENDBRANCH   1   2
BRANCH   1  14
ATOM     14  C   UNL     1      -4.973  -0.573   2.217  0.00  0.00    +0.150 C 
BRANCH  14  21
ATOM     15  C   UNL     1      -1.932   1.314   9.346  0.00  0.00    +0.044 C 
ATOM     16  C   UNL     1      -2.707   0.922   8.114  0.00  0.00    -0.048 A 
ATOM     17  C   UNL     1      -4.050   0.587   8.224  0.00  0.00    +0.004 A 
ATOM     18  C   UNL     1      -4.770   0.230   7.120  0.00  0.00    +0.010 A 
ATOM     19  C   UNL     1      -4.150   0.201   5.867  0.00  0.00    -0.001 A 
ATOM     20  C   UNL     1      -4.892  -0.177   4.663  0.00  0.00    +0.020 A 
ATOM     21  C   UNL     1      -4.238  -0.188   3.475  0.00  0.00    +0.033 A 
ATOM     22  C   UNL     1      -2.870   0.155   3.414  0.00  0.00    +0.254 A 
ATOM     23  O   UNL     1      -2.300   0.135   2.337  0.00  0.00    -0.268 OA
ATOM     24  N   UNL     1      -2.182   0.509   4.513  0.00  0.00    -0.322 N 
ATOM     25  H   UNL     1      -1.244   0.743   4.435  0.00  0.00    +0.169 HD
ATOM     26  C   UNL     1      -2.789   0.540   5.751  0.00  0.00    +0.049 A 
ATOM     27  C   UNL     1      -2.075   0.901   6.889  0.00  0.00    +0.029 A 
ENDBRANCH  14  21
ENDBRANCH   1  14
BRANCH   1  28
ATOM     28  C   UNL     1      -6.505   1.449   2.206  0.00  0.00    +0.184 C 
BRANCH  28  29
ATOM     29  C   UNL     1      -7.866   0.884   1.891  0.00  0.00    +0.120 A 
ATOM     30  C   UNL     1      -8.519  -0.044   2.613  0.00  0.00    +0.046 A 
ATOM     31  C   UNL     1      -9.751  -0.279   1.960  0.00  0.00    +0.041 A 
ATOM     32  C   UNL     1      -9.777   0.520   0.878  0.00  0.00    +0.195 A 
ATOM     33  O   UNL     1      -8.636   1.226   0.844  0.00  0.00    -0.466 OA
ENDBRANCH  28  29
ENDBRANCH   1  28
TORSDOF 7
