REMARK  Name = ZINC27519269
REMARK  11 active torsions:
REMARK  status: ('A' for Active; 'I' for Inactive)
REMARK    1  A    between atoms: C_1  and  C_2
REMARK    2  A    between atoms: C_2  and  O_4
REMARK    3  A    between atoms: O_4  and  C_5
REMARK    4  A    between atoms: C_6  and  O_29
REMARK    5  A    between atoms: C_8  and  C_12
REMARK    6  A    between atoms: C_17  and  C_19
REMARK    7  A    between atoms: C_22  and  C_25
REMARK    8  A    between atoms: C_25  and  C_26
REMARK    9  A    between atoms: C_25  and  C_27
REMARK   10  A    between atoms: C_25  and  C_28
REMARK   11  A    between atoms: O_29  and  C_30
REMARK                            x       y       z     vdW  Elec       q    Type
REMARK                         _______ _______ _______ _____ _____    ______ ____
ROOT
ATOM      1  C   UNL     1      -5.840  -1.253   0.018  0.00  0.00    +0.043 C 
ATOM      2  C   UNL     1      -6.475  -1.541  -1.172  0.00  0.00    +0.152 C 
ATOM      3  C   UNL     1      -6.018  -1.204  -2.532  0.00  0.00    +0.364 C 
ATOM      4  O   UNL     1      -5.002  -0.612  -2.845  0.00  0.00    -0.243 OA
ATOM      5  O   UNL     1      -6.969  -1.692  -3.357  0.00  0.00    -0.402 OA
ATOM      6  C   UNL     1      -7.927  -2.277  -2.613  0.00  0.00    +0.232 C 
ATOM      7  N   UNL     1      -7.656  -2.204  -1.339  0.00  0.00    -0.205 NA
ENDROOT
BRANCH   1  11
ATOM      8  C   UNL     1      -2.440   1.281   0.044  0.00  0.00    +0.186 A 
ATOM      9  C   UNL     1      -2.491   0.179   0.899  0.00  0.00    +0.164 A 
ATOM     10  C   UNL     1      -3.595  -0.649   0.894  0.00  0.00    +0.057 A 
ATOM     11  C   UNL     1      -4.665  -0.379   0.029  0.00  0.00    -0.018 A 
ATOM     12  C   UNL     1      -4.606   0.731  -0.827  0.00  0.00    +0.026 A 
ATOM     13  C   UNL     1      -3.501   1.553  -0.810  0.00  0.00    +0.060 A 
ATOM     14  I   UNL     1      -3.417   3.215  -2.083  0.00  0.00    -0.040 I 
BRANCH   9  15
ATOM     15  O   UNL     1      -1.452  -0.079   1.737  0.00  0.00    -0.491 OA
ATOM     16  C   UNL     1      -1.571  -1.224   2.584  0.00  0.00    +0.277 C 
ENDBRANCH   9  15
BRANCH   8  17
ATOM     17  O   UNL     1      -1.351   2.093   0.052  0.00  0.00    -0.421 OA
BRANCH  17  19
ATOM     18  C   UNL     1       0.886   2.640  -0.840  0.00  0.00    +0.136 C 
ATOM     19  C   UNL     1      -0.351   1.780  -0.788  0.00  0.00    +0.309 C 
ATOM     20  O   UNL     1      -0.446   0.813  -1.505  0.00  0.00    -0.251 OA
ENDBRANCH  17  19
ENDBRANCH   8  17
ENDBRANCH   1  11
BRANCH   6  21
ATOM     21  C   UNL     1      -9.132  -2.924  -3.170  0.00  0.00    +0.037 A 
ATOM     22  C   UNL     1     -10.071  -3.510  -2.317  0.00  0.00    +0.013 A 
ATOM     23  C   UNL     1     -11.196  -4.109  -2.844  0.00  0.00    +0.005 A 
ATOM     24  C   UNL     1     -11.391  -4.138  -4.214  0.00  0.00    -0.042 A 
ATOM     25  C   UNL     1     -10.463  -3.564  -5.064  0.00  0.00    +0.005 A 
ATOM     26  C   UNL     1      -9.335  -2.958  -4.551  0.00  0.00    +0.013 A 
BRANCH  24  27
ATOM     27  C   UNL     1     -12.621  -4.799  -4.782  0.00  0.00    -0.013 C 
ATOM     28  C   UNL     1     -12.203  -5.946  -5.705  0.00  0.00    +0.015 C 
ATOM     29  C   UNL     1     -13.477  -5.350  -3.640  0.00  0.00    +0.015 C 
ATOM     30  C   UNL     1     -13.430  -3.773  -5.577  0.00  0.00    +0.015 C 
ENDBRANCH  24  27
ENDBRANCH   6  21
TORSDOF 6
