REMARK  Name = ZINC01251012
REMARK  7 active torsions:
REMARK  status: ('A' for Active; 'I' for Inactive)
REMARK    1  A    between atoms: C_1  and  C_2
REMARK    2  A    between atoms: C_7  and  N_28
REMARK    3  A    between atoms: C_8  and  C_13
REMARK    4  A    between atoms: N_17  and  C_21
REMARK    5  A    between atoms: C_21  and  C_22
REMARK    6  A    between atoms: N_28  and  C_29
REMARK    7  A    between atoms: C_29  and  C_30
REMARK                            x       y       z     vdW  Elec       q    Type
REMARK                         _______ _______ _______ _____ _____    ______ ____
ROOT
ATOM      1  C   UNL     1      -3.175   6.808   7.684  0.00  0.00    +0.045 C 
ATOM      2  C   UNL     1      -3.739   5.441   7.395  0.00  0.00    -0.034 A 
ATOM      3  C   UNL     1      -4.752   4.915   8.209  0.00  0.00    +0.008 A 
ATOM      4  C   UNL     1      -5.256   3.677   7.941  0.00  0.00    +0.047 A 
ATOM      5  C   UNL     1      -4.752   2.945   6.851  0.00  0.00    +0.142 A 
ATOM      6  N   UNL     1      -5.252   1.735   6.596  0.00  0.00    -0.214 NA
ATOM      7  C   UNL     1      -4.817   1.003   5.580  0.00  0.00    +0.134 A 
ATOM      8  C   UNL     1      -3.791   1.506   4.747  0.00  0.00    +0.081 A 
ATOM      9  C   UNL     1      -3.268   2.792   5.026  0.00  0.00    +0.267 A 
ATOM     10  O   UNL     1      -2.386   3.267   4.332  0.00  0.00    -0.267 OA
ATOM     11  N   UNL     1      -3.763   3.483   6.076  0.00  0.00    -0.267 N 
ATOM     12  C   UNL     1      -3.266   4.722   6.352  0.00  0.00    +0.099 A 
ENDROOT
BRANCH   8  13
ATOM     13  C   UNL     1      -3.303   0.746   3.659  0.00  0.00    +0.037 C 
ATOM     14  C   UNL     1      -4.163   0.305   2.695  0.00  0.00    +0.077 C 
ATOM     15  C   UNL     1      -3.918  -0.560   1.590  0.00  0.00    +0.259 C 
ATOM     16  O   UNL     1      -2.809  -1.025   1.392  0.00  0.00    -0.269 OA
ATOM     17  N   UNL     1      -4.928  -0.844   0.786  0.00  0.00    -0.251 N 
ATOM     18  C   UNL     1      -6.156  -0.324   1.003  0.00  0.00    +0.121 C 
ATOM     19  S   UNL     1      -7.592  -0.547   0.097  0.00  0.00    -0.027 S 
ATOM     20  S   UNL     1      -5.902   0.654   2.476  0.00  0.00    -0.061 S 
BRANCH  17  21
ATOM     21  C   UNL     1      -4.711  -1.730  -0.361  0.00  0.00    +0.150 C 
BRANCH  21  22
ATOM     22  C   UNL     1      -4.963  -3.157   0.052  0.00  0.00    -0.030 A 
ATOM     23  C   UNL     1      -3.926  -3.928   0.543  0.00  0.00    +0.005 A 
ATOM     24  C   UNL     1      -4.158  -5.235   0.927  0.00  0.00    +0.000 A 
ATOM     25  C   UNL     1      -5.426  -5.775   0.810  0.00  0.00    +0.000 A 
ATOM     26  C   UNL     1      -6.462  -5.006   0.314  0.00  0.00    +0.000 A 
ATOM     27  C   UNL     1      -6.230  -3.696  -0.065  0.00  0.00    +0.005 A 
ENDBRANCH  21  22
ENDBRANCH  17  21
ENDBRANCH   8  13
BRANCH   7  28
ATOM     28  N   UNL     1      -5.358  -0.241   5.341  0.00  0.00    -0.321 N 
ATOM     29  H   UNL     1      -5.035  -0.775   4.598  0.00  0.00    +0.148 HD
BRANCH  28  30
ATOM     30  C   UNL     1      -6.421  -0.757   6.207  0.00  0.00    +0.177 C 
BRANCH  30  31
ATOM     31  C   UNL     1      -6.834  -2.127   5.734  0.00  0.00    +0.122 A 
ATOM     32  C   UNL     1      -6.296  -3.293   6.134  0.00  0.00    +0.046 A 
ATOM     33  C   UNL     1      -6.982  -4.319   5.443  0.00  0.00    +0.041 A 
ATOM     34  C   UNL     1      -7.892  -3.718   4.656  0.00  0.00    +0.195 A 
ATOM     35  O   UNL     1      -7.798  -2.390   4.836  0.00  0.00    -0.466 OA
ENDBRANCH  30  31
ENDBRANCH  28  30
ENDBRANCH   7  28
TORSDOF 6
