REMARK  Name = ZINC13280250
REMARK  8 active torsions:
REMARK  status: ('A' for Active; 'I' for Inactive)
REMARK    1  A    between atoms: C_4  and  C_7
REMARK    2  A    between atoms: C_7  and  C_8
REMARK    3  A    between atoms: C_8  and  N_9
REMARK    4  A    between atoms: C_15  and  C_34
REMARK    5  A    between atoms: C_19  and  S_20
REMARK    6  A    between atoms: S_20  and  C_21
REMARK    7  A    between atoms: C_21  and  C_22
REMARK    8  A    between atoms: C_28  and  C_31
REMARK                            x       y       z     vdW  Elec       q    Type
REMARK                         _______ _______ _______ _____ _____    ______ ____
ROOT
ATOM      1  N   UNL     1      -0.020   1.094   2.454  0.00  0.00    -0.287 N 
ATOM      2  C   UNL     1      -0.365  -0.094   3.002  0.00  0.00    +0.262 A 
ATOM      3  O   UNL     1      -1.256  -0.773   2.527  0.00  0.00    -0.267 OA
ATOM      4  C   UNL     1       0.382  -0.538   4.190  0.00  0.00    +0.065 A 
ATOM      5  C   UNL     1       0.101  -1.750   4.820  0.00  0.00    +0.016 A 
ATOM      6  C   UNL     1       0.812  -2.124   5.924  0.00  0.00    +0.016 A 
ATOM      7  C   UNL     1       1.825  -1.300   6.432  0.00  0.00    +0.065 A 
ATOM      8  C   UNL     1       2.122  -0.089   5.820  0.00  0.00    +0.043 A 
ATOM      9  C   UNL     1       1.400   0.304   4.689  0.00  0.00    +0.080 A 
ATOM     10  N   UNL     1       1.654   1.476   4.061  0.00  0.00    -0.223 NA
ATOM     11  C   UNL     1       0.979   1.847   3.001  0.00  0.00    +0.173 A 
ENDROOT
BRANCH   7  12
ATOM     12  C   UNL     1       2.584  -1.723   7.630  0.00  0.00    +0.387 C 
ATOM     13  O   UNL     1       3.463  -1.012   8.074  0.00  0.00    -0.241 OA
ATOM     14  O   UNL     1       2.301  -2.897   8.227  0.00  0.00    -0.241 OA
ENDBRANCH   7  12
BRANCH   1  15
ATOM     15  C   UNL     1      -0.729   1.579   1.267  0.00  0.00    +0.132 C 
BRANCH  15  16
ATOM     16  C   UNL     1      -0.013   1.086   0.008  0.00  0.00    +0.057 C 
BRANCH  16  20
ATOM     17  C   UNL     1      -2.079   2.501  -3.453  0.00  0.00    +0.000 A 
ATOM     18  C   UNL     1      -1.066   3.259  -2.894  0.00  0.00    +0.000 A 
ATOM     19  C   UNL     1      -0.398   2.801  -1.774  0.00  0.00    +0.004 A 
ATOM     20  C   UNL     1      -0.742   1.585  -1.213  0.00  0.00    -0.046 A 
ATOM     21  C   UNL     1      -1.750   0.825  -1.775  0.00  0.00    +0.004 A 
ATOM     22  C   UNL     1      -2.422   1.285  -2.892  0.00  0.00    +0.000 A 
ENDBRANCH  16  20
ENDBRANCH  15  16
ENDBRANCH   1  15
BRANCH  11  23
ATOM     23  S   UNL     1       1.378   3.389   2.247  0.00  0.00    -0.078 S 
BRANCH  23  24
ATOM     24  C   UNL     1       2.713   3.936   3.339  0.00  0.00    +0.173 C 
BRANCH  24  25
ATOM     25  C   UNL     1       3.226   5.274   2.874  0.00  0.00    +0.226 C 
ATOM     26  O   UNL     1       2.737   5.806   1.900  0.00  0.00    -0.275 OA
ATOM     27  N   UNL     1       4.229   5.881   3.540  0.00  0.00    -0.300 N 
ATOM     28  C   UNL     1       4.827   5.253   4.726  0.00  0.00    +0.108 C 
ATOM     29  C   UNL     1       4.788   6.244   5.888  0.00  0.00    +0.020 C 
ATOM     30  C   UNL     1       5.460   7.551   5.463  0.00  0.00    +0.016 C 
ATOM     31  C   UNL     1       4.697   8.158   4.282  0.00  0.00    +0.092 C 
ATOM     32  C   UNL     1       4.739   7.186   3.099  0.00  0.00    +0.120 C 
BRANCH  31  33
ATOM     33  C   UNL     1       5.340   9.462   3.885  0.00  0.00    +0.215 C 
ATOM     34  O   UNL     1       6.310   9.868   4.488  0.00  0.00    -0.276 OA
ATOM     35  N   UNL     1       4.836  10.177   2.859  0.00  0.00    -0.329 N 
ATOM     36  H   UNL     1       4.060   9.851   2.377  0.00  0.00    +0.145 HD
ATOM     37  H   UNL     1       5.250  11.016   2.604  0.00  0.00    +0.145 HD
ENDBRANCH  31  33
ENDBRANCH  24  25
ENDBRANCH  23  24
ENDBRANCH  11  23
TORSDOF 8
