REMARK  Name = ZINC09907121
REMARK  9 active torsions:
REMARK  status: ('A' for Active; 'I' for Inactive)
REMARK    1  A    between atoms: C_1  and  C_2
REMARK    2  A    between atoms: C_3  and  C_27
REMARK    3  A    between atoms: C_4  and  C_12
REMARK    4  A    between atoms: C_15  and  O_18
REMARK    5  A    between atoms: O_18  and  C_19
REMARK    6  A    between atoms: C_19  and  C_20
REMARK    7  A    between atoms: N_29  and  C_30
REMARK    8  A    between atoms: C_35  and  O_36
REMARK    9  A    between atoms: O_36  and  C_37
REMARK                            x       y       z     vdW  Elec       q    Type
REMARK                         _______ _______ _______ _____ _____    ______ ____
ROOT
ATOM      1  C   UNL     1      -0.018   1.502   0.020  0.00  0.00    +0.061 C 
ATOM      2  C   UNL     1       0.002  -0.005   0.021  0.00  0.00    +0.018 C 
ATOM      3  C   UNL     1      -1.163  -0.668   0.019  0.00  0.00    +0.060 C 
ATOM      4  C   UNL     1      -1.253  -2.171   0.032  0.00  0.00    +0.177 C 
ATOM      5  N   UNL     1       0.063  -2.740  -0.247  0.00  0.00    -0.221 N 
ATOM      6  C   UNL     1       1.209  -2.015  -0.242  0.00  0.00    +0.218 A 
ATOM      7  N   UNL     1       2.196  -2.822  -0.521  0.00  0.00    -0.201 NA
ATOM      8  C   UNL     1       1.723  -4.058  -0.712  0.00  0.00    +0.247 A 
ATOM      9  N   UNL     1       0.422  -4.050  -0.555  0.00  0.00    -0.156 NA
ATOM     10  N   UNL     1       1.214  -0.652   0.017  0.00  0.00    -0.287 N 
ATOM     11  H   UNL     1       2.040  -0.176   0.192  0.00  0.00    +0.155 HD
ENDROOT
BRANCH   4  12
ATOM     12  C   UNL     1      -1.724  -2.635   1.387  0.00  0.00    -0.018 A 
ATOM     13  C   UNL     1      -0.987  -2.329   2.515  0.00  0.00    +0.009 A 
ATOM     14  C   UNL     1      -1.416  -2.754   3.758  0.00  0.00    +0.046 A 
ATOM     15  C   UNL     1      -2.588  -3.486   3.873  0.00  0.00    +0.121 A 
ATOM     16  C   UNL     1      -3.327  -3.791   2.739  0.00  0.00    +0.046 A 
ATOM     17  C   UNL     1      -2.896  -3.360   1.499  0.00  0.00    +0.009 A 
BRANCH  15  18
ATOM     18  O   UNL     1      -3.013  -3.905   5.094  0.00  0.00    -0.487 OA
BRANCH  18  19
ATOM     19  C   UNL     1      -4.229  -4.654   5.137  0.00  0.00    +0.267 C 
BRANCH  19  20
ATOM     20  C   UNL     1      -4.538  -5.030   6.563  0.00  0.00    +0.025 A 
ATOM     21  C   UNL     1      -3.689  -4.636   7.581  0.00  0.00    +0.010 A 
ATOM     22  C   UNL     1      -3.973  -4.980   8.889  0.00  0.00    +0.001 A 
ATOM     23  C   UNL     1      -5.105  -5.718   9.182  0.00  0.00    +0.003 A 
ATOM     24  C   UNL     1      -5.955  -6.112   8.166  0.00  0.00    +0.039 A 
ATOM     25  C   UNL     1      -5.675  -5.763   6.855  0.00  0.00    +0.130 A 
ATOM     26  F   UNL     1      -6.508  -6.144   5.862  0.00  0.00    -0.205 F 
ENDBRANCH  19  20
ENDBRANCH  18  19
ENDBRANCH  15  18
ENDBRANCH   4  12
BRANCH   3  27
ATOM     27  C   UNL     1      -2.364   0.079   0.006  0.00  0.00    +0.248 C 
ATOM     28  O   UNL     1      -2.324   1.296  -0.004  0.00  0.00    -0.270 OA
ATOM     29  N   UNL     1      -3.553  -0.556   0.004  0.00  0.00    -0.279 N 
ATOM     30  H   UNL     1      -3.587  -1.523  -0.069  0.00  0.00    +0.155 HD
BRANCH  29  31
ATOM     31  C   UNL     1      -4.740   0.180   0.109  0.00  0.00    +0.076 A 
ATOM     32  C   UNL     1      -4.734   1.429   0.711  0.00  0.00    +0.027 A 
ATOM     33  C   UNL     1      -5.906   2.154   0.812  0.00  0.00    +0.002 A 
ATOM     34  C   UNL     1      -7.088   1.636   0.315  0.00  0.00    +0.004 A 
ATOM     35  C   UNL     1      -7.103   0.391  -0.286  0.00  0.00    +0.047 A 
ATOM     36  C   UNL     1      -5.930  -0.339  -0.397  0.00  0.00    +0.141 A 
BRANCH  36  37
ATOM     37  O   UNL     1      -5.942  -1.561  -0.994  0.00  0.00    -0.493 OA
ATOM     38  C   UNL     1      -7.198  -2.029  -1.489  0.00  0.00    +0.277 C 
ENDBRANCH  36  37
ENDBRANCH  29  31
ENDBRANCH   3  27
TORSDOF 7
