REMARK  Name = ZINC37475089
REMARK  5 active torsions:
REMARK  status: ('A' for Active; 'I' for Inactive)
REMARK    1  A    between atoms: C_1  and  C_2
REMARK    2  A    between atoms: C_2  and  C_3
REMARK    3  A    between atoms: C_2  and  C_4
REMARK    4  A    between atoms: C_6  and  C_9
REMARK    5  A    between atoms: C_11  and  N_16
REMARK                            x       y       z     vdW  Elec       q    Type
REMARK                         _______ _______ _______ _____ _____    ______ ____
ROOT
ATOM      1  C   UNL     1      -4.135  -2.408  -1.403  0.00  0.00    +0.076 A 
ATOM      2  C   UNL     1      -5.441  -2.615  -0.956  0.00  0.00    +0.038 A 
ATOM      3  C   UNL     1      -6.309  -3.395  -1.703  0.00  0.00    +0.025 A 
ATOM      4  C   UNL     1      -5.879  -3.969  -2.894  0.00  0.00    +0.025 A 
ATOM      5  C   UNL     1      -4.587  -3.765  -3.339  0.00  0.00    +0.041 A 
ATOM      6  C   UNL     1      -3.714  -2.984  -2.605  0.00  0.00    +0.136 A 
ATOM      7  F   UNL     1      -2.453  -2.783  -3.046  0.00  0.00    -0.205 F 
ENDROOT
BRANCH   1  10
ATOM      8  C   UNL     1      -1.412  -0.526   0.013  0.00  0.00    +0.175 A 
ATOM      9  N   UNL     1      -1.957  -1.303  -0.925  0.00  0.00    -0.191 NA
ATOM     10  C   UNL     1      -3.204  -1.577  -0.612  0.00  0.00    +0.261 A 
ATOM     11  O   UNL     1      -3.483  -0.969   0.554  0.00  0.00    -0.333 OA
ATOM     12  N   UNL     1      -2.295  -0.295   0.942  0.00  0.00    -0.061 NA
BRANCH   8  14
ATOM     13  C   UNL     1      -0.019   1.526   0.010  0.00  0.00    +0.015 C 
ATOM     14  C   UNL     1       0.002  -0.004   0.002  0.00  0.00    +0.054 C 
ATOM     15  C   UNL     1       0.742  -0.511   1.242  0.00  0.00    +0.015 C 
ENDBRANCH   8  14
ENDBRANCH   1  10
BRANCH   3  16
ATOM     16  N   UNL     1      -7.618  -3.605  -1.259  0.00  0.00    -0.358 N 
ATOM     17  H   UNL     1      -7.918  -3.205  -0.427  0.00  0.00    +0.142 HD
ATOM     18  H   UNL     1      -8.226  -4.151  -1.782  0.00  0.00    +0.142 HD
ENDBRANCH   3  16
TORSDOF 3
