REMARK  Name = ZINC16009611
REMARK  7 active torsions:
REMARK  status: ('A' for Active; 'I' for Inactive)
REMARK    1  A    between atoms: C_1  and  C_2
REMARK    2  A    between atoms: C_3  and  N_11
REMARK    3  A    between atoms: C_7  and  N_8
REMARK    4  A    between atoms: C_16  and  C_33
REMARK    5  A    between atoms: C_33  and  C_34
REMARK    6  A    between atoms: C_34  and  S_35
REMARK    7  A    between atoms: S_35  and  C_36
REMARK                            x       y       z     vdW  Elec       q    Type
REMARK                         _______ _______ _______ _____ _____    ______ ____
ROOT
ATOM      1  N   UNL     1      -1.263  -0.450  -2.702  0.00  0.00    -0.209 N 
ATOM      2  C   UNL     1      -0.412   0.364  -3.339  0.00  0.00    +0.232 C 
ATOM      3  O   UNL     1       0.664   0.723  -2.913  0.00  0.00    -0.274 OA
ATOM      4  C   UNL     1      -1.002   0.764  -4.672  0.00  0.00    +0.107 C 
ATOM      5  C   UNL     1      -0.166   0.139  -5.808  0.00  0.00    +0.068 C 
ATOM      6  N   UNL     1      -0.750  -1.213  -6.014  0.00  0.00    -0.295 NA
ATOM      7  C   UNL     1      -2.201  -1.006  -5.853  0.00  0.00    +0.136 C 
ATOM      8  C   UNL     1      -2.365   0.016  -4.700  0.00  0.00    +0.123 C 
ATOM      9  C   UNL     1      -2.388  -0.714  -3.376  0.00  0.00    +0.233 C 
ATOM     10  O   UNL     1      -3.288  -1.427  -2.985  0.00  0.00    -0.274 OA
ATOM     11  C   UNL     1      -2.912  -2.296  -5.557  0.00  0.00    +0.003 A 
ATOM     12  C   UNL     1      -2.807  -3.228  -4.549  0.00  0.00    +0.008 A 
ATOM     13  C   UNL     1      -3.623  -4.346  -4.551  0.00  0.00    +0.000 A 
ATOM     14  C   UNL     1      -4.543  -4.524  -5.567  0.00  0.00    +0.002 A 
ATOM     15  C   UNL     1      -4.654  -3.592  -6.578  0.00  0.00    +0.023 A 
ATOM     16  C   UNL     1      -3.837  -2.464  -6.584  0.00  0.00    +0.039 A 
ATOM     17  N   UNL     1      -3.762  -1.397  -7.481  0.00  0.00    -0.283 N 
ATOM     18  C   UNL     1      -2.826  -0.496  -7.123  0.00  0.00    +0.243 C 
ATOM     19  O   UNL     1      -2.542   0.526  -7.710  0.00  0.00    -0.273 OA
ATOM     20  H   UNL     1      -0.534  -1.563  -6.936  0.00  0.00    +0.123 HD
ATOM     21  H   UNL     1      -4.318  -1.313  -8.271  0.00  0.00    +0.155 HD
ENDROOT
BRANCH   1  24
ATOM     22  C   UNL     1      -2.112   1.015  -0.413  0.00  0.00    +0.048 C 
ATOM     23  C   UNL     1      -1.392  -0.304  -0.292  0.00  0.00    +0.002 A 
ATOM     24  C   UNL     1      -0.995  -0.986  -1.435  0.00  0.00    +0.049 A 
ATOM     25  C   UNL     1      -0.332  -2.200  -1.319  0.00  0.00    +0.024 A 
ATOM     26  C   UNL     1      -0.069  -2.726  -0.069  0.00  0.00    +0.004 A 
ATOM     27  C   UNL     1      -0.467  -2.044   1.067  0.00  0.00    +0.033 A 
ATOM     28  C   UNL     1      -1.122  -0.832   0.955  0.00  0.00    +0.131 A 
BRANCH  28  29
ATOM     29  N   UNL     1      -1.539  -0.102   2.173  0.00  0.00    +0.057 N 
ATOM     30  O   UNL     1      -1.485   1.106   2.203  0.00  0.00    -0.126 OA
ATOM     31  O   UNL     1      -1.935  -0.713   3.138  0.00  0.00    -0.126 OA
ENDBRANCH  28  29
ENDBRANCH   1  24
BRANCH   5  32
ATOM     32  C   UNL     1      -0.291   0.976  -7.083  0.00  0.00    +0.030 C 
BRANCH  32  33
ATOM     33  C   UNL     1       0.845   1.999  -7.136  0.00  0.00    +0.070 C 
BRANCH  33  34
ATOM     34  S   UNL     1       0.696   2.991  -8.647  0.00  0.00    -0.164 S 
ATOM     35  C   UNL     1       2.098   4.139  -8.558  0.00  0.00    +0.084 C 
ENDBRANCH  33  34
ENDBRANCH  32  33
ENDBRANCH   5  32
TORSDOF 5
