REMARK  Name = ZINC36545466
REMARK  12 active torsions:
REMARK  status: ('A' for Active; 'I' for Inactive)
REMARK    1  A    between atoms: C_1  and  C_2
REMARK    2  A    between atoms: C_2  and  C_3
REMARK    3  A    between atoms: C_3  and  C_4
REMARK    4  A    between atoms: C_4  and  N_5
REMARK    5  A    between atoms: C_6  and  C_8
REMARK    6  A    between atoms: C_8  and  C_10
REMARK    7  A    between atoms: C_8  and  N_13
REMARK    8  A    between atoms: C_11  and  C_12
REMARK    9  A    between atoms: N_13  and  C_14
REMARK   10  A    between atoms: C_21  and  C_23
REMARK   11  A    between atoms: C_27  and  O_30
REMARK   12  A    between atoms: C_28  and  O_29
REMARK                            x       y       z     vdW  Elec       q    Type
REMARK                         _______ _______ _______ _____ _____    ______ ____
ROOT
ATOM      1  N   UNL     1       2.870  -5.840   3.546  0.00  0.00    -0.250 N 
ATOM      2  C   UNL     1       4.086  -6.268   3.941  0.00  0.00    +0.255 C 
ATOM      3  O   UNL     1       4.883  -5.481   4.414  0.00  0.00    -0.269 OA
ENDROOT
BRANCH   1   4
ATOM      4  C   UNL     1       1.920  -6.759   3.087  0.00  0.00    +0.056 A 
ATOM      5  C   UNL     1       1.781  -6.994   1.726  0.00  0.00    +0.025 A 
ATOM      6  C   UNL     1       0.842  -7.902   1.275  0.00  0.00    +0.002 A 
ATOM      7  C   UNL     1       0.042  -8.577   2.179  0.00  0.00    +0.002 A 
ATOM      8  C   UNL     1       0.177  -8.346   3.535  0.00  0.00    +0.022 A 
ATOM      9  C   UNL     1       1.118  -7.443   3.993  0.00  0.00    +0.062 A 
ATOM     10 CL   UNL     1       1.293  -7.158   5.696  0.00  0.00    -0.082 Cl
ENDBRANCH   1   4
BRANCH   2  11
ATOM     11  C   UNL     1       4.449  -7.690   3.798  0.00  0.00    +0.082 A 
ATOM     12  C   UNL     1       4.266  -8.343   2.576  0.00  0.00    +0.017 A 
ATOM     13  C   UNL     1       4.606  -9.672   2.447  0.00  0.00    +0.005 A 
ATOM     14  C   UNL     1       5.131 -10.368   3.524  0.00  0.00    +0.049 A 
ATOM     15  C   UNL     1       5.319  -9.735   4.741  0.00  0.00    +0.159 A 
ATOM     16  C   UNL     1       4.985  -8.392   4.885  0.00  0.00    +0.171 A 
BRANCH  16  17
ATOM     17  O   UNL     1       5.173  -7.766   6.075  0.00  0.00    -0.503 OA
ATOM     18  H   UNL     1       4.413  -7.818   6.671  0.00  0.00    +0.292 HD
ENDBRANCH  16  17
BRANCH  15  19
ATOM     19  O   UNL     1       5.834 -10.425   5.793  0.00  0.00    -0.503 OA
ATOM     20  H   UNL     1       6.798 -10.392   5.851  0.00  0.00    +0.292 HD
ENDBRANCH  15  19
ENDBRANCH   2  11
BRANCH   1  21
ATOM     21  C   UNL     1       2.543  -4.413   3.598  0.00  0.00    +0.190 C 
BRANCH  21  23
ATOM     22  N   UNL     1       2.384  -2.636   5.311  0.00  0.00    -0.314 N 
ATOM     23  C   UNL     1       2.643  -3.926   5.021  0.00  0.00    +0.238 C 
ATOM     24  O   UNL     1       2.957  -4.695   5.904  0.00  0.00    -0.273 OA
ATOM     25  H   UNL     1       2.134  -2.020   4.605  0.00  0.00    +0.149 HD
BRANCH  22  26
ATOM     26  C   UNL     1       2.482  -2.163   6.694  0.00  0.00    +0.104 C 
BRANCH  26  27
ATOM     27  C   UNL     1       2.140  -0.672   6.749  0.00  0.00    +0.018 C 
BRANCH  27  29
ATOM     28  C   UNL     1       1.900   1.313   8.247  0.00  0.00    +0.004 C 
ATOM     29  C   UNL     1       2.242  -0.178   8.193  0.00  0.00    -0.002 C 
ENDBRANCH  27  29
ENDBRANCH  26  27
ENDBRANCH  22  26
ENDBRANCH  21  23
BRANCH  21  30
ATOM     30  C   UNL     1       3.510  -3.644   2.735  0.00  0.00    +0.000 C 
ATOM     31  C   UNL     1       4.376  -4.286   1.990  0.00  0.00    -0.032 C 
ATOM     32  C   UNL     1       5.435  -3.522   1.238  0.00  0.00    +0.035 C 
ENDBRANCH  21  30
ENDBRANCH   1  21
TORSDOF 10
