REMARK  Name = ZINC41311131
REMARK  5 active torsions:
REMARK  status: ('A' for Active; 'I' for Inactive)
REMARK    1  A    between atoms: C_1  and  C_2
REMARK    2  A    between atoms: C_9  and  N_22
REMARK    3  A    between atoms: C_10  and  C_11
REMARK    4  A    between atoms: N_13  and  C_14
REMARK    5  A    between atoms: C_23  and  C_25
REMARK                            x       y       z     vdW  Elec       q    Type
REMARK                         _______ _______ _______ _____ _____    ______ ____
ROOT
ATOM      1  C   UNL     1      -0.019   1.526   0.010  0.00  0.00    +0.008 C 
ATOM      2  C   UNL     1       0.002  -0.004   0.002  0.00  0.00    -0.009 C 
ATOM      3  C   UNL     1      -1.434  -0.537   0.019  0.00  0.00    +0.008 C 
ATOM      4  C   UNL     1      -1.433  -2.045  -0.237  0.00  0.00    +0.037 C 
ATOM      5  C   UNL     1      -0.464  -2.704   0.734  0.00  0.00    -0.023 A 
ATOM      6  C   UNL     1       0.485  -1.986   1.374  0.00  0.00    -0.004 A 
ATOM      7  S   UNL     1       1.343  -3.167   2.373  0.00  0.00    -0.077 S 
ATOM      8  C   UNL     1       0.493  -4.557   1.968  0.00  0.00    +0.085 A 
ATOM      9  C   UNL     1      -0.459  -4.119   1.061  0.00  0.00    +0.069 A 
ATOM     10  C   UNL     1       0.739  -0.515   1.248  0.00  0.00    +0.046 C 
ENDROOT
BRANCH   9  11
ATOM     11  C   UNL     1      -1.421  -5.045   0.456  0.00  0.00    +0.247 C 
ATOM     12  O   UNL     1      -1.148  -5.611  -0.587  0.00  0.00    -0.270 OA
ATOM     13  N   UNL     1      -2.607  -5.271   1.054  0.00  0.00    -0.307 N 
ATOM     14  H   UNL     1      -2.825  -4.821   1.885  0.00  0.00    +0.149 HD
BRANCH  13  15
ATOM     15  C   UNL     1      -3.568  -6.197   0.449  0.00  0.00    +0.096 C 
ATOM     16  C   UNL     1      -3.247  -7.632   0.898  0.00  0.00    +0.046 C 
ATOM     17  C   UNL     1      -4.446  -8.542   0.508  0.00  0.00    +0.168 C 
ATOM     18  S   UNL     1      -5.859  -7.440   0.936  0.00  0.00    -0.029 S 
ATOM     19  O   UNL     1      -6.269  -7.711   2.269  0.00  0.00    -0.174 OA
ATOM     20  O   UNL     1      -6.816  -7.486  -0.113  0.00  0.00    -0.174 OA
ATOM     21  C   UNL     1      -5.000  -5.815   0.895  0.00  0.00    +0.188 C 
ENDBRANCH  13  15
ENDBRANCH   9  11
BRANCH   8  22
ATOM     22  N   UNL     1       0.696  -5.846   2.434  0.00  0.00    -0.273 N 
ATOM     23  C   UNL     1       1.677  -6.094   3.325  0.00  0.00    +0.284 C 
ATOM     24  O   UNL     1       2.384  -5.186   3.719  0.00  0.00    -0.266 OA
ATOM     25  H   UNL     1       0.131  -6.569   2.120  0.00  0.00    +0.156 HD
BRANCH  23  26
ATOM     26  C   UNL     1       1.892  -7.460   3.819  0.00  0.00    +0.191 A 
ATOM     27  C   UNL     1       2.843  -7.826   4.718  0.00  0.00    +0.063 A 
ATOM     28  C   UNL     1       2.686  -9.267   4.910  0.00  0.00    +0.022 A 
ATOM     29  C   UNL     1       3.342 -10.222   5.689  0.00  0.00    +0.031 A 
ATOM     30  C   UNL     1       2.941 -11.528   5.641  0.00  0.00    +0.042 A 
ATOM     31  C   UNL     1       1.885 -11.910   4.822  0.00  0.00    +0.023 A 
ATOM     32  C   UNL     1       1.226 -10.982   4.046  0.00  0.00    +0.048 A 
ATOM     33  C   UNL     1       1.616  -9.648   4.079  0.00  0.00    +0.136 A 
ATOM     34  O   UNL     1       1.171  -8.541   3.454  0.00  0.00    -0.450 OA
ATOM     35 CL   UNL     1       3.756 -12.718   6.608  0.00  0.00    -0.084 Cl
ENDBRANCH  23  26
ENDBRANCH   8  22
TORSDOF 4
