REMARK  Name = ZINC02543324
REMARK  10 active torsions:
REMARK  status: ('A' for Active; 'I' for Inactive)
REMARK    1  A    between atoms: C_1  and  C_2
REMARK    2  A    between atoms: C_2  and  C_3
REMARK    3  A    between atoms: C_6  and  N_9
REMARK    4  A    between atoms: C_10  and  C_12
REMARK    5  A    between atoms: N_14  and  N_15
REMARK    6  A    between atoms: C_16  and  C_17
REMARK    7  A    between atoms: C_26  and  O_27
REMARK    8  A    between atoms: O_27  and  C_28
REMARK    9  A    between atoms: C_28  and  C_30
REMARK   10  A    between atoms: C_33  and  C_36
REMARK                            x       y       z     vdW  Elec       q    Type
REMARK                         _______ _______ _______ _____ _____    ______ ____
ROOT
ATOM      1  C   UNL     1       0.698   5.230   0.209  0.00  0.00    +0.045 A 
ATOM      2  C   UNL     1       0.895   3.785   0.116  0.00  0.00    -0.006 A 
ATOM      3  C   UNL     1      -0.163   2.889   0.311  0.00  0.00    +0.009 A 
ATOM      4  C   UNL     1       0.062   1.548   0.210  0.00  0.00    +0.001 A 
ATOM      5  C   UNL     1       1.334   1.056  -0.073  0.00  0.00    +0.001 A 
ATOM      6  C   UNL     1       2.385   1.899  -0.269  0.00  0.00    +0.008 A 
ATOM      7  C   UNL     1       2.188   3.288  -0.178  0.00  0.00    -0.017 A 
ATOM      8  C   UNL     1       3.250   4.189  -0.373  0.00  0.00    +0.012 A 
ATOM      9  C   UNL     1       3.049   5.531  -0.283  0.00  0.00    +0.047 A 
ATOM     10  C   UNL     1       1.795   6.068   0.004  0.00  0.00    +0.141 A 
ENDROOT
BRANCH   1  12
ATOM     11  N   UNL     1      -0.766   7.070   0.692  0.00  0.00    -0.187 NA
ATOM     12  C   UNL     1      -0.626   5.789   0.512  0.00  0.00    +0.142 C 
BRANCH  11  15
ATOM     13  C   UNL     1      -2.180   8.924   1.173  0.00  0.00    +0.318 C 
ATOM     14  O   UNL     1      -1.242   9.673   0.988  0.00  0.00    -0.263 OA
ATOM     15  N   UNL     1      -2.004   7.590   1.092  0.00  0.00    -0.199 N 
ATOM     16  H   UNL     1      -2.734   6.990   1.311  0.00  0.00    +0.178 HD
BRANCH  13  18
ATOM     17  N   UNL     1      -3.703  10.814   1.570  0.00  0.00    -0.278 N 
ATOM     18  C   UNL     1      -3.526   9.480   1.490  0.00  0.00    +0.305 C 
ATOM     19  O   UNL     1      -4.464   8.731   1.675  0.00  0.00    -0.265 OA
ATOM     20  H   UNL     1      -2.973  11.414   1.349  0.00  0.00    +0.155 HD
BRANCH  17  24
ATOM     21  C   UNL     1      -7.379  12.360   2.770  0.00  0.00    -0.048 A 
ATOM     22  C   UNL     1      -6.920  11.173   3.312  0.00  0.00    +0.005 A 
ATOM     23  C   UNL     1      -5.701  10.658   2.916  0.00  0.00    +0.023 A 
ATOM     24  C   UNL     1      -4.936  11.332   1.972  0.00  0.00    +0.034 A 
ATOM     25  C   UNL     1      -5.398  12.527   1.434  0.00  0.00    +0.023 A 
ATOM     26  C   UNL     1      -6.620  13.034   1.830  0.00  0.00    +0.005 A 
BRANCH  21  28
ATOM     27  C   UNL     1      -8.506  13.843   4.406  0.00  0.00    +0.009 C 
ATOM     28  C   UNL     1      -8.709  12.919   3.203  0.00  0.00    +0.032 C 
ENDBRANCH  21  28
ENDBRANCH  17  24
ENDBRANCH  13  18
ENDBRANCH  11  15
ENDBRANCH   1  12
BRANCH  10  29
ATOM     29  O   UNL     1       1.641   7.414   0.084  0.00  0.00    -0.422 OA
BRANCH  29  30
ATOM     30  C   UNL     1       1.798   7.977   1.298  0.00  0.00    +0.344 C 
ATOM     31  O   UNL     1       1.964   7.275   2.276  0.00  0.00    -0.245 OA
BRANCH  30  32
ATOM     32  C   UNL     1       1.769   9.447   1.441  0.00  0.00    +0.059 A 
ATOM     33  C   UNL     1       1.579  10.256   0.319  0.00  0.00    +0.015 A 
ATOM     34  C   UNL     1       1.548  11.628   0.460  0.00  0.00    +0.004 A 
ATOM     35  C   UNL     1       1.716  12.203   1.707  0.00  0.00    -0.050 A 
ATOM     36  C   UNL     1       1.910  11.406   2.822  0.00  0.00    +0.004 A 
ATOM     37  C   UNL     1       1.938  10.033   2.697  0.00  0.00    +0.015 A 
ATOM     38  C   UNL     1       1.688  13.702   1.853  0.00  0.00    +0.044 C 
ENDBRANCH  30  32
ENDBRANCH  29  30
ENDBRANCH  10  29
TORSDOF 8
