REMARK  Name = ZINC12823913
REMARK  9 active torsions:
REMARK  status: ('A' for Active; 'I' for Inactive)
REMARK    1  A    between atoms: C_1  and  C_2
REMARK    2  A    between atoms: C_2  and  C_3
REMARK    3  A    between atoms: C_3  and  N_4
REMARK    4  A    between atoms: N_4  and  C_5
REMARK    5  A    between atoms: C_6  and  N_21
REMARK    6  A    between atoms: N_7  and  C_14
REMARK    7  A    between atoms: C_14  and  C_15
REMARK    8  A    between atoms: C_22  and  C_24
REMARK    9  A    between atoms: N_29  and  C_31
REMARK                            x       y       z     vdW  Elec       q    Type
REMARK                         _______ _______ _______ _____ _____    ______ ____
ROOT
ATOM      1  N   UNL     1       0.626   1.288  -2.631  0.00  0.00    -0.264 N 
ATOM      2  C   UNL     1       0.989   2.176  -3.580  0.00  0.00    +0.225 C 
ATOM      3  O   UNL     1       0.745   3.355  -3.433  0.00  0.00    -0.275 OA
ENDROOT
BRANCH   1   4
ATOM      4  C   UNL     1       0.820  -0.093  -2.846  0.00  0.00    +0.140 A 
ATOM      5  C   UNL     1      -0.257  -0.924  -3.081  0.00  0.00    +0.128 A 
ATOM      6  N   UNL     1      -0.036  -2.265  -3.291  0.00  0.00    -0.276 N 
ATOM      7  C   UNL     1       1.214  -2.763  -3.259  0.00  0.00    +0.331 A 
ATOM      8  O   UNL     1       1.387  -3.952  -3.443  0.00  0.00    -0.246 OA
ATOM      9  N   UNL     1       2.274  -1.969  -3.027  0.00  0.00    -0.273 N 
ATOM     10  H   UNL     1       3.192  -2.364  -3.008  0.00  0.00    +0.173 HD
ATOM     11  C   UNL     1       2.113  -0.648  -2.819  0.00  0.00    +0.277 A 
ATOM     12  O   UNL     1       3.082   0.063  -2.610  0.00  0.00    -0.266 OA
BRANCH   5  13
ATOM     13  N   UNL     1      -1.534  -0.417  -3.108  0.00  0.00    -0.343 N 
ATOM     14  H   UNL     1      -1.692   0.511  -2.875  0.00  0.00    +0.144 HD
ATOM     15  H   UNL     1      -2.276  -0.987  -3.361  0.00  0.00    +0.144 HD
ENDBRANCH   5  13
BRANCH   6  16
ATOM     16  C   UNL     1      -1.169  -3.158  -3.546  0.00  0.00    +0.163 C 
BRANCH  16  17
ATOM     17  C   UNL     1      -1.687  -3.700  -2.239  0.00  0.00    -0.028 A 
ATOM     18  C   UNL     1      -1.177  -4.879  -1.728  0.00  0.00    +0.005 A 
ATOM     19  C   UNL     1      -1.648  -5.373  -0.526  0.00  0.00    +0.000 A 
ATOM     20  C   UNL     1      -2.636  -4.692   0.161  0.00  0.00    +0.000 A 
ATOM     21  C   UNL     1      -3.150  -3.516  -0.353  0.00  0.00    +0.000 A 
ATOM     22  C   UNL     1      -2.675  -3.020  -1.552  0.00  0.00    +0.005 A 
ENDBRANCH  16  17
ENDBRANCH   6  16
ENDBRANCH   1   4
BRANCH   2  23
ATOM     23  C   UNL     1       1.697   1.703  -4.823  0.00  0.00    +0.102 C 
ATOM     24  C   UNL     1       0.714   1.589  -6.011  0.00  0.00    +0.110 C 
ATOM     25  C   UNL     1       0.824   2.924  -6.713  0.00  0.00    +0.221 C 
ATOM     26  O   UNL     1       0.027   3.352  -7.521  0.00  0.00    -0.275 OA
ATOM     27  N   UNL     1       1.935   3.567  -6.313  0.00  0.00    -0.268 N 
ATOM     28  C   UNL     1       2.688   2.772  -5.336  0.00  0.00    +0.127 C 
BRANCH  27  29
ATOM     29  C   UNL     1       2.323   4.833  -6.769  0.00  0.00    +0.072 A 
ATOM     30  C   UNL     1       3.139   4.950  -7.885  0.00  0.00    +0.026 A 
ATOM     31  C   UNL     1       3.516   6.200  -8.336  0.00  0.00    +0.002 A 
ATOM     32  C   UNL     1       3.091   7.335  -7.670  0.00  0.00    +0.003 A 
ATOM     33  C   UNL     1       2.282   7.223  -6.555  0.00  0.00    +0.040 A 
ATOM     34  C   UNL     1       1.896   5.975  -6.101  0.00  0.00    +0.145 A 
ATOM     35  F   UNL     1       1.107   5.866  -5.010  0.00  0.00    -0.204 F 
ENDBRANCH  27  29
ENDBRANCH   2  23
BRANCH   1  36
ATOM     36  C   UNL     1       0.032   1.758  -1.377  0.00  0.00    +0.113 C 
BRANCH  36  38
ATOM     37  C   UNL     1       0.526   2.684   0.890  0.00  0.00    +0.005 C 
ATOM     38  C   UNL     1       1.144   2.116  -0.389  0.00  0.00    +0.016 C 
ENDBRANCH  36  38
ENDBRANCH   1  36
TORSDOF 8
