REMARK  Name = ZINC49192862
REMARK  11 active torsions:
REMARK  status: ('A' for Active; 'I' for Inactive)
REMARK    1  A    between atoms: C_1  and  C_2
REMARK    2  A    between atoms: C_2  and  C_3
REMARK    3  A    between atoms: C_2  and  C_4
REMARK    4  A    between atoms: C_4  and  C_6
REMARK    5  A    between atoms: C_4  and  N_10
REMARK    6  A    between atoms: C_6  and  N_7
REMARK    7  A    between atoms: N_7  and  C_8
REMARK    8  A    between atoms: N_7  and  C_9
REMARK    9  A    between atoms: N_10  and  S_11
REMARK   10  A    between atoms: S_11  and  C_14
REMARK   11  A    between atoms: C_16  and  N_22
REMARK                            x       y       z     vdW  Elec       q    Type
REMARK                         _______ _______ _______ _____ _____    ______ ____
ROOT
ATOM      1  S   UNL     1      -3.290   0.183  -1.363  0.00  0.00    +0.061 S 
ATOM      2  O   UNL     1      -3.845   0.002  -2.658  0.00  0.00    -0.153 OA
ATOM      3  O   UNL     1      -3.912  -0.324  -0.190  0.00  0.00    -0.153 OA
ENDROOT
BRANCH   1   4
ATOM      4  C   UNL     1      -3.115   1.921  -1.128  0.00  0.00    +0.142 A 
ATOM      5  C   UNL     1      -3.402   2.789  -2.164  0.00  0.00    +0.057 A 
ATOM      6  C   UNL     1      -3.264   4.158  -1.980  0.00  0.00    +0.062 A 
ATOM      7  C   UNL     1      -2.837   4.652  -0.753  0.00  0.00    +0.147 A 
ATOM      8  C   UNL     1      -2.550   3.780   0.280  0.00  0.00    +0.080 A 
ATOM      9  C   UNL     1      -2.695   2.415   0.095  0.00  0.00    +0.152 A 
ATOM     10  F   UNL     1      -2.420   1.563   1.107  0.00  0.00    -0.203 F 
ATOM     11  F   UNL     1      -2.701   5.984  -0.570  0.00  0.00    -0.203 F 
BRANCH   6  12
ATOM     12  N   UNL     1      -3.555   5.039  -3.029  0.00  0.00    -0.356 N 
ATOM     13  H   UNL     1      -3.853   4.693  -3.885  0.00  0.00    +0.142 HD
ATOM     14  H   UNL     1      -3.458   5.995  -2.899  0.00  0.00    +0.142 HD
ENDBRANCH   6  12
ENDBRANCH   1   4
BRANCH   1  15
ATOM     15  N   UNL     1      -1.766  -0.461  -1.406  0.00  0.00    -0.188 NA
ATOM     16  H   UNL     1      -1.433  -0.865  -2.223  0.00  0.00    +0.148 HD
BRANCH  15  17
ATOM     17  C   UNL     1      -0.919  -0.422  -0.211  0.00  0.00    +0.063 C 
BRANCH  17  19
ATOM     18  C   UNL     1       0.111   1.715  -0.996  0.00  0.00    +0.009 C 
ATOM     19  C   UNL     1       0.398   0.283  -0.543  0.00  0.00    -0.000 C 
ATOM     20  C   UNL     1       1.289   0.311   0.701  0.00  0.00    +0.009 C 
ENDBRANCH  17  19
BRANCH  17  21
ATOM     21  C   UNL     1      -0.630  -1.849   0.256  0.00  0.00    -0.059 C 
BRANCH  21  22
ATOM     22  N   UNL     1      -1.896  -2.530   0.562  0.00  0.00    +0.377 N 
ATOM     23  C   UNL     1      -1.634  -3.949   0.839  0.00  0.00    -0.097 C 
ATOM     24  C   UNL     1      -2.515  -1.907   1.739  0.00  0.00    -0.097 C 
ATOM     25  H   UNL     1      -2.519  -2.451  -0.228  0.00  0.00    -0.083 HD
ENDBRANCH  21  22
ENDBRANCH  17  21
ENDBRANCH  15  17
ENDBRANCH   1  15
TORSDOF 7
