REMARK  Name = ZINC39824403
REMARK  11 active torsions:
REMARK  status: ('A' for Active; 'I' for Inactive)
REMARK    1  A    between atoms: C_1  and  C_2
REMARK    2  A    between atoms: C_2  and  C_3
REMARK    3  A    between atoms: C_2  and  C_4
REMARK    4  A    between atoms: C_4  and  C_5
REMARK    5  A    between atoms: C_5  and  O_6
REMARK    6  A    between atoms: O_6  and  C_7
REMARK    7  A    between atoms: C_10  and  C_15
REMARK    8  A    between atoms: C_12  and  O_13
REMARK    9  A    between atoms: O_13  and  C_14
REMARK   10  A    between atoms: N_30  and  C_31
REMARK   11  A    between atoms: C_31  and  C_32
REMARK                            x       y       z     vdW  Elec       q    Type
REMARK                         _______ _______ _______ _____ _____    ______ ____
ROOT
ATOM      1  C   UNL     1      -3.425  -8.130  -0.572  0.00  0.00    +0.145 C 
ATOM      2  C   UNL     1      -3.137  -8.793   0.735  0.00  0.00    +0.072 A 
ATOM      3  C   UNL     1      -3.768  -8.648   2.051  0.00  0.00    +0.199 A 
ATOM      4  O   UNL     1      -4.803  -8.031   2.231  0.00  0.00    -0.287 OA
ATOM      5  C   UNL     1      -3.024  -9.324   3.144  0.00  0.00    +0.064 A 
ATOM      6  C   UNL     1      -3.381  -9.115   4.476  0.00  0.00    +0.015 A 
ATOM      7  C   UNL     1      -2.683  -9.741   5.471  0.00  0.00    +0.001 A 
ATOM      8  C   UNL     1      -1.623 -10.581   5.159  0.00  0.00    +0.004 A 
ATOM      9  C   UNL     1      -1.258 -10.799   3.850  0.00  0.00    +0.047 A 
ATOM     10  C   UNL     1      -1.956 -10.175   2.816  0.00  0.00    +0.139 A 
ATOM     11  O   UNL     1      -1.587 -10.412   1.537  0.00  0.00    -0.450 OA
ATOM     12  C   UNL     1      -2.091  -9.650   0.546  0.00  0.00    +0.199 A 
ATOM     13  C   UNL     1      -1.672  -9.565  -0.864  0.00  0.00    +0.283 C 
ATOM     14  O   UNL     1      -0.762 -10.199  -1.360  0.00  0.00    -0.267 OA
ATOM     15  N   UNL     1      -2.448  -8.680  -1.526  0.00  0.00    -0.279 N 
ENDROOT
BRANCH   1  19
ATOM     16  C   UNL     1      -2.919  -3.898  -0.222  0.00  0.00    +0.162 A 
ATOM     17  C   UNL     1      -1.812  -4.724  -0.333  0.00  0.00    +0.050 A 
ATOM     18  C   UNL     1      -1.979  -6.092  -0.446  0.00  0.00    +0.009 A 
ATOM     19  C   UNL     1      -3.249  -6.638  -0.449  0.00  0.00    -0.019 A 
ATOM     20  C   UNL     1      -4.357  -5.820  -0.339  0.00  0.00    +0.055 A 
ATOM     21  C   UNL     1      -4.197  -4.449  -0.220  0.00  0.00    +0.162 A 
BRANCH  21  22
ATOM     22  O   UNL     1      -5.286  -3.642  -0.106  0.00  0.00    -0.491 OA
ATOM     23  C   UNL     1      -6.566  -4.277  -0.110  0.00  0.00    +0.277 C 
ENDBRANCH  21  22
BRANCH  16  24
ATOM     24  O   UNL     1      -2.756  -2.552  -0.111  0.00  0.00    -0.488 OA
BRANCH  24  25
ATOM     25  C   UNL     1      -1.416  -2.058  -0.121  0.00  0.00    +0.229 C 
BRANCH  25  26
ATOM     26  C   UNL     1      -1.433  -0.534   0.013  0.00  0.00    +0.044 C 
BRANCH  26  28
ATOM     27  C   UNL     1      -0.019   1.526   0.010  0.00  0.00    +0.007 C 
ATOM     28  C   UNL     1       0.002  -0.004   0.002  0.00  0.00    -0.014 C 
ATOM     29  C   UNL     1       0.742  -0.511   1.242  0.00  0.00    +0.007 C 
ENDBRANCH  26  28
ENDBRANCH  25  26
ENDBRANCH  24  25
ENDBRANCH  16  24
ENDBRANCH   1  19
BRANCH  15  30
ATOM     30  C   UNL     1      -2.337  -8.327  -2.944  0.00  0.00    +0.145 C 
BRANCH  30  31
ATOM     31  C   UNL     1      -1.391  -7.164  -3.100  0.00  0.00    -0.012 A 
ATOM     32  C   UNL     1      -1.889  -5.884  -3.256  0.00  0.00    +0.006 A 
ATOM     33  C   UNL     1      -1.022  -4.818  -3.399  0.00  0.00    +0.000 A 
ATOM     34  C   UNL     1       0.344  -5.031  -3.387  0.00  0.00    +0.001 A 
ATOM     35  C   UNL     1       0.843  -6.310  -3.232  0.00  0.00    +0.020 A 
ATOM     36  C   UNL     1      -0.025  -7.377  -3.082  0.00  0.00    +0.046 A 
ATOM     37 CL   UNL     1       0.601  -8.984  -2.880  0.00  0.00    -0.083 Cl
ENDBRANCH  30  31
ENDBRANCH  15  30
TORSDOF 8
