REMARK  Name = ZINC39675872
REMARK  8 active torsions:
REMARK  status: ('A' for Active; 'I' for Inactive)
REMARK    1  A    between atoms: C_1  and  N_2
REMARK    2  A    between atoms: N_2  and  C_3
REMARK    3  A    between atoms: N_2  and  C_4
REMARK    4  A    between atoms: C_4  and  C_6
REMARK    5  A    between atoms: C_4  and  C_30
REMARK    6  A    between atoms: C_6  and  N_7
REMARK    7  A    between atoms: C_8  and  C_10
REMARK    8  A    between atoms: C_21  and  C_23
REMARK                            x       y       z     vdW  Elec       q    Type
REMARK                         _______ _______ _______ _____ _____    ______ ____
ROOT
ATOM      1  C   UNL     1      -2.650   3.706  -1.852  0.00  0.00    +0.100 C 
ATOM      2  C   UNL     1      -1.203   4.213  -2.040  0.00  0.00    +0.121 C 
ATOM      3  N   UNL     1      -1.129   4.614  -3.465  0.00  0.00    -0.300 N 
ATOM      4  C   UNL     1      -2.438   5.255  -3.736  0.00  0.00    +0.115 C 
ATOM      5  C   UNL     1      -3.458   4.394  -2.965  0.00  0.00    -0.004 C 
ATOM      6  C   UNL     1      -4.544   5.278  -2.360  0.00  0.00    -0.010 C 
ATOM      7  C   UNL     1      -5.371   5.906  -3.485  0.00  0.00    -0.082 C 
ATOM      8  N   UNL     1      -5.973   4.845  -4.302  0.00  0.00    +0.379 N 
ATOM      9  C   UNL     1      -4.921   4.057  -4.955  0.00  0.00    -0.082 C 
ATOM     10  C   UNL     1      -4.075   3.351  -3.892  0.00  0.00    -0.010 C 
ATOM     11  C   UNL     1      -0.102   4.435  -4.320  0.00  0.00    +0.219 C 
ATOM     12  O   UNL     1       0.880   3.818  -3.968  0.00  0.00    -0.275 OA
ATOM     13  H   UNL     1      -6.527   4.242  -3.713  0.00  0.00    -0.086 HD
ATOM     14  H   UNL     1      -6.566   5.260  -5.005  0.00  0.00    -0.086 HD
ENDROOT
BRANCH  11  15
ATOM     15  C   UNL     1      -0.176   5.004  -5.714  0.00  0.00    +0.079 C 
ATOM     16  C   UNL     1       1.031   4.526  -6.530  0.00  0.00    +0.017 C 
ATOM     17  C   UNL     1       0.839   4.968  -7.983  0.00  0.00    +0.027 C 
ATOM     18  C   UNL     1       0.483   6.425  -8.037  0.00  0.00    -0.031 C 
ATOM     19  C   UNL     1       0.052   7.104  -7.022  0.00  0.00    -0.030 C 
ATOM     20  C   UNL     1      -0.147   6.532  -5.648  0.00  0.00    +0.039 C 
ENDBRANCH  11  15
BRANCH   1  22
ATOM     21  N   UNL     1      -3.729   1.511  -1.481  0.00  0.00    -0.316 N 
ATOM     22  C   UNL     1      -2.706   2.208  -2.012  0.00  0.00    +0.218 C 
ATOM     23  O   UNL     1      -1.829   1.631  -2.620  0.00  0.00    -0.275 OA
ATOM     24  H   UNL     1      -4.431   1.973  -0.996  0.00  0.00    +0.149 HD
BRANCH  21  25
ATOM     25  C   UNL     1      -3.784   0.055  -1.637  0.00  0.00    +0.093 C 
BRANCH  25  26
ATOM     26  C   UNL     1      -4.969  -0.499  -0.845  0.00  0.00    -0.021 C 
BRANCH  26  27
ATOM     27  C   UNL     1      -6.254   0.040  -1.420  0.00  0.00    -0.059 A 
ATOM     28  C   UNL     1      -6.796  -0.533  -2.556  0.00  0.00    +0.002 A 
ATOM     29  C   UNL     1      -7.974  -0.039  -3.083  0.00  0.00    +0.000 A 
ATOM     30  C   UNL     1      -8.611   1.028  -2.476  0.00  0.00    +0.000 A 
ATOM     31  C   UNL     1      -8.069   1.599  -1.340  0.00  0.00    +0.000 A 
ATOM     32  C   UNL     1      -6.893   1.103  -0.810  0.00  0.00    +0.002 A 
ENDBRANCH  26  27
BRANCH  26  34
ATOM     33  C   UNL     1      -3.758  -2.495  -0.294  0.00  0.00    -0.096 C 
ATOM     34  N   UNL     1      -4.972  -1.965  -0.929  0.00  0.00    +0.382 N 
ATOM     35  C   UNL     1      -6.156  -2.493  -0.239  0.00  0.00    -0.096 C 
ATOM     36  H   UNL     1      -4.994  -2.247  -1.898  0.00  0.00    -0.082 HD
ENDBRANCH  26  34
ENDBRANCH  25  26
ENDBRANCH  21  25
ENDBRANCH   1  22
TORSDOF 6
