REMARK  Name = ZINC40929242
REMARK  8 active torsions:
REMARK  status: ('A' for Active; 'I' for Inactive)
REMARK    1  A    between atoms: C_1  and  C_2
REMARK    2  A    between atoms: C_5  and  N_8
REMARK    3  A    between atoms: C_13  and  C_15
REMARK    4  A    between atoms: C_16  and  C_18
REMARK    5  A    between atoms: N_21  and  C_24
REMARK    6  A    between atoms: C_24  and  C_25
REMARK    7  A    between atoms: C_27  and  C_30
REMARK    8  A    between atoms: C_33  and  C_36
REMARK                            x       y       z     vdW  Elec       q    Type
REMARK                         _______ _______ _______ _____ _____    ______ ____
ROOT
ATOM      1  C   UNL     1      -0.818  -8.944  -1.071  0.00  0.00    +0.072 C 
ATOM      2  C   UNL     1      -2.234  -8.893  -1.650  0.00  0.00    -0.006 C 
ATOM      3  C   UNL     1      -2.287  -9.730  -2.930  0.00  0.00    -0.077 C 
ATOM      4  N   UNL     1      -1.931 -11.121  -2.624  0.00  0.00    +0.386 N 
ATOM      5  C   UNL     1      -0.548 -11.186  -2.136  0.00  0.00    -0.077 C 
ATOM      6  C   UNL     1      -0.429 -10.405  -0.825  0.00  0.00    -0.006 C 
ATOM      7  H   UNL     1      -2.554 -11.479  -1.916  0.00  0.00    -0.081 HD
ENDROOT
BRANCH   1  15
ATOM      8  N   UNL     1       0.316  -4.353   0.058  0.00  0.00    -0.324 N 
ATOM      9  C   UNL     1       0.160  -5.108  -1.194  0.00  0.00    +0.124 C 
ATOM     10  C   UNL     1      -1.000  -6.098  -1.027  0.00  0.00    +0.126 C 
ATOM     11  N   UNL     1      -0.809  -6.839   0.228  0.00  0.00    -0.298 N 
ATOM     12  C   UNL     1      -0.652  -6.084   1.479  0.00  0.00    +0.130 C 
ATOM     13  C   UNL     1       0.513  -5.094   1.312  0.00  0.00    +0.088 C 
ATOM     14  C   UNL     1       0.532  -4.116   2.488  0.00  0.00    +0.029 C 
ATOM     15  C   UNL     1      -0.778  -8.186   0.231  0.00  0.00    +0.219 C 
ATOM     16  O   UNL     1      -0.719  -8.789   1.282  0.00  0.00    -0.275 OA
BRANCH   8  21
ATOM     17  C   UNL     1       0.186   1.316   0.045  0.00  0.00    +0.044 C 
ATOM     18  C   UNL     1       0.221  -0.191   0.048  0.00  0.00    -0.050 A 
ATOM     19  C   UNL     1      -0.917  -0.908  -0.275  0.00  0.00    +0.005 A 
ATOM     20  C   UNL     1      -0.888  -2.288  -0.273  0.00  0.00    +0.023 A 
ATOM     21  C   UNL     1       0.284  -2.957   0.054  0.00  0.00    +0.030 A 
ATOM     22  C   UNL     1       1.425  -2.234   0.378  0.00  0.00    +0.023 A 
ATOM     23  C   UNL     1       1.392  -0.853   0.369  0.00  0.00    +0.005 A 
ENDBRANCH   8  21
ENDBRANCH   1  15
BRANCH   4  24
ATOM     24  C   UNL     1      -2.058 -11.936  -3.840  0.00  0.00    +0.022 C 
BRANCH  24  25
ATOM     25  C   UNL     1      -1.812 -13.384  -3.502  0.00  0.00    +0.211 A 
ATOM     26  N   UNL     1      -2.720 -14.246  -3.142  0.00  0.00    -0.193 NA
ATOM     27  C   UNL     1      -2.154 -15.445  -2.917  0.00  0.00    +0.202 A 
ATOM     28  N   UNL     1      -0.866 -15.347  -3.137  0.00  0.00    -0.056 NA
ATOM     29  O   UNL     1      -0.625 -14.003  -3.526  0.00  0.00    -0.340 OA
BRANCH  27  30
ATOM     30  C   UNL     1      -2.868 -16.674  -2.490  0.00  0.00    +0.022 A 
ATOM     31  C   UNL     1      -4.247 -16.648  -2.294  0.00  0.00    +0.012 A 
ATOM     32  C   UNL     1      -4.907 -17.794  -1.897  0.00  0.00    +0.013 A 
ATOM     33  C   UNL     1      -4.201 -18.966  -1.694  0.00  0.00    +0.055 A 
ATOM     34  C   UNL     1      -2.832 -18.997  -1.887  0.00  0.00    +0.013 A 
ATOM     35  C   UNL     1      -2.163 -17.859  -2.290  0.00  0.00    +0.012 A 
BRANCH  33  36
ATOM     36  C   UNL     1      -4.926 -20.213  -1.260  0.00  0.00    +0.417 C 
ATOM     37  F   UNL     1      -5.337 -20.931  -2.388  0.00  0.00    -0.166 F 
ATOM     38  F   UNL     1      -4.069 -21.007  -0.489  0.00  0.00    -0.166 F 
ATOM     39  F   UNL     1      -6.046 -19.861  -0.498  0.00  0.00    -0.166 F 
ENDBRANCH  33  36
ENDBRANCH  27  30
ENDBRANCH  24  25
ENDBRANCH   4  24
TORSDOF 6
