REMARK  Name = ZINC35486380
REMARK  15 active torsions:
REMARK  status: ('A' for Active; 'I' for Inactive)
REMARK    1  A    between atoms: C_1  and  C_2
REMARK    2  A    between atoms: C_2  and  C_3
REMARK    3  A    between atoms: C_3  and  C_4
REMARK    4  A    between atoms: C_4  and  O_5
REMARK    5  A    between atoms: O_5  and  C_6
REMARK    6  A    between atoms: C_9  and  C_14
REMARK    7  A    between atoms: C_11  and  O_12
REMARK    8  A    between atoms: O_12  and  C_13
REMARK    9  A    between atoms: N_29  and  C_30
REMARK   10  A    between atoms: C_30  and  C_31
REMARK   11  A    between atoms: C_31  and  N_32
REMARK   12  A    between atoms: N_32  and  C_33
REMARK   13  A    between atoms: N_32  and  C_35
REMARK   14  A    between atoms: C_33  and  C_34
REMARK   15  A    between atoms: C_35  and  C_36
REMARK                            x       y       z     vdW  Elec       q    Type
REMARK                         _______ _______ _______ _____ _____    ______ ____
ROOT
ATOM      1  C   UNL     1      -3.240  -8.280   0.056  0.00  0.00    +0.145 C 
ATOM      2  C   UNL     1      -2.954  -8.962   1.353  0.00  0.00    +0.072 A 
ATOM      3  C   UNL     1      -3.518  -8.766   2.693  0.00  0.00    +0.199 A 
ATOM      4  O   UNL     1      -4.493  -8.068   2.911  0.00  0.00    -0.287 OA
ATOM      5  C   UNL     1      -2.788  -9.498   3.759  0.00  0.00    +0.067 A 
ATOM      6  C   UNL     1      -3.074  -9.258   5.102  0.00  0.00    +0.053 A 
ATOM      7  C   UNL     1      -2.383  -9.944   6.079  0.00  0.00    +0.124 A 
ATOM      8  C   UNL     1      -1.407 -10.867   5.722  0.00  0.00    +0.042 A 
ATOM      9  C   UNL     1      -1.118 -11.111   4.399  0.00  0.00    +0.050 A 
ATOM     10  C   UNL     1      -1.806 -10.433   3.393  0.00  0.00    +0.140 A 
ATOM     11  O   UNL     1      -1.508 -10.700   2.100  0.00  0.00    -0.450 OA
ATOM     12  C   UNL     1      -1.988  -9.901   1.127  0.00  0.00    +0.199 A 
ATOM     13  C   UNL     1      -1.621  -9.851  -0.299  0.00  0.00    +0.283 C 
ATOM     14  O   UNL     1      -0.785 -10.557  -0.828  0.00  0.00    -0.267 OA
ATOM     15  N   UNL     1      -2.349  -8.907  -0.934  0.00  0.00    -0.285 N 
ATOM     16  F   UNL     1      -2.654  -9.718   7.383  0.00  0.00    -0.205 F 
ENDROOT
BRANCH   1  20
ATOM     17  C   UNL     1      -2.382  -4.102   0.367  0.00  0.00    +0.162 A 
ATOM     18  C   UNL     1      -1.350  -5.015   0.217  0.00  0.00    +0.050 A 
ATOM     19  C   UNL     1      -1.631  -6.365   0.117  0.00  0.00    +0.009 A 
ATOM     20  C   UNL     1      -2.939  -6.807   0.166  0.00  0.00    -0.019 A 
ATOM     21  C   UNL     1      -3.973  -5.902   0.316  0.00  0.00    +0.055 A 
ATOM     22  C   UNL     1      -3.699  -4.548   0.423  0.00  0.00    +0.162 A 
BRANCH  22  23
ATOM     23  O   UNL     1      -4.714  -3.657   0.576  0.00  0.00    -0.491 OA
ATOM     24  C   UNL     1      -6.040  -4.186   0.625  0.00  0.00    +0.277 C 
ENDBRANCH  22  23
BRANCH  17  25
ATOM     25  O   UNL     1      -2.107  -2.774   0.467  0.00  0.00    -0.488 OA
BRANCH  25  26
ATOM     26  C   UNL     1      -0.733  -2.389   0.401  0.00  0.00    +0.229 C 
BRANCH  26  27
ATOM     27  C   UNL     1      -0.623  -0.868   0.530  0.00  0.00    +0.041 C 
BRANCH  27  29
ATOM     28  C   UNL     1       0.959   1.065   0.588  0.00  0.00    +0.004 C 
ATOM     29  C   UNL     1       0.849  -0.455   0.460  0.00  0.00    -0.000 C 
ENDBRANCH  27  29
ENDBRANCH  26  27
ENDBRANCH  25  26
ENDBRANCH  17  25
ENDBRANCH   1  20
BRANCH  15  30
ATOM     30  C   UNL     1      -2.267  -8.567  -2.356  0.00  0.00    +0.090 C 
BRANCH  30  31
ATOM     31  C   UNL     1      -1.223  -7.467  -2.559  0.00  0.00    -0.060 C 
BRANCH  31  32
ATOM     32  N   UNL     1      -1.040  -7.223  -3.996  0.00  0.00    +0.380 N 
ATOM     33  H   UNL     1      -0.820  -8.092  -4.459  0.00  0.00    -0.082 HD
BRANCH  32  34
ATOM     34  C   UNL     1      -2.279  -6.669  -4.559  0.00  0.00    -0.082 C 
ATOM     35  C   UNL     1      -2.132  -6.532  -6.076  0.00  0.00    -0.017 C 
ENDBRANCH  32  34
BRANCH  32  36
ATOM     36  C   UNL     1       0.058  -6.269  -4.195  0.00  0.00    -0.082 C 
ATOM     37  C   UNL     1       1.374  -6.903  -3.738  0.00  0.00    -0.017 C 
ENDBRANCH  32  36
ENDBRANCH  31  32
ENDBRANCH  30  31
ENDBRANCH  15  30
TORSDOF 11
