REMARK  Name = ZINC38555314
REMARK  8 active torsions:
REMARK  status: ('A' for Active; 'I' for Inactive)
REMARK    1  A    between atoms: C_1  and  C_2
REMARK    2  A    between atoms: C_5  and  S_8
REMARK    3  A    between atoms: S_8  and  N_11
REMARK    4  A    between atoms: C_16  and  C_18
REMARK    5  A    between atoms: C_18  and  C_19
REMARK    6  A    between atoms: C_19  and  N_20
REMARK    7  A    between atoms: C_21  and  C_23
REMARK    8  A    between atoms: C_27  and  N_29
REMARK                            x       y       z     vdW  Elec       q    Type
REMARK                         _______ _______ _______ _____ _____    ______ ____
ROOT
ATOM      1  N   UNL     1       1.699  -4.888  -0.169  0.00  0.00    -0.173 NA
ATOM      2  C   UNL     1       2.346  -4.989  -1.484  0.00  0.00    +0.110 C 
ATOM      3  C   UNL     1       3.712  -4.298  -1.416  0.00  0.00    +0.017 C 
ATOM      4  C   UNL     1       4.526  -4.897  -0.267  0.00  0.00    +0.003 C 
ATOM      5  C   UNL     1       3.796  -4.657   1.057  0.00  0.00    +0.021 C 
ATOM      6  C   UNL     1       2.434  -5.347   1.017  0.00  0.00    +0.081 C 
ENDROOT
BRANCH   1   7
ATOM      7  S   UNL     1       0.172  -4.262  -0.026  0.00  0.00    +0.061 S 
ATOM      8  O   UNL     1      -0.442  -4.935   1.064  0.00  0.00    -0.153 OA
ATOM      9  O   UNL     1      -0.388  -4.257  -1.332  0.00  0.00    -0.153 OA
BRANCH   7  14
ATOM     10  C   UNL     1       0.755   1.513   1.622  0.00  0.00    +0.044 C 
ATOM     11  C   UNL     1       0.610   0.070   1.210  0.00  0.00    -0.050 A 
ATOM     12  C   UNL     1       0.735  -0.285  -0.120  0.00  0.00    +0.005 A 
ATOM     13  C   UNL     1       0.601  -1.608  -0.497  0.00  0.00    +0.029 A 
ATOM     14  C   UNL     1       0.344  -2.576   0.455  0.00  0.00    +0.106 A 
ATOM     15  C   UNL     1       0.220  -2.221   1.785  0.00  0.00    +0.029 A 
ATOM     16  C   UNL     1       0.357  -0.898   2.163  0.00  0.00    +0.005 A 
ENDBRANCH   7  14
ENDBRANCH   1   7
BRANCH   6  17
ATOM     17  C   UNL     1       1.645  -4.992   2.279  0.00  0.00    +0.039 C 
BRANCH  17  18
ATOM     18  C   UNL     1       2.481  -5.329   3.515  0.00  0.00    +0.106 C 
BRANCH  18  19
ATOM     19  N   UNL     1       1.764  -4.903   4.720  0.00  0.00    -0.311 N 
ATOM     20  C   UNL     1       2.313  -5.099   5.935  0.00  0.00    +0.244 C 
ATOM     21  O   UNL     1       3.402  -5.630   6.032  0.00  0.00    -0.270 OA
ATOM     22  H   UNL     1       0.895  -4.479   4.643  0.00  0.00    +0.149 HD
BRANCH  20  23
ATOM     23  C   UNL     1       1.590  -4.670   7.151  0.00  0.00    +0.039 A 
ATOM     24  C   UNL     1       0.336  -4.065   7.043  0.00  0.00    +0.014 A 
ATOM     25  C   UNL     1      -0.333  -3.666   8.181  0.00  0.00    +0.023 A 
ATOM     26  C   UNL     1       0.236  -3.864   9.428  0.00  0.00    +0.071 A 
ATOM     27  C   UNL     1       1.480  -4.463   9.541  0.00  0.00    +0.145 A 
ATOM     28  C   UNL     1       2.156  -4.872   8.411  0.00  0.00    +0.047 A 
ATOM     29 CL   UNL     1      -0.613  -3.360  10.856  0.00  0.00    -0.081 Cl
BRANCH  27  30
ATOM     30  N   UNL     1       2.081  -4.672  10.877  0.00  0.00    +0.058 N 
ATOM     31  O   UNL     1       3.166  -5.194  10.977  0.00  0.00    -0.126 OA
ATOM     32  O   UNL     1       1.486  -4.319  11.869  0.00  0.00    -0.126 OA
ENDBRANCH  27  30
ENDBRANCH  20  23
ENDBRANCH  18  19
ENDBRANCH  17  18
ENDBRANCH   6  17
TORSDOF 7
