REMARK  Name = ZINC34758538
REMARK  9 active torsions:
REMARK  status: ('A' for Active; 'I' for Inactive)
REMARK    1  A    between atoms: C_1  and  C_2
REMARK    2  A    between atoms: C_5  and  C_9
REMARK    3  A    between atoms: C_6  and  C_8
REMARK    4  A    between atoms: C_9  and  N_10
REMARK    5  A    between atoms: C_18  and  C_30
REMARK    6  A    between atoms: C_19  and  C_29
REMARK    7  A    between atoms: C_23  and  S_25
REMARK    8  A    between atoms: S_25  and  C_26
REMARK    9  A    between atoms: C_26  and  C_27
REMARK                            x       y       z     vdW  Elec       q    Type
REMARK                         _______ _______ _______ _____ _____    ______ ____
ROOT
ATOM      1  N   UNL     1      -1.808  -4.006  -0.148  0.00  0.00    +0.384 N 
ATOM      2  C   UNL     1      -3.003  -3.611  -0.904  0.00  0.00    -0.059 C 
ATOM      3  C   UNL     1      -4.210  -4.412  -0.404  0.00  0.00    +0.088 C 
ATOM      4  N   UNL     1      -3.886  -5.845  -0.486  0.00  0.00    -0.318 N 
ATOM      5  C   UNL     1      -2.620  -6.303   0.106  0.00  0.00    +0.088 C 
ATOM      6  C   UNL     1      -1.488  -5.413  -0.418  0.00  0.00    -0.059 C 
ATOM      7  C   UNL     1      -4.747  -6.734  -1.101  0.00  0.00    +0.134 A 
ATOM      8  C   UNL     1      -5.854  -7.274  -0.388  0.00  0.00    +0.051 A 
ATOM      9  C   UNL     1      -6.278  -7.038   0.982  0.00  0.00    -0.028 A 
ATOM     10  C   UNL     1      -7.368  -7.664   1.447  0.00  0.00    -0.008 A 
ATOM     11  S   UNL     1      -7.917  -8.634   0.055  0.00  0.00    -0.073 S 
ATOM     12  C   UNL     1      -6.666  -8.171  -1.114  0.00  0.00    +0.115 A 
ATOM     13  N   UNL     1      -6.402  -8.479  -2.369  0.00  0.00    -0.215 NA
ATOM     14  C   UNL     1      -5.354  -7.946  -2.983  0.00  0.00    +0.191 A 
ATOM     15  N   UNL     1      -4.553  -7.089  -2.360  0.00  0.00    -0.206 NA
ATOM     16  C   UNL     1      -7.984  -7.572   2.819  0.00  0.00    +0.052 C 
ATOM     17  C   UNL     1      -5.500  -6.101   1.870  0.00  0.00    +0.045 C 
ATOM     18  H   UNL     1      -1.982  -3.885   0.839  0.00  0.00    -0.081 HD
ENDROOT
BRANCH   1  19
ATOM     19  C   UNL     1      -0.675  -3.162  -0.551  0.00  0.00    -0.043 C 
BRANCH  19  24
ATOM     20  C   UNL     1      -1.736   2.320   0.939  0.00  0.00    +0.044 C 
ATOM     21  C   UNL     1      -1.459   0.890   0.551  0.00  0.00    -0.050 A 
ATOM     22  C   UNL     1      -1.658   0.477  -0.754  0.00  0.00    +0.003 A 
ATOM     23  C   UNL     1      -1.404  -0.834  -1.110  0.00  0.00    +0.002 A 
ATOM     24  C   UNL     1      -0.951  -1.732  -0.162  0.00  0.00    -0.061 A 
ATOM     25  C   UNL     1      -0.751  -1.320   1.141  0.00  0.00    -0.049 A 
ATOM     26  C   UNL     1      -1.001  -0.007   1.497  0.00  0.00    +0.007 A 
ATOM     27  C   UNL     1      -0.257  -2.299   2.175  0.00  0.00    +0.044 C 
ENDBRANCH  19  24
ENDBRANCH   1  19
BRANCH  14  28
ATOM     28  S   UNL     1      -5.025  -8.375  -4.660  0.00  0.00    -0.082 S 
BRANCH  28  29
ATOM     29  C   UNL     1      -6.352  -9.536  -5.085  0.00  0.00    +0.104 C 
BRANCH  29  30
ATOM     30  C   UNL     1      -6.186  -9.987  -6.513  0.00  0.00    -0.023 C 
ATOM     31  C   UNL     1      -5.920 -11.242  -6.777  0.00  0.00    +0.005 C 
ENDBRANCH  29  30
ENDBRANCH  28  29
ENDBRANCH  14  28
TORSDOF 5
