REMARK  Name = ZINC40004541
REMARK  9 active torsions:
REMARK  status: ('A' for Active; 'I' for Inactive)
REMARK    1  A    between atoms: C_1  and  C_2
REMARK    2  A    between atoms: C_4  and  C_38
REMARK    3  A    between atoms: C_6  and  O_8
REMARK    4  A    between atoms: O_8  and  C_9
REMARK    5  A    between atoms: C_10  and  C_20
REMARK    6  A    between atoms: C_21  and  C_22
REMARK    7  A    between atoms: C_21  and  C_24
REMARK    8  A    between atoms: N_26  and  C_27
REMARK    9  A    between atoms: C_28  and  C_36
REMARK                            x       y       z     vdW  Elec       q    Type
REMARK                         _______ _______ _______ _____ _____    ______ ____
ROOT
ATOM      1  C   UNL     1       0.414  -2.076   3.491  0.00  0.00    +0.235 A 
ATOM      2  C   UNL     1       0.292  -2.741   4.736  0.00  0.00    +0.103 A 
ATOM      3  C   UNL     1       0.150  -1.953   5.908  0.00  0.00    +0.269 A 
ATOM      4  O   UNL     1       0.043  -2.481   7.001  0.00  0.00    -0.266 OA
ATOM      5  N   UNL     1       0.137  -0.608   5.790  0.00  0.00    -0.268 N 
ATOM      6  C   UNL     1       0.002   0.157   6.910  0.00  0.00    +0.096 A 
ATOM      7  C   UNL     1      -0.016   1.507   6.828  0.00  0.00    +0.018 A 
ATOM      8  C   UNL     1       0.106   2.136   5.582  0.00  0.00    +0.005 A 
ATOM      9  C   UNL     1       0.243   1.378   4.456  0.00  0.00    +0.047 A 
ATOM     10  C   UNL     1       0.260  -0.023   4.562  0.00  0.00    +0.144 A 
ATOM     11  N   UNL     1       0.398  -0.755   3.454  0.00  0.00    -0.194 NA
ENDROOT
BRANCH   2  12
ATOM     12  C   UNL     1       0.311  -4.146   4.808  0.00  0.00    +0.042 C 
ATOM     13  C   UNL     1      -0.603  -4.891   4.075  0.00  0.00    +0.114 C 
BRANCH  13  14
ATOM     14  C   UNL     1      -0.505  -6.354   4.051  0.00  0.00    +0.259 C 
ATOM     15  O   UNL     1       0.377  -6.915   4.674  0.00  0.00    -0.269 OA
ATOM     16  N   UNL     1      -1.392  -7.077   3.340  0.00  0.00    -0.274 N 
ATOM     17  H   UNL     1      -2.096  -6.630   2.843  0.00  0.00    +0.156 HD
BRANCH  16  18
ATOM     18  C   UNL     1      -1.300  -8.460   3.317  0.00  0.00    +0.090 A 
ATOM     19  C   UNL     1      -2.112  -9.357   2.643  0.00  0.00    +0.084 A 
ATOM     20  C   UNL     1      -1.802 -10.769   2.783  0.00  0.00    -0.018 A 
ATOM     21  C   UNL     1      -0.736 -11.025   3.572  0.00  0.00    -0.004 A 
ATOM     22  S   UNL     1      -0.173  -9.432   4.095  0.00  0.00    -0.077 S 
ATOM     23  C   UNL     1      -0.171 -12.370   3.911  0.00  0.00    +0.043 C 
ATOM     24  C   UNL     1      -1.208 -13.438   3.535  0.00  0.00    +0.005 C 
ATOM     25  C   UNL     1      -1.717 -13.157   2.119  0.00  0.00    +0.005 C 
ATOM     26  C   UNL     1      -2.581 -11.894   2.117  0.00  0.00    +0.037 C 
BRANCH  19  27
ATOM     27  C   UNL     1      -3.212  -8.911   1.842  0.00  0.00    +0.102 C 
ATOM     28  N   UNL     1      -4.085  -8.557   1.207  0.00  0.00    -0.191 NA
ENDBRANCH  19  27
ENDBRANCH  16  18
ENDBRANCH  13  14
BRANCH  13  29
ATOM     29  C   UNL     1      -1.641  -4.231   3.342  0.00  0.00    +0.104 C 
ATOM     30  N   UNL     1      -2.465  -3.707   2.761  0.00  0.00    -0.191 NA
ENDBRANCH  13  29
ENDBRANCH   2  12
BRANCH   1  31
ATOM     31  O   UNL     1       0.551  -2.788   2.350  0.00  0.00    -0.437 OA
BRANCH  31  37
ATOM     32  C   UNL     1       3.579  -0.138  -0.413  0.00  0.00    +0.044 C 
ATOM     33  C   UNL     1       2.246  -0.802  -0.184  0.00  0.00    -0.047 A 
ATOM     34  C   UNL     1       1.258  -0.718  -1.148  0.00  0.00    +0.007 A 
ATOM     35  C   UNL     1       0.034  -1.326  -0.941  0.00  0.00    -0.047 A 
ATOM     36  C   UNL     1      -0.206  -2.019   0.229  0.00  0.00    +0.049 A 
ATOM     37  C   UNL     1       0.784  -2.106   1.197  0.00  0.00    +0.131 A 
ATOM     38  C   UNL     1       2.014  -1.500   0.985  0.00  0.00    +0.049 A 
ATOM     39  C   UNL     1      -1.041  -1.231  -1.994  0.00  0.00    +0.044 C 
ENDBRANCH  31  37
ENDBRANCH   1  31
TORSDOF 7
