REMARK  Name = ZINC01290955
REMARK  9 active torsions:
REMARK  status: ('A' for Active; 'I' for Inactive)
REMARK    1  A    between atoms: C_1  and  C_2
REMARK    2  A    between atoms: C_2  and  C_3
REMARK    3  A    between atoms: C_3  and  C_5
REMARK    4  A    between atoms: C_3  and  N_6
REMARK    5  A    between atoms: C_7  and  C_9
REMARK    6  A    between atoms: C_9  and  S_10
REMARK    7  A    between atoms: S_10  and  C_11
REMARK    8  A    between atoms: C_19  and  C_23
REMARK    9  A    between atoms: N_26  and  C_27
REMARK                            x       y       z     vdW  Elec       q    Type
REMARK                         _______ _______ _______ _____ _____    ______ ____
ROOT
ATOM      1  C   UNL     1      -4.775  -5.199   1.197  0.00  0.00    +0.178 A 
ATOM      2  N   UNL     1      -3.667  -5.597   1.788  0.00  0.00    -0.215 NA
ATOM      3  C   UNL     1      -3.081  -6.736   1.439  0.00  0.00    +0.117 A 
ATOM      4  C   UNL     1      -3.597  -7.563   0.427  0.00  0.00    +0.076 A 
ATOM      5  C   UNL     1      -2.837  -8.784   0.149  0.00  0.00    -0.023 A 
ATOM      6  C   UNL     1      -1.727  -8.994   0.885  0.00  0.00    -0.004 A 
ATOM      7  S   UNL     1      -1.627  -7.601   1.976  0.00  0.00    -0.073 S 
ATOM      8  C   UNL     1      -0.784 -10.155   0.795  0.00  0.00    +0.046 C 
ATOM      9  C   UNL     1      -1.056 -10.899  -0.520  0.00  0.00    -0.009 C 
ATOM     10  C   UNL     1      -2.566 -11.119  -0.656  0.00  0.00    +0.008 C 
ATOM     11  C   UNL     1      -3.264  -9.785  -0.921  0.00  0.00    +0.037 C 
ATOM     12  C   UNL     1      -0.341 -12.251  -0.503  0.00  0.00    +0.008 C 
ATOM     13  C   UNL     1      -4.798  -7.105  -0.201  0.00  0.00    +0.268 A 
ATOM     14  O   UNL     1      -5.318  -7.757  -1.090  0.00  0.00    -0.267 OA
ATOM     15  N   UNL     1      -5.346  -5.944   0.203  0.00  0.00    -0.255 N 
ENDROOT
BRANCH  15  16
ATOM     16  C   UNL     1      -6.522  -5.490  -0.408  0.00  0.00    +0.052 A 
ATOM     17  C   UNL     1      -7.759  -5.858   0.104  0.00  0.00    +0.026 A 
ATOM     18  C   UNL     1      -8.916  -5.404  -0.497  0.00  0.00    +0.002 A 
ATOM     19  C   UNL     1      -8.845  -4.593  -1.614  0.00  0.00    +0.000 A 
ATOM     20  C   UNL     1      -7.615  -4.229  -2.130  0.00  0.00    +0.002 A 
ATOM     21  C   UNL     1      -6.453  -4.675  -1.530  0.00  0.00    +0.026 A 
ENDBRANCH  15  16
BRANCH   1  22
ATOM     22  S   UNL     1      -5.528  -3.684   1.690  0.00  0.00    -0.078 S 
BRANCH  22  23
ATOM     23  C   UNL     1      -4.375  -3.167   2.986  0.00  0.00    +0.173 C 
BRANCH  23  25
ATOM     24  N   UNL     1      -4.122  -1.274   4.557  0.00  0.00    -0.312 N 
ATOM     25  C   UNL     1      -4.832  -1.855   3.569  0.00  0.00    +0.224 C 
ATOM     26  O   UNL     1      -5.837  -1.322   3.151  0.00  0.00    -0.275 OA
ATOM     27  H   UNL     1      -3.318  -1.700   4.892  0.00  0.00    +0.149 HD
BRANCH  24  28
ATOM     28  C   UNL     1      -4.565   0.002   5.125  0.00  0.00    +0.070 C 
ATOM     29  C   UNL     1      -5.600  -0.260   6.221  0.00  0.00    +0.028 C 
BRANCH  28  31
ATOM     30  C   UNL     1      -2.388   1.111   4.604  0.00  0.00    +0.005 C 
ATOM     31  C   UNL     1      -3.365   0.739   5.721  0.00  0.00    +0.018 C 
ENDBRANCH  28  31
ENDBRANCH  24  28
ENDBRANCH  23  25
ENDBRANCH  22  23
ENDBRANCH   1  22
TORSDOF 6
