REMARK  Name = ZINC46813743
REMARK  9 active torsions:
REMARK  status: ('A' for Active; 'I' for Inactive)
REMARK    1  A    between atoms: C_1  and  C_2
REMARK    2  A    between atoms: C_2  and  C_3
REMARK    3  A    between atoms: C_3  and  C_5
REMARK    4  A    between atoms: C_3  and  N_21
REMARK    5  A    between atoms: C_5  and  N_6
REMARK    6  A    between atoms: C_7  and  C_9
REMARK    7  A    between atoms: N_17  and  C_18
REMARK    8  A    between atoms: C_18  and  C_19
REMARK    9  A    between atoms: C_18  and  C_20
REMARK                            x       y       z     vdW  Elec       q    Type
REMARK                         _______ _______ _______ _____ _____    ______ ____
ROOT
ATOM      1  N   UNL     1       1.475  -2.615  -2.391  0.00  0.00    -0.317 N 
ATOM      2  C   UNL     1       1.616  -3.952  -2.488  0.00  0.00    +0.216 C 
ATOM      3  O   UNL     1       1.182  -4.673  -1.615  0.00  0.00    -0.276 OA
ATOM      4  H   UNL     1       1.823  -2.038  -3.089  0.00  0.00    +0.149 HD
ENDROOT
BRANCH   2   5
ATOM      5  C   UNL     1       2.314  -4.551  -3.682  0.00  0.00    +0.078 C 
ATOM      6  C   UNL     1       1.564  -4.162  -4.959  0.00  0.00    +0.032 C 
ATOM      7  C   UNL     1       2.295  -4.744  -6.173  0.00  0.00    +0.110 C 
ATOM      8  N   UNL     1       2.452  -6.192  -5.981  0.00  0.00    -0.286 N 
ATOM      9  C   UNL     1       3.079  -6.678  -4.745  0.00  0.00    +0.110 C 
ATOM     10  C   UNL     1       2.339  -6.075  -3.547  0.00  0.00    +0.032 C 
ATOM     11  C   UNL     1       2.027  -7.059  -6.922  0.00  0.00    +0.302 C 
ATOM     12  O   UNL     1       1.591  -6.644  -7.979  0.00  0.00    -0.253 OA
ATOM     13  N   UNL     1       2.087  -8.386  -6.693  0.00  0.00    -0.297 N 
ATOM     14  H   UNL     1       2.368  -8.715  -5.825  0.00  0.00    +0.150 HD
BRANCH  13  15
ATOM     15  C   UNL     1       1.727  -9.330  -7.754  0.00  0.00    +0.068 C 
ATOM     16  C   UNL     1       2.942  -9.579  -8.649  0.00  0.00    +0.027 C 
ATOM     17  C   UNL     1       1.275 -10.651  -7.129  0.00  0.00    +0.027 C 
ENDBRANCH  13  15
ENDBRANCH   2   5
BRANCH   1  18
ATOM     18  C   UNL     1       0.797  -2.033  -1.230  0.00  0.00    +0.089 C 
BRANCH  18  19
ATOM     19  C   UNL     1       0.642  -0.524  -1.433  0.00  0.00    -0.051 C 
BRANCH  19  20
ATOM     20  N   UNL     1      -0.415  -0.269  -2.421  0.00  0.00    +0.385 N 
ATOM     21  C   UNL     1      -1.645  -0.967  -2.016  0.00  0.00    -0.073 C 
ATOM     22  C   UNL     1      -2.803  -0.450  -2.871  0.00  0.00    +0.017 C 
ATOM     23  C   UNL     1      -2.427  -0.513  -4.330  0.00  0.00    -0.048 A 
ATOM     24  C   UNL     1      -3.433  -0.423  -5.280  0.00  0.00    +0.004 A 
ATOM     25  C   UNL     1      -3.127  -0.474  -6.625  0.00  0.00    +0.000 A 
ATOM     26  C   UNL     1      -1.812  -0.615  -7.026  0.00  0.00    +0.000 A 
ATOM     27  C   UNL     1      -0.810  -0.706  -6.081  0.00  0.00    +0.002 A 
ATOM     28  C   UNL     1      -1.115  -0.657  -4.729  0.00  0.00    -0.061 A 
ATOM     29  C   UNL     1       0.008  -0.768  -3.732  0.00  0.00    -0.042 C 
ATOM     30  H   UNL     1      -0.591   0.723  -2.478  0.00  0.00    -0.081 HD
ENDBRANCH  19  20
BRANCH  19  32
ATOM     31  C   UNL     1       0.186   1.650  -0.291  0.00  0.00    +0.002 C 
ATOM     32  C   UNL     1       0.268   0.134  -0.104  0.00  0.00    -0.017 C 
ENDBRANCH  19  32
ENDBRANCH  18  19
ENDBRANCH   1  18
TORSDOF 6
