REMARK  Name = ZINC39211548
REMARK  10 active torsions:
REMARK  status: ('A' for Active; 'I' for Inactive)
REMARK    1  A    between atoms: C_1  and  C_2
REMARK    2  A    between atoms: C_6  and  C_37
REMARK    3  A    between atoms: C_7  and  N_8
REMARK    4  A    between atoms: C_9  and  C_14
REMARK    5  A    between atoms: C_14  and  C_16
REMARK    6  A    between atoms: C_14  and  N_23
REMARK    7  A    between atoms: N_23  and  C_24
REMARK    8  A    between atoms: C_24  and  C_25
REMARK    9  A    between atoms: C_25  and  C_26
REMARK   10  A    between atoms: C_34  and  C_36
REMARK                            x       y       z     vdW  Elec       q    Type
REMARK                         _______ _______ _______ _____ _____    ______ ____
ROOT
ATOM      1  C   UNL     1       2.063   1.686   2.001  0.00  0.00    +0.126 C 
ENDROOT
BRANCH   1   2
ATOM      2  C   UNL     1       3.326   2.368   2.461  0.00  0.00    -0.027 A 
ATOM      3  C   UNL     1       4.552   1.766   2.250  0.00  0.00    +0.007 A 
ATOM      4  C   UNL     1       5.711   2.390   2.671  0.00  0.00    +0.020 A 
ATOM      5  C   UNL     1       5.643   3.618   3.306  0.00  0.00    +0.041 A 
ATOM      6  C   UNL     1       4.415   4.220   3.517  0.00  0.00    +0.020 A 
ATOM      7  C   UNL     1       3.258   3.597   3.090  0.00  0.00    +0.007 A 
ATOM      8 CL   UNL     1       7.098   4.403   3.836  0.00  0.00    -0.084 Cl
ENDBRANCH   1   2
BRANCH   1  10
ATOM      9  N   UNL     1       0.365   0.012   2.656  0.00  0.00    -0.181 N 
ATOM     10  C   UNL     1       1.663   0.614   3.017  0.00  0.00    +0.222 C 
ATOM     11  N   UNL     1       1.391   1.215   4.337  0.00  0.00    -0.226 N 
ATOM     12  N   UNL     1       0.049   0.933   4.617  0.00  0.00    -0.063 NA
ATOM     13  N   UNL     1      -0.498   0.297   3.720  0.00  0.00    -0.056 NA
ATOM     14  H   UNL     1       2.014   1.705   4.895  0.00  0.00    +0.172 HD
BRANCH   9  21
ATOM     15  C   UNL     1      -1.373   1.236   0.765  0.00  0.00    +0.046 C 
ATOM     16  C   UNL     1      -0.785  -0.133   0.540  0.00  0.00    -0.027 A 
ATOM     17  C   UNL     1      -1.080  -0.831  -0.615  0.00  0.00    +0.005 A 
ATOM     18  C   UNL     1      -0.541  -2.087  -0.823  0.00  0.00    +0.001 A 
ATOM     19  C   UNL     1       0.295  -2.650   0.124  0.00  0.00    +0.005 A 
ATOM     20  C   UNL     1       0.595  -1.958   1.281  0.00  0.00    -0.027 A 
ATOM     21  C   UNL     1       0.060  -0.693   1.491  0.00  0.00    +0.061 A 
ATOM     22  C   UNL     1       1.506  -2.572   2.313  0.00  0.00    +0.046 C 
ENDBRANCH   9  21
ENDBRANCH   1  10
BRANCH   1  23
ATOM     23  N   UNL     1       2.293   1.060   0.693  0.00  0.00    -0.306 NA
ATOM     24  H   UNL     1       3.182   0.583   0.672  0.00  0.00    +0.123 HD
BRANCH  23  25
ATOM     25  C   UNL     1       2.201   2.049  -0.389  0.00  0.00    +0.086 C 
BRANCH  25  26
ATOM     26  C   UNL     1       2.337   1.343  -1.739  0.00  0.00    +0.052 C 
BRANCH  26  27
ATOM     27  C   UNL     1       2.243   2.359  -2.849  0.00  0.00    -0.018 A 
ATOM     28  C   UNL     1       3.356   3.097  -3.451  0.00  0.00    +0.003 A 
ATOM     29  C   UNL     1       4.735   3.118  -3.237  0.00  0.00    +0.010 A 
ATOM     30  C   UNL     1       5.526   3.942  -3.988  0.00  0.00    +0.001 A 
ATOM     31  C   UNL     1       4.969   4.758  -4.962  0.00  0.00    +0.002 A 
ATOM     32  C   UNL     1       3.610   4.753  -5.190  0.00  0.00    +0.026 A 
ATOM     33  C   UNL     1       2.786   3.922  -4.438  0.00  0.00    +0.047 A 
ATOM     34  N   UNL     1       1.429   3.693  -4.425  0.00  0.00    -0.358 N 
ATOM     35  C   UNL     1       1.125   2.755  -3.476  0.00  0.00    +0.017 A 
ATOM     36  H   UNL     1       0.784   4.128  -5.004  0.00  0.00    +0.166 HD
ATOM     37  C   UNL     1      -0.262   2.244  -3.177  0.00  0.00    +0.063 C 
ENDBRANCH  26  27
ENDBRANCH  25  26
ENDBRANCH  23  25
ENDBRANCH   1  23
TORSDOF 7
