REMARK  Name = ZINC15103860
REMARK  12 active torsions:
REMARK  status: ('A' for Active; 'I' for Inactive)
REMARK    1  A    between atoms: C_1  and  C_2
REMARK    2  A    between atoms: C_3  and  C_33
REMARK    3  A    between atoms: N_4  and  C_27
REMARK    4  A    between atoms: C_5  and  N_9
REMARK    5  A    between atoms: C_6  and  C_7
REMARK    6  A    between atoms: C_10  and  C_12
REMARK    7  A    between atoms: C_12  and  N_67
REMARK    8  A    between atoms: C_13  and  N_67
REMARK    9  A    between atoms: C_14  and  C_15
REMARK   10  A    between atoms: C_14  and  N_67
REMARK   11  A    between atoms: C_20  and  N_21
REMARK   12  A    between atoms: C_27  and  C_28
REMARK                            x       y       z     vdW  Elec       q    Type
REMARK                         _______ _______ _______ _____ _____    ______ ____
ROOT
ATOM      1  N   UNL     1       1.949   3.052  -0.380  0.00  0.00    -0.272 N 
ATOM      2  C   UNL     1       3.241   3.417  -0.493  0.00  0.00    +0.202 C 
ATOM      3  O   UNL     1       4.074   2.603  -0.832  0.00  0.00    -0.278 OA
ATOM      4  H   UNL     1       1.273   3.718  -0.180  0.00  0.00    +0.156 HD
ENDROOT
BRANCH   1   9
ATOM      5  C   UNL     1       1.894  -2.001  -0.306  0.00  0.00    +0.047 C 
ATOM      6  C   UNL     1       1.530  -0.556  -0.533  0.00  0.00    -0.011 A 
ATOM      7  C   UNL     1       0.427  -0.094  -1.143  0.00  0.00    +0.022 A 
ATOM      8  N   UNL     1       0.457   1.275  -1.156  0.00  0.00    -0.324 N 
ATOM      9  C   UNL     1       1.586   1.724  -0.550  0.00  0.00    +0.124 A 
ATOM     10  C   UNL     1       2.313   0.619  -0.132  0.00  0.00    +0.095 A 
ATOM     11  C   UNL     1      -0.672  -0.947  -1.723  0.00  0.00    +0.064 C 
BRANCH  10  12
ATOM     12  C   UNL     1       3.569   0.623   0.557  0.00  0.00    +0.103 C 
ATOM     13  N   UNL     1       4.565   0.627   1.104  0.00  0.00    -0.191 NA
ENDBRANCH  10  12
BRANCH   8  14
ATOM     14  C   UNL     1      -0.580   2.131  -1.737  0.00  0.00    +0.197 C 
BRANCH  14  15
ATOM     15  C   UNL     1      -1.673   2.355  -0.724  0.00  0.00    +0.124 A 
ATOM     16  C   UNL     1      -1.767   3.404   0.113  0.00  0.00    +0.046 A 
ATOM     17  C   UNL     1      -2.939   3.212   0.881  0.00  0.00    +0.041 A 
ATOM     18  C   UNL     1      -3.487   2.053   0.472  0.00  0.00    +0.195 A 
ATOM     19  O   UNL     1      -2.716   1.539  -0.500  0.00  0.00    -0.466 OA
ENDBRANCH  14  15
ENDBRANCH   8  14
ENDBRANCH   1   9
BRANCH   2  20
ATOM     20  C   UNL     1       3.652   4.837  -0.199  0.00  0.00    +0.019 C 
BRANCH  20  22
ATOM     21  C   UNL     1       5.474   5.067  -1.777  0.00  0.00    -0.095 C 
ATOM     22  N   UNL     1       5.118   4.946  -0.347  0.00  0.00    +0.386 N 
ATOM     23  H   UNL     1       5.556   4.099   0.035  0.00  0.00    -0.081 HD
BRANCH  22  24
ATOM     24  C   UNL     1       5.616   6.121   0.398  0.00  0.00    -0.041 C 
BRANCH  24  25
ATOM     25  C   UNL     1       7.122   6.077   0.426  0.00  0.00    -0.043 A 
ATOM     26  C   UNL     1       7.852   6.784  -0.509  0.00  0.00    +0.003 A 
ATOM     27  C   UNL     1       9.234   6.748  -0.481  0.00  0.00    +0.000 A 
ATOM     28  C   UNL     1       9.889   5.996   0.477  0.00  0.00    +0.002 A 
ATOM     29  C   UNL     1       9.166   5.283   1.412  0.00  0.00    +0.023 A 
ATOM     30  C   UNL     1       7.777   5.322   1.390  0.00  0.00    +0.031 A 
BRANCH  30  31
ATOM     31  N   UNL     1       7.042   4.601   2.334  0.00  0.00    -0.330 N 
ATOM     32  C   UNL     1       7.212   5.169   3.678  0.00  0.00    +0.105 C 
ATOM     33  C   UNL     1       6.283   4.449   4.658  0.00  0.00    +0.019 C 
ATOM     34  C   UNL     1       6.618   2.955   4.669  0.00  0.00    +0.003 C 
ATOM     35  C   UNL     1       6.481   2.399   3.249  0.00  0.00    +0.019 C 
ATOM     36  C   UNL     1       7.404   3.179   2.309  0.00  0.00    +0.105 C 
ENDBRANCH  30  31
ENDBRANCH  24  25
ENDBRANCH  22  24
ENDBRANCH  20  22
ENDBRANCH   2  20
TORSDOF 9
