REMARK  Name = ZINC03245669
REMARK  8 active torsions:
REMARK  status: ('A' for Active; 'I' for Inactive)
REMARK    1  A    between atoms: C_1  and  C_2
REMARK    2  A    between atoms: C_2  and  O_3
REMARK    3  A    between atoms: O_3  and  C_4
REMARK    4  A    between atoms: C_4  and  C_6
REMARK    5  A    between atoms: C_10  and  N_11
REMARK    6  A    between atoms: C_12  and  C_13
REMARK    7  A    between atoms: C_27  and  C_28
REMARK    8  A    between atoms: C_27  and  N_53
REMARK                            x       y       z     vdW  Elec       q    Type
REMARK                         _______ _______ _______ _____ _____    ______ ____
ROOT
ATOM      1  C   UNL     1       3.797   5.689  -5.199  0.00  0.00    +0.095 A 
ATOM      2  C   UNL     1       3.539   5.305  -3.873  0.00  0.00    -0.025 A 
ATOM      3  C   UNL     1       2.242   5.103  -3.530  0.00  0.00    -0.021 A 
ATOM      4  S   UNL     1       1.331   5.435  -5.013  0.00  0.00    -0.075 S 
ATOM      5  C   UNL     1       2.711   5.839  -6.073  0.00  0.00    +0.115 A 
ATOM      6  C   UNL     1       1.724   4.691  -2.189  0.00  0.00    -0.035 C 
ATOM      7  C   UNL     1       3.982   5.141  -1.440  0.00  0.00    -0.073 C 
ATOM      8  C   UNL     1       4.633   5.110  -2.825  0.00  0.00    +0.018 C 
ATOM      9  N   UNL     1       2.867   4.173  -1.400  0.00  0.00    +0.386 N 
ATOM     10  H   UNL     1       3.181   3.284  -1.809  0.00  0.00    -0.081 HD
ENDROOT
BRANCH   1  11
ATOM     11  C   UNL     1       5.167   5.928  -5.658  0.00  0.00    +0.342 C 
ATOM     12  O   UNL     1       5.820   5.015  -6.126  0.00  0.00    -0.245 OA
BRANCH  11  13
ATOM     13  O   UNL     1       5.705   7.162  -5.562  0.00  0.00    -0.461 OA
BRANCH  13  15
ATOM     14  C   UNL     1       7.502   8.780  -5.847  0.00  0.00    +0.048 C 
ATOM     15  C   UNL     1       7.068   7.325  -6.036  0.00  0.00    +0.229 C 
ENDBRANCH  13  15
ENDBRANCH  11  13
ENDBRANCH   1  11
BRANCH   5  16
ATOM     16  N   UNL     1       2.709   6.196  -7.375  0.00  0.00    -0.247 NA
ATOM     17  C   UNL     1       1.578   6.282  -8.028  0.00  0.00    +0.125 C 
BRANCH  17  18
ATOM     18  C   UNL     1       1.576   6.670  -9.443  0.00  0.00    +0.069 A 
ATOM     19  C   UNL     1       2.783   6.956 -10.097  0.00  0.00    +0.173 A 
ATOM     20  C   UNL     1       2.772   7.317 -11.431  0.00  0.00    +0.197 A 
ATOM     21  C   UNL     1       1.571   7.406 -12.120  0.00  0.00    +0.199 A 
ATOM     22  C   UNL     1       0.372   7.130 -11.478  0.00  0.00    +0.197 A 
ATOM     23  C   UNL     1       0.366   6.763 -10.146  0.00  0.00    +0.173 A 
ATOM     24  F   UNL     1      -0.802   6.496  -9.523  0.00  0.00    -0.202 F 
ATOM     25  F   UNL     1      -0.792   7.220 -12.158  0.00  0.00    -0.199 F 
ATOM     26  F   UNL     1       1.569   7.764 -13.423  0.00  0.00    -0.199 F 
ATOM     27  F   UNL     1       3.934   7.587 -12.065  0.00  0.00    -0.199 F 
ATOM     28  F   UNL     1       3.953   6.874  -9.427  0.00  0.00    -0.202 F 
ENDBRANCH  17  18
ENDBRANCH   5  16
BRANCH   9  29
ATOM     29  C   UNL     1       2.451   3.937  -0.001  0.00  0.00    -0.043 C 
BRANCH  29  30
ATOM     30  C   UNL     1       1.156   3.165   0.008  0.00  0.00    -0.064 A 
ATOM     31  C   UNL     1       1.175   1.783   0.000  0.00  0.00    +0.002 A 
ATOM     32  C   UNL     1      -0.013   1.076   0.008  0.00  0.00    +0.000 A 
ATOM     33  C   UNL     1      -1.219   1.751   0.017  0.00  0.00    +0.000 A 
ATOM     34  C   UNL     1      -1.238   3.133   0.030  0.00  0.00    +0.000 A 
ATOM     35  C   UNL     1      -0.050   3.840   0.023  0.00  0.00    +0.002 A 
ENDBRANCH  29  30
ENDBRANCH   9  29
TORSDOF 7
