REMARK  Name = ZINC09419679
REMARK  11 active torsions:
REMARK  status: ('A' for Active; 'I' for Inactive)
REMARK    1  A    between atoms: C_1  and  C_2
REMARK    2  A    between atoms: C_8  and  C_9
REMARK    3  A    between atoms: C_8  and  N_61
REMARK    4  A    between atoms: C_10  and  O_32
REMARK    5  A    between atoms: C_17  and  C_18
REMARK    6  A    between atoms: C_20  and  O_28
REMARK    7  A    between atoms: C_21  and  O_26
REMARK    8  A    between atoms: C_22  and  O_24
REMARK    9  A    between atoms: O_24  and  C_25
REMARK   10  A    between atoms: O_26  and  C_27
REMARK   11  A    between atoms: O_28  and  C_29
REMARK                            x       y       z     vdW  Elec       q    Type
REMARK                         _______ _______ _______ _____ _____    ______ ____
ROOT
ATOM      1  C   UNL     1       4.815   6.513  -1.106  0.00  0.00    +0.020 A 
ATOM      2  C   UNL     1       6.146   6.861  -1.265  0.00  0.00    +0.122 A 
ATOM      3  C   UNL     1       7.142   5.889  -1.223  0.00  0.00    +0.046 A 
ATOM      4  C   UNL     1       6.814   4.578  -1.023  0.00  0.00    +0.019 A 
ATOM      5  C   UNL     1       5.477   4.213  -0.861  0.00  0.00    +0.068 A 
ATOM      6  C   UNL     1       4.464   5.184  -0.901  0.00  0.00    +0.144 A 
ATOM      7  O   UNL     1       3.261   4.596  -0.721  0.00  0.00    -0.451 OA
ATOM      8  C   UNL     1       3.376   3.257  -0.556  0.00  0.00    +0.176 C 
ATOM      9  C   UNL     1       2.356   2.384  -0.354  0.00  0.00    +0.058 C 
ATOM     10  C   UNL     1       4.805   2.922  -0.628  0.00  0.00    +0.231 C 
ATOM     11  O   UNL     1       5.320   1.822  -0.521  0.00  0.00    -0.283 OA
ENDROOT
BRANCH   9  12
ATOM     12  C   UNL     1       0.970   2.866  -0.331  0.00  0.00    -0.014 A 
ATOM     13  C   UNL     1      -0.090   1.954  -0.255  0.00  0.00    +0.057 A 
ATOM     14  C   UNL     1      -1.393   2.412  -0.237  0.00  0.00    +0.166 A 
ATOM     15  C   UNL     1      -1.653   3.780  -0.285  0.00  0.00    +0.204 A 
ATOM     16  C   UNL     1      -0.602   4.690  -0.360  0.00  0.00    +0.166 A 
ATOM     17  C   UNL     1       0.704   4.240  -0.383  0.00  0.00    +0.057 A 
BRANCH  16  18
ATOM     18  O   UNL     1      -0.861   6.024  -0.411  0.00  0.00    -0.491 OA
ATOM     19  C   UNL     1       0.257   6.896  -0.590  0.00  0.00    +0.277 C 
ENDBRANCH  16  18
BRANCH  15  20
ATOM     20  O   UNL     1      -2.936   4.227  -0.263  0.00  0.00    -0.488 OA
ATOM     21  C   UNL     1      -3.591   4.384  -1.523  0.00  0.00    +0.277 C 
ENDBRANCH  15  20
BRANCH  14  22
ATOM     22  O   UNL     1      -2.423   1.527  -0.169  0.00  0.00    -0.491 OA
ATOM     23  C   UNL     1      -2.084   0.139  -0.118  0.00  0.00    +0.277 C 
ENDBRANCH  14  22
ENDBRANCH   9  12
BRANCH   2  24
ATOM     24  O   UNL     1       6.483   8.161  -1.464  0.00  0.00    -0.506 OA
ATOM     25  H   UNL     1       6.506   8.423  -2.394  0.00  0.00    +0.292 HD
ENDBRANCH   2  24
BRANCH   1  26
ATOM     26  C   UNL     1       3.747   7.576  -1.154  0.00  0.00    -0.036 C 
BRANCH  26  33
ATOM     27  C   UNL     1       2.961   6.589   3.600  0.00  0.00    +0.005 C 
ATOM     28  C   UNL     1       3.081   7.695   2.550  0.00  0.00    -0.031 C 
ATOM     29  C   UNL     1       4.192   8.667   2.956  0.00  0.00    -0.001 C 
ATOM     30  C   UNL     1       4.346   9.736   1.871  0.00  0.00    -0.018 C 
ATOM     31  C   UNL     1       4.650   9.059   0.533  0.00  0.00    -0.078 C 
ATOM     32  C   UNL     1       3.421   7.077   1.192  0.00  0.00    -0.075 C 
ATOM     33  N   UNL     1       3.531   8.156   0.188  0.00  0.00    +0.383 N 
ATOM     34  H   UNL     1       2.658   8.695   0.181  0.00  0.00    -0.081 HD
ENDBRANCH  26  33
ENDBRANCH   1  26
TORSDOF 7
