REMARK  Name = ZINC39524885
REMARK  4 active torsions:
REMARK  status: ('A' for Active; 'I' for Inactive)
REMARK    1  A    between atoms: C_4  and  C_7
REMARK    2  A    between atoms: C_7  and  C_8
REMARK    3  A    between atoms: C_19  and  C_22
REMARK    4  A    between atoms: C_27  and  O_28
REMARK                            x       y       z     vdW  Elec       q    Type
REMARK                         _______ _______ _______ _____ _____    ______ ____
ROOT
ATOM      1  C   UNL     1       4.246  -1.056   1.356  0.00  0.00    +0.073 C 
ATOM      2  C   UNL     1       5.665  -1.611   1.224  0.00  0.00    +0.020 C 
ATOM      3  C   UNL     1       6.165  -2.040   2.606  0.00  0.00    +0.003 C 
ATOM      4  C   UNL     1       5.207  -3.079   3.185  0.00  0.00    +0.023 C 
ATOM      5  C   UNL     1       3.794  -2.454   3.310  0.00  0.00    +0.033 C 
ATOM      6  N   UNL     1       3.372  -2.057   1.972  0.00  0.00    -0.232 NA
ATOM      7 BR   UNL     1       1.600  -1.560   1.866  0.00  0.00    +0.014 Br
ATOM      8  C   UNL     1       3.915  -1.264   4.250  0.00  0.00    +0.023 C 
ATOM      9  C   UNL     1       2.559  -0.770   4.742  0.00  0.00    +0.002 C 
ATOM     10  C   UNL     1       1.839  -1.912   5.461  0.00  0.00    +0.008 C 
ATOM     11  C   UNL     1       1.587  -3.043   4.463  0.00  0.00    +0.024 C 
ATOM     12  C   UNL     1       2.894  -3.548   3.874  0.00  0.00    +0.031 C 
ENDROOT
BRANCH  11  13
ATOM     13  C   UNL     1       0.903  -4.176   5.184  0.00  0.00    -0.003 A 
ATOM     14  C   UNL     1       1.522  -4.786   6.258  0.00  0.00    +0.007 A 
ATOM     15  C   UNL     1       0.894  -5.826   6.919  0.00  0.00    +0.001 A 
ATOM     16  C   UNL     1      -0.353  -6.257   6.508  0.00  0.00    +0.004 A 
ATOM     17  C   UNL     1      -0.976  -5.650   5.435  0.00  0.00    +0.046 A 
ATOM     18  C   UNL     1      -0.351  -4.603   4.773  0.00  0.00    +0.120 A 
BRANCH  18  19
ATOM     19  O   UNL     1      -0.965  -4.000   3.721  0.00  0.00    -0.506 OA
ATOM     20  H   UNL     1      -0.765  -4.404   2.865  0.00  0.00    +0.292 HD
ENDBRANCH  18  19
ENDBRANCH  11  13
BRANCH   1  21
ATOM     21  C   UNL     1       3.711  -0.707  -0.038  0.00  0.00    +0.055 C 
BRANCH  21  25
ATOM     22  C   UNL     1       6.049   2.451  -1.713  0.00  0.00    +0.000 A 
ATOM     23  C   UNL     1       6.339   1.136  -2.025  0.00  0.00    +0.000 A 
ATOM     24  C   UNL     1       5.582   0.114  -1.483  0.00  0.00    +0.004 A 
ATOM     25  C   UNL     1       4.537   0.407  -0.628  0.00  0.00    -0.046 A 
ATOM     26  C   UNL     1       4.247   1.722  -0.315  0.00  0.00    +0.004 A 
ATOM     27  C   UNL     1       5.003   2.744  -0.858  0.00  0.00    +0.000 A 
ENDBRANCH  21  25
ENDBRANCH   1  21
TORSDOF 4
