REMARK  Name = ZINC39652658
REMARK  9 active torsions:
REMARK  status: ('A' for Active; 'I' for Inactive)
REMARK    1  A    between atoms: C_1  and  C_2
REMARK    2  A    between atoms: C_2  and  O_3
REMARK    3  A    between atoms: O_3  and  C_4
REMARK    4  A    between atoms: C_9  and  C_10
REMARK    5  A    between atoms: C_10  and  C_11
REMARK    6  A    between atoms: C_11  and  N_12
REMARK    7  A    between atoms: C_13  and  C_15
REMARK    8  A    between atoms: C_26  and  C_28
REMARK    9  A    between atoms: C_30  and  C_35
REMARK                            x       y       z     vdW  Elec       q    Type
REMARK                         _______ _______ _______ _____ _____    ______ ____
ROOT
ATOM      1  C   UNL     1       5.979   0.714  -4.925  0.00  0.00    +0.100 C 
ATOM      2  C   UNL     1       6.133   0.257  -6.393  0.00  0.00    +0.121 C 
ATOM      3  N   UNL     1       7.373   0.918  -6.862  0.00  0.00    -0.296 N 
ATOM      4  C   UNL     1       8.297   0.834  -5.706  0.00  0.00    +0.115 C 
ATOM      5  C   UNL     1       7.402   1.091  -4.477  0.00  0.00    -0.004 C 
ATOM      6  C   UNL     1       7.840   0.209  -3.312  0.00  0.00    -0.010 C 
ATOM      7  C   UNL     1       9.234   0.640  -2.847  0.00  0.00    -0.082 C 
ATOM      8  N   UNL     1       9.199   2.049  -2.435  0.00  0.00    +0.379 N 
ATOM      9  C   UNL     1       8.868   2.899  -3.584  0.00  0.00    -0.082 C 
ATOM     10  C   UNL     1       7.459   2.563  -4.081  0.00  0.00    -0.010 C 
ATOM     11  C   UNL     1       7.609   1.472  -8.069  0.00  0.00    +0.247 C 
ATOM     12  O   UNL     1       6.705   1.578  -8.875  0.00  0.00    -0.270 OA
ATOM     13  H   UNL     1       8.502   2.171  -1.716  0.00  0.00    -0.086 HD
ATOM     14  H   UNL     1      10.103   2.314  -2.072  0.00  0.00    -0.086 HD
ENDROOT
BRANCH  11  15
ATOM     15  C   UNL     1       8.966   1.949  -8.411  0.00  0.00    +0.040 A 
ATOM     16  C   UNL     1       9.142   2.889  -9.428  0.00  0.00    +0.025 A 
ATOM     17  C   UNL     1      10.410   3.332  -9.743  0.00  0.00    +0.058 A 
ATOM     18  C   UNL     1      11.507   2.846  -9.055  0.00  0.00    +0.050 A 
ATOM     19  C   UNL     1      11.340   1.912  -8.045  0.00  0.00    +0.125 A 
ATOM     20  C   UNL     1      10.074   1.465  -7.716  0.00  0.00    +0.051 A 
ATOM     21  F   UNL     1      12.416   1.441  -7.377  0.00  0.00    -0.205 F 
BRANCH  17  22
ATOM     22  C   UNL     1      10.600   4.347 -10.840  0.00  0.00    +0.418 C 
ATOM     23  F   UNL     1      10.538   5.635 -10.300  0.00  0.00    -0.166 F 
ATOM     24  F   UNL     1      11.848   4.153 -11.443  0.00  0.00    -0.166 F 
ATOM     25  F   UNL     1       9.592   4.193 -11.798  0.00  0.00    -0.166 F 
ENDBRANCH  17  22
ENDBRANCH  11  15
BRANCH   1  27
ATOM     26  N   UNL     1       4.686  -0.141  -2.998  0.00  0.00    -0.315 N 
ATOM     27  C   UNL     1       5.444  -0.412  -4.078  0.00  0.00    +0.218 C 
ATOM     28  O   UNL     1       5.695  -1.562  -4.370  0.00  0.00    -0.275 OA
ATOM     29  H   UNL     1       4.485   0.779  -2.764  0.00  0.00    +0.149 HD
BRANCH  26  30
ATOM     30  C   UNL     1       4.165  -1.235  -2.175  0.00  0.00    +0.109 C 
BRANCH  30  31
ATOM     31  C   UNL     1       3.343  -0.659  -1.020  0.00  0.00    +0.057 C 
BRANCH  31  37
ATOM     32  C   UNL     1       3.591  -2.330   0.833  0.00  0.00    +0.124 A 
ATOM     33  C   UNL     1       3.093  -3.363   1.613  0.00  0.00    +0.046 A 
ATOM     34  C   UNL     1       1.821  -3.850   1.384  0.00  0.00    +0.004 A 
ATOM     35  C   UNL     1       1.043  -3.308   0.377  0.00  0.00    +0.000 A 
ATOM     36  C   UNL     1       1.537  -2.279  -0.403  0.00  0.00    +0.007 A 
ATOM     37  C   UNL     1       2.807  -1.785  -0.174  0.00  0.00    -0.004 A 
BRANCH  32  38
ATOM     38  O   UNL     1       4.842  -1.850   1.057  0.00  0.00    -0.492 OA
BRANCH  38  40
ATOM     39  C   UNL     1       6.965  -1.790   2.211  0.00  0.00    +0.048 C 
ATOM     40  C   UNL     1       5.592  -2.459   2.110  0.00  0.00    +0.225 C 
ENDBRANCH  38  40
ENDBRANCH  32  38
ENDBRANCH  31  37
ENDBRANCH  30  31
ENDBRANCH  26  30
ENDBRANCH   1  27
TORSDOF 8
