REMARK  Name = ZINC12520603
REMARK  4 active torsions:
REMARK  status: ('A' for Active; 'I' for Inactive)
REMARK    1  A    between atoms: C_1  and  C_2
REMARK    2  A    between atoms: C_7  and  C_24
REMARK    3  A    between atoms: C_8  and  N_11
REMARK    4  A    between atoms: C_12  and  C_14
REMARK                            x       y       z     vdW  Elec       q    Type
REMARK                         _______ _______ _______ _____ _____    ______ ____
ROOT
ATOM      1  C   UNL     1      -1.800   1.200  -2.555  0.00  0.00    +0.045 C 
ATOM      2  C   UNL     1      -0.722   1.903  -1.770  0.00  0.00    -0.034 A 
ATOM      3  C   UNL     1      -0.821   3.285  -1.529  0.00  0.00    +0.008 A 
ATOM      4  C   UNL     1       0.154   3.919  -0.825  0.00  0.00    +0.047 A 
ATOM      5  C   UNL     1       1.253   3.177  -0.342  0.00  0.00    +0.140 A 
ATOM      6  N   UNL     1       2.320   3.531   0.357  0.00  0.00    -0.226 NA
ATOM      7  C   UNL     1       3.087   2.449   0.575  0.00  0.00    +0.112 A 
ATOM      8  C   UNL     1       2.472   1.364  -0.015  0.00  0.00    +0.137 A 
ATOM      9  N   UNL     1       1.320   1.827  -0.590  0.00  0.00    -0.287 N 
ATOM     10  C   UNL     1       0.330   1.204  -1.299  0.00  0.00    +0.097 A 
ENDROOT
BRANCH   7  11
ATOM     11  C   UNL     1       4.369   2.425   1.318  0.00  0.00    +0.004 A 
ATOM     12  C   UNL     1       4.705   1.320   2.098  0.00  0.00    +0.010 A 
ATOM     13  C   UNL     1       5.904   1.301   2.782  0.00  0.00    +0.001 A 
ATOM     14  C   UNL     1       6.764   2.381   2.705  0.00  0.00    +0.000 A 
ATOM     15  C   UNL     1       6.433   3.483   1.937  0.00  0.00    +0.001 A 
ATOM     16  C   UNL     1       5.241   3.511   1.243  0.00  0.00    +0.010 A 
ENDBRANCH   7  11
BRANCH   8  17
ATOM     17  N   UNL     1       2.936   0.048  -0.025  0.00  0.00    -0.267 N 
ATOM     18  C   UNL     1       2.264  -0.909   0.645  0.00  0.00    +0.259 C 
ATOM     19  O   UNL     1       1.208  -0.645   1.183  0.00  0.00    -0.271 OA
ATOM     20  H   UNL     1       3.743  -0.178  -0.513  0.00  0.00    +0.156 HD
BRANCH  18  21
ATOM     21  C   UNL     1       2.823  -2.306   0.727  0.00  0.00    +0.263 C 
ATOM     22  C   UNL     1       2.812  -2.983  -0.664  0.00  0.00    +0.093 C 
ATOM     23  C   UNL     1       2.478  -4.421  -0.305  0.00  0.00    -0.002 A 
ATOM     24  C   UNL     1       2.584  -5.598  -1.014  0.00  0.00    +0.007 A 
ATOM     25  C   UNL     1       2.211  -6.794  -0.427  0.00  0.00    +0.000 A 
ATOM     26  C   UNL     1       1.734  -6.803   0.871  0.00  0.00    +0.004 A 
ATOM     27  C   UNL     1       1.625  -5.625   1.581  0.00  0.00    +0.046 A 
ATOM     28  C   UNL     1       1.994  -4.416   0.996  0.00  0.00    +0.125 A 
ATOM     29  O   UNL     1       1.962  -3.154   1.506  0.00  0.00    -0.479 OA
ENDBRANCH  18  21
ENDBRANCH   8  17
TORSDOF 3
