REMARK  Name = ZINC08917528
REMARK  8 active torsions:
REMARK  status: ('A' for Active; 'I' for Inactive)
REMARK    1  A    between atoms: C_1  and  C_2
REMARK    2  A    between atoms: C_5  and  C_8
REMARK    3  A    between atoms: N_23  and  C_24
REMARK    4  A    between atoms: C_24  and  C_25
REMARK    5  A    between atoms: C_25  and  C_27
REMARK    6  A    between atoms: C_25  and  N_70
REMARK    7  A    between atoms: C_30  and  O_33
REMARK    8  A    between atoms: O_33  and  C_34
REMARK                            x       y       z     vdW  Elec       q    Type
REMARK                         _______ _______ _______ _____ _____    ______ ____
ROOT
ATOM      1  C   UNL     1      -1.629   3.933  -3.105  0.00  0.00    +0.144 C 
ATOM      2  C   UNL     1      -1.100   5.307  -3.429  0.00  0.00    +0.072 A 
ATOM      3  C   UNL     1      -1.568   6.655  -3.095  0.00  0.00    +0.199 A 
ATOM      4  O   UNL     1      -2.570   6.837  -2.426  0.00  0.00    -0.287 OA
ATOM      5  C   UNL     1      -0.766   7.781  -3.611  0.00  0.00    +0.064 A 
ATOM      6  C   UNL     1      -1.120   9.105  -3.353  0.00  0.00    +0.015 A 
ATOM      7  C   UNL     1      -0.349  10.119  -3.851  0.00  0.00    +0.001 A 
ATOM      8  C   UNL     1       0.780   9.837  -4.607  0.00  0.00    +0.004 A 
ATOM      9  C   UNL     1       1.145   8.535  -4.871  0.00  0.00    +0.047 A 
ATOM     10  C   UNL     1       0.376   7.485  -4.376  0.00  0.00    +0.139 A 
ATOM     11  O   UNL     1       0.718   6.208  -4.625  0.00  0.00    -0.450 OA
ATOM     12  C   UNL     1       0.019   5.147  -4.176  0.00  0.00    +0.199 A 
ATOM     13  C   UNL     1       0.256   3.692  -4.357  0.00  0.00    +0.283 C 
ATOM     14  O   UNL     1       1.181   3.211  -4.981  0.00  0.00    -0.267 OA
ATOM     15  N   UNL     1      -0.701   2.985  -3.732  0.00  0.00    -0.285 N 
ENDROOT
BRANCH   1  20
ATOM     16  C   UNL     1      -6.935   3.268  -5.294  0.00  0.00    +0.044 C 
ATOM     17  C   UNL     1      -5.551   3.442  -4.723  0.00  0.00    -0.050 A 
ATOM     18  C   UNL     1      -5.386   3.673  -3.370  0.00  0.00    +0.004 A 
ATOM     19  C   UNL     1      -4.116   3.833  -2.847  0.00  0.00    +0.006 A 
ATOM     20  C   UNL     1      -3.013   3.760  -3.676  0.00  0.00    -0.022 A 
ATOM     21  C   UNL     1      -3.179   3.533  -5.029  0.00  0.00    +0.006 A 
ATOM     22  C   UNL     1      -4.448   3.369  -5.552  0.00  0.00    +0.004 A 
ENDBRANCH   1  20
BRANCH  15  23
ATOM     23  C   UNL     1      -0.802   1.524  -3.688  0.00  0.00    +0.098 C 
BRANCH  23  24
ATOM     24  C   UNL     1      -0.156   1.006  -2.402  0.00  0.00    -0.020 C 
BRANCH  24  30
ATOM     25  C   UNL     1       0.348  -0.996  -1.136  0.00  0.00    -0.078 C 
ATOM     26  C   UNL     1       0.264  -2.523  -1.158  0.00  0.00    -0.019 C 
ATOM     27  C   UNL     1      -1.206  -2.949  -1.161  0.00  0.00    -0.004 C 
ATOM     28  C   UNL     1      -1.906  -2.328  -2.373  0.00  0.00    -0.019 C 
ATOM     29  C   UNL     1      -1.760  -0.806  -2.317  0.00  0.00    -0.078 C 
ATOM     30  N   UNL     1      -0.322  -0.461  -2.341  0.00  0.00    +0.385 N 
ATOM     31  H   UNL     1       0.107  -0.880  -3.174  0.00  0.00    -0.081 HD
ENDBRANCH  24  30
BRANCH  24  32
ATOM     32  C   UNL     1       1.315   1.331  -2.412  0.00  0.00    -0.059 A 
ATOM     33  C   UNL     1       2.193   0.537  -3.126  0.00  0.00    +0.005 A 
ATOM     34  C   UNL     1       3.541   0.836  -3.141  0.00  0.00    +0.046 A 
ATOM     35  C   UNL     1       4.016   1.929  -2.430  0.00  0.00    +0.120 A 
ATOM     36  C   UNL     1       3.134   2.721  -1.710  0.00  0.00    +0.046 A 
ATOM     37  C   UNL     1       1.786   2.421  -1.702  0.00  0.00    +0.005 A 
BRANCH  35  38
ATOM     38  O   UNL     1       5.343   2.222  -2.438  0.00  0.00    -0.495 OA
ATOM     39  C   UNL     1       6.193   1.363  -3.201  0.00  0.00    +0.277 C 
ENDBRANCH  35  38
ENDBRANCH  24  32
ENDBRANCH  23  24
ENDBRANCH  15  23
TORSDOF 6
