REMARK  Name = ZINC64392920
REMARK  8 active torsions:
REMARK  status: ('A' for Active; 'I' for Inactive)
REMARK    1  A    between atoms: C_1  and  C_2
REMARK    2  A    between atoms: C_2  and  O_3
REMARK    3  A    between atoms: O_3  and  C_4
REMARK    4  A    between atoms: C_4  and  C_6
REMARK    5  A    between atoms: C_8  and  N_19
REMARK    6  A    between atoms: N_19  and  C_20
REMARK    7  A    between atoms: C_20  and  C_21
REMARK    8  A    between atoms: C_21  and  N_22
REMARK                            x       y       z     vdW  Elec       q    Type
REMARK                         _______ _______ _______ _____ _____    ______ ____
ROOT
ATOM      1  C   UNL     1       2.653  -4.675   2.692  0.00  0.00    +0.228 C 
ATOM      2  C   UNL     1       1.340  -3.980   2.384  0.00  0.00    +0.036 C 
ATOM      3  C   UNL     1       1.380  -2.588   2.222  0.00  0.00    +0.016 A 
ATOM      4  C   UNL     1       0.208  -1.864   1.935  0.00  0.00    +0.031 A 
ATOM      5  C   UNL     1       0.274  -0.510   1.781  0.00  0.00    +0.042 A 
ATOM      6  C   UNL     1       1.480   0.171   1.903  0.00  0.00    +0.022 A 
ATOM      7  C   UNL     1       2.647  -0.478   2.180  0.00  0.00    +0.025 A 
ATOM      8  C   UNL     1       2.650  -1.872   2.350  0.00  0.00    +0.042 A 
ATOM      9  N   UNL     1       3.799  -2.508   2.623  0.00  0.00    -0.284 N 
ATOM     10  C   UNL     1       3.887  -3.809   2.797  0.00  0.00    +0.237 C 
ATOM     11  O   UNL     1       4.966  -4.317   3.043  0.00  0.00    -0.274 OA
ATOM     12 CL   UNL     1      -1.175   0.378   1.427  0.00  0.00    -0.084 Cl
ATOM     13  H   UNL     1       4.609  -1.980   2.697  0.00  0.00    +0.155 HD
ENDROOT
BRANCH   1  14
ATOM     14  C   UNL     1       2.492  -5.411   3.997  0.00  0.00    +0.325 C 
ATOM     15  O   UNL     1       1.922  -4.883   4.923  0.00  0.00    -0.250 OA
BRANCH  14  16
ATOM     16  O   UNL     1       2.981  -6.654   4.132  0.00  0.00    -0.464 OA
BRANCH  16  18
ATOM     17  C   UNL     1       3.412  -8.691   5.359  0.00  0.00    +0.048 C 
ATOM     18  C   UNL     1       2.792  -7.292   5.396  0.00  0.00    +0.229 C 
ENDBRANCH  16  18
ENDBRANCH  14  16
ENDBRANCH   1  14
BRANCH   2  19
ATOM     19  N   UNL     1       0.194  -4.666   2.273  0.00  0.00    -0.344 N 
ATOM     20  H   UNL     1      -0.645  -4.192   2.160  0.00  0.00    +0.146 HD
BRANCH  19  21
ATOM     21  C   UNL     1       0.209  -6.130   2.321  0.00  0.00    +0.120 C 
BRANCH  21  22
ATOM     22  C   UNL     1      -1.204  -6.662   2.071  0.00  0.00    +0.123 C 
BRANCH  22  23
ATOM     23  N   UNL     1      -1.189  -8.127   2.119  0.00  0.00    -0.328 N 
ATOM     24  C   UNL     1      -0.941  -8.911   0.902  0.00  0.00    +0.105 C 
ATOM     25  C   UNL     1      -1.962 -10.056   0.867  0.00  0.00    +0.024 C 
ATOM     26  C   UNL     1      -1.722 -10.968   2.070  0.00  0.00    +0.038 C 
ATOM     27  C   UNL     1      -1.673 -10.162   3.341  0.00  0.00    -0.026 A 
ATOM     28  C   UNL     1      -1.405  -8.800   3.327  0.00  0.00    +0.033 A 
ATOM     29  C   UNL     1      -1.356  -8.086   4.519  0.00  0.00    +0.023 A 
ATOM     30  C   UNL     1      -1.570  -8.732   5.720  0.00  0.00    +0.002 A 
ATOM     31  C   UNL     1      -1.833 -10.089   5.736  0.00  0.00    +0.000 A 
ATOM     32  C   UNL     1      -1.893 -10.801   4.549  0.00  0.00    +0.005 A 
ENDBRANCH  22  23
ENDBRANCH  21  22
ENDBRANCH  19  21
ENDBRANCH   2  19
TORSDOF 7
