REMARK  Name = ZINC38872900
REMARK  13 active torsions:
REMARK  status: ('A' for Active; 'I' for Inactive)
REMARK    1  A    between atoms: C_1  and  C_2
REMARK    2  A    between atoms: C_2  and  O_3
REMARK    3  A    between atoms: O_3  and  C_4
REMARK    4  A    between atoms: C_7  and  C_13
REMARK    5  A    between atoms: C_9  and  O_10
REMARK    6  A    between atoms: O_10  and  C_11
REMARK    7  A    between atoms: C_11  and  C_12
REMARK    8  A    between atoms: C_13  and  C_15
REMARK    9  A    between atoms: C_13  and  N_16
REMARK   10  A    between atoms: C_17  and  C_19
REMARK   11  A    between atoms: N_22  and  C_25
REMARK   12  A    between atoms: C_25  and  C_26
REMARK   13  A    between atoms: C_28  and  C_31
REMARK                            x       y       z     vdW  Elec       q    Type
REMARK                         _______ _______ _______ _____ _____    ______ ____
ROOT
ATOM      1  N   UNL     1      -1.006  -6.699  -0.906  0.00  0.00    -0.309 N 
ATOM      2  C   UNL     1      -1.249  -7.899  -1.471  0.00  0.00    +0.216 C 
ATOM      3  O   UNL     1      -2.288  -8.479  -1.237  0.00  0.00    -0.276 OA
ATOM      4  H   UNL     1      -0.175  -6.235  -1.093  0.00  0.00    +0.149 HD
ENDROOT
BRANCH   2   5
ATOM      5  C   UNL     1      -0.230  -8.518  -2.392  0.00  0.00    +0.071 C 
ATOM      6  C   UNL     1       0.004  -7.596  -3.591  0.00  0.00    -0.006 C 
ATOM      7  C   UNL     1       0.980  -8.267  -4.561  0.00  0.00    -0.077 C 
ATOM      8  N   UNL     1       0.416  -9.540  -5.025  0.00  0.00    +0.386 N 
ATOM      9  C   UNL     1       0.255 -10.456  -3.889  0.00  0.00    -0.077 C 
ATOM     10  C   UNL     1      -0.748  -9.870  -2.893  0.00  0.00    -0.006 C 
ATOM     11  H   UNL     1      -0.484  -9.374  -5.451  0.00  0.00    -0.081 HD
BRANCH   8  12
ATOM     12  C   UNL     1       1.319 -10.143  -6.014  0.00  0.00    +0.022 C 
BRANCH  12  13
ATOM     13  C   UNL     1       0.685 -11.387  -6.581  0.00  0.00    +0.211 A 
ATOM     14  N   UNL     1      -0.081 -11.438  -7.632  0.00  0.00    -0.192 NA
ATOM     15  C   UNL     1      -0.472 -12.708  -7.856  0.00  0.00    +0.209 A 
ATOM     16  N   UNL     1       0.054 -13.476  -6.931  0.00  0.00    -0.056 NA
ATOM     17  O   UNL     1       0.820 -12.626  -6.091  0.00  0.00    -0.340 OA
BRANCH  15  18
ATOM     18  C   UNL     1      -1.347 -13.159  -8.958  0.00  0.00    +0.060 A 
ATOM     19  C   UNL     1      -1.791 -14.423  -9.245  0.00  0.00    +0.019 A 
ATOM     20  C   UNL     1      -2.609 -14.605 -10.337  0.00  0.00    +0.008 A 
ATOM     21  C   UNL     1      -2.951 -13.530 -11.094  0.00  0.00    +0.046 A 
ATOM     22  S   UNL     1      -2.108 -12.198 -10.256  0.00  0.00    -0.093 S 
ENDBRANCH  15  18
ENDBRANCH  12  13
ENDBRANCH   8  12
ENDBRANCH   2   5
BRANCH   1  23
ATOM     23  C   UNL     1      -1.996  -6.097  -0.011  0.00  0.00    +0.100 C 
ATOM     24  C   UNL     1      -1.800  -6.639   1.406  0.00  0.00    +0.033 C 
BRANCH  23  28
ATOM     25  C   UNL     1      -1.498  -1.849   0.006  0.00  0.00    +0.162 A 
ATOM     26  C   UNL     1      -0.389  -2.680  -0.003  0.00  0.00    +0.050 A 
ATOM     27  C   UNL     1      -0.553  -4.052  -0.008  0.00  0.00    +0.009 A 
ATOM     28  C   UNL     1      -1.823  -4.600  -0.005  0.00  0.00    -0.024 A 
ATOM     29  C   UNL     1      -2.934  -3.777   0.004  0.00  0.00    +0.055 A 
ATOM     30  C   UNL     1      -2.776  -2.400   0.016  0.00  0.00    +0.162 A 
BRANCH  25  31
ATOM     31  O   UNL     1      -1.339  -0.499   0.012  0.00  0.00    -0.489 OA
BRANCH  31  33
ATOM     32  C   UNL     1      -0.019   1.526   0.010  0.00  0.00    +0.048 C 
ATOM     33  C   UNL     1       0.002  -0.004   0.002  0.00  0.00    +0.226 C 
ENDBRANCH  31  33
ENDBRANCH  25  31
BRANCH  30  34
ATOM     34  O   UNL     1      -3.868  -1.589   0.030  0.00  0.00    -0.489 OA
BRANCH  34  35
ATOM     35  C   UNL     1      -5.148  -2.225   0.039  0.00  0.00    +0.226 C 
ATOM     36  C   UNL     1      -6.246  -1.159   0.055  0.00  0.00    +0.048 C 
ENDBRANCH  34  35
ENDBRANCH  30  34
ENDBRANCH  23  28
ENDBRANCH   1  23
TORSDOF 10
