REMARK  Name = ZINC38650667
REMARK  14 active torsions:
REMARK  status: ('A' for Active; 'I' for Inactive)
REMARK    1  A    between atoms: C_1  and  C_2
REMARK    2  A    between atoms: C_2  and  C_3
REMARK    3  A    between atoms: C_3  and  O_4
REMARK    4  A    between atoms: O_4  and  C_5
REMARK    5  A    between atoms: C_8  and  C_11
REMARK    6  A    between atoms: C_16  and  O_25
REMARK    7  A    between atoms: C_20  and  N_24
REMARK    8  A    between atoms: C_21  and  C_22
REMARK    9  A    between atoms: O_25  and  C_26
REMARK   10  A    between atoms: C_26  and  C_28
REMARK   11  A    between atoms: C_31  and  O_34
REMARK   12  A    between atoms: O_34  and  C_35
REMARK   13  A    between atoms: C_35  and  C_36
REMARK   14  A    between atoms: C_35  and  C_37
REMARK                            x       y       z     vdW  Elec       q    Type
REMARK                         _______ _______ _______ _____ _____    ______ ____
ROOT
ATOM      1  C   UNL     1       3.367  -4.645  -5.606  0.00  0.00    +0.098 C 
ATOM      2  C   UNL     1       2.352  -5.482  -6.338  0.00  0.00    +0.008 A 
ATOM      3  C   UNL     1       1.387  -4.860  -7.112  0.00  0.00    +0.012 A 
ATOM      4  C   UNL     1       0.449  -5.611  -7.791  0.00  0.00    +0.047 A 
ATOM      5  C   UNL     1       0.470  -6.995  -7.699  0.00  0.00    +0.135 A 
ATOM      6  C   UNL     1       1.434  -7.622  -6.926  0.00  0.00    +0.093 A 
ATOM      7  C   UNL     1       2.377  -6.864  -6.243  0.00  0.00    +0.138 A 
ATOM      8  O   UNL     1       3.314  -7.492  -5.491  0.00  0.00    -0.441 OA
ATOM      9  C   UNL     1       4.441  -6.846  -5.146  0.00  0.00    +0.199 C 
ATOM     10  C   UNL     1       4.528  -5.498  -5.179  0.00  0.00    +0.098 C 
ENDROOT
BRANCH   1  14
ATOM     11  C   UNL     1       1.542  -2.909  -2.153  0.00  0.00    +0.121 A 
ATOM     12  C   UNL     1       2.075  -2.094  -3.142  0.00  0.00    +0.046 A 
ATOM     13  C   UNL     1       2.665  -2.658  -4.256  0.00  0.00    +0.008 A 
ATOM     14  C   UNL     1       2.723  -4.033  -4.388  0.00  0.00    -0.034 A 
ATOM     15  C   UNL     1       2.192  -4.847  -3.405  0.00  0.00    +0.008 A 
ATOM     16  C   UNL     1       1.607  -4.288  -2.285  0.00  0.00    +0.046 A 
BRANCH  11  17
ATOM     17  O   UNL     1       0.962  -2.357  -1.055  0.00  0.00    -0.492 OA
BRANCH  17  18
ATOM     18  C   UNL     1       0.931  -0.930  -0.987  0.00  0.00    +0.229 C 
BRANCH  18  20
ATOM     19  C   UNL     1       0.211   1.031   0.384  0.00  0.00    +0.007 C 
ATOM     20  C   UNL     1       0.245  -0.496   0.310  0.00  0.00    +0.038 C 
ENDBRANCH  18  20
ENDBRANCH  17  18
ENDBRANCH  11  17
ENDBRANCH   1  14
BRANCH   9  21
ATOM     21  N   UNL     1       5.533  -7.577  -4.749  0.00  0.00    -0.328 N 
ATOM     22  H   UNL     1       5.484  -8.545  -4.720  0.00  0.00    +0.145 HD
ATOM     23  H   UNL     1       6.353  -7.125  -4.498  0.00  0.00    +0.145 HD
ENDBRANCH   9  21
BRANCH  10  24
ATOM     24  C   UNL     1       5.758  -4.870  -4.799  0.00  0.00    +0.101 C 
ATOM     25  N   UNL     1       6.733  -4.372  -4.497  0.00  0.00    -0.191 NA
ENDBRANCH  10  24
BRANCH   5  26
ATOM     26  O   UNL     1      -0.453  -7.736  -8.367  0.00  0.00    -0.422 OA
BRANCH  26  27
ATOM     27  C   UNL     1      -0.423  -7.720  -9.715  0.00  0.00    +0.344 C 
ATOM     28  O   UNL     1       0.468  -7.132 -10.295  0.00  0.00    -0.245 OA
BRANCH  27  29
ATOM     29  C   UNL     1      -1.472  -8.414 -10.484  0.00  0.00    +0.060 A 
ATOM     30  C   UNL     1      -2.501  -9.086  -9.818  0.00  0.00    +0.018 A 
ATOM     31  C   UNL     1      -3.479  -9.733 -10.540  0.00  0.00    +0.046 A 
ATOM     32  C   UNL     1      -3.443  -9.719 -11.930  0.00  0.00    +0.121 A 
ATOM     33  C   UNL     1      -2.421  -9.053 -12.596  0.00  0.00    +0.046 A 
ATOM     34  C   UNL     1      -1.443  -8.398 -11.882  0.00  0.00    +0.018 A 
BRANCH  32  35
ATOM     35  O   UNL     1      -4.409 -10.358 -12.637  0.00  0.00    -0.489 OA
BRANCH  35  36
ATOM     36  C   UNL     1      -5.501 -10.905 -11.897  0.00  0.00    +0.167 C 
ATOM     37  C   UNL     1      -6.781 -10.810 -12.731  0.00  0.00    +0.051 C 
ATOM     38  C   UNL     1      -5.213 -12.372 -11.571  0.00  0.00    +0.051 C 
ENDBRANCH  35  36
ENDBRANCH  32  35
ENDBRANCH  27  29
ENDBRANCH  26  27
ENDBRANCH   5  26
TORSDOF 11
