REMARK  Name = ZINC64746063
REMARK  6 active torsions:
REMARK  status: ('A' for Active; 'I' for Inactive)
REMARK    1  A    between atoms: C_1  and  C_2
REMARK    2  A    between atoms: C_2  and  N_3
REMARK    3  A    between atoms: C_12  and  N_27
REMARK    4  A    between atoms: C_13  and  C_17
REMARK    5  A    between atoms: C_20  and  C_23
REMARK    6  A    between atoms: N_27  and  C_28
REMARK                            x       y       z     vdW  Elec       q    Type
REMARK                         _______ _______ _______ _____ _____    ______ ____
ROOT
ATOM      1  N   UNL     1       0.690  -0.478  -1.207  0.00  0.00    +0.382 N 
ATOM      2  C   UNL     1      -0.081  -0.083  -2.393  0.00  0.00    -0.060 C 
ATOM      3  C   UNL     1       0.691  -0.476  -3.656  0.00  0.00    +0.088 C 
ATOM      4  N   UNL     1       1.003  -1.911  -3.585  0.00  0.00    -0.312 N 
ATOM      5  C   UNL     1       1.631  -2.424  -2.358  0.00  0.00    +0.088 C 
ATOM      6  C   UNL     1       0.815  -1.940  -1.155  0.00  0.00    -0.060 C 
ATOM      7  C   UNL     1       0.713  -2.757  -4.644  0.00  0.00    +0.184 A 
ATOM      8  N   UNL     1       0.916  -4.042  -4.746  0.00  0.00    -0.140 NA
ATOM      9  N   UNL     1       0.559  -4.742  -5.894  0.00  0.00    -0.190 N 
ATOM     10  C   UNL     1       0.604  -6.043  -6.370  0.00  0.00    +0.150 A 
ATOM     11  C   UNL     1       0.069  -6.043  -7.624  0.00  0.00    +0.114 A 
ATOM     12  N   UNL     1      -0.300  -4.768  -7.917  0.00  0.00    -0.218 NA
ATOM     13  C   UNL     1      -0.013  -4.007  -6.903  0.00  0.00    +0.199 A 
ATOM     14  S   UNL     1      -0.040  -2.368  -6.216  0.00  0.00    -0.013 S 
ATOM     15  H   UNL     1       1.609  -0.064  -1.253  0.00  0.00    -0.082 HD
ENDROOT
BRANCH  11  16
ATOM     16  C   UNL     1      -0.084  -7.220  -8.508  0.00  0.00    +0.004 A 
ATOM     17  C   UNL     1       0.874  -8.234  -8.496  0.00  0.00    +0.010 A 
ATOM     18  C   UNL     1       0.726  -9.329  -9.322  0.00  0.00    +0.013 A 
ATOM     19  C   UNL     1      -0.370  -9.422 -10.162  0.00  0.00    +0.055 A 
ATOM     20  C   UNL     1      -1.323  -8.420 -10.179  0.00  0.00    +0.013 A 
ATOM     21  C   UNL     1      -1.189  -7.323  -9.354  0.00  0.00    +0.010 A 
BRANCH  19  22
ATOM     22  C   UNL     1      -0.525 -10.621 -11.063  0.00  0.00    +0.417 C 
ATOM     23  F   UNL     1      -1.246 -11.616 -10.395  0.00  0.00    -0.166 F 
ATOM     24  F   UNL     1      -1.212 -10.246 -12.223  0.00  0.00    -0.166 F 
ATOM     25  F   UNL     1       0.739 -11.112 -11.407  0.00  0.00    -0.166 F 
ENDBRANCH  19  22
ENDBRANCH  11  16
BRANCH   1  27
ATOM     26  C   UNL     1      -0.019   1.526   0.010  0.00  0.00    -0.017 C 
ATOM     27  C   UNL     1       0.002  -0.004   0.002  0.00  0.00    -0.082 C 
ENDBRANCH   1  27
BRANCH  10  28
ATOM     28  N   UNL     1       1.108  -7.155  -5.689  0.00  0.00    -0.324 N 
ATOM     29  H   UNL     1       1.095  -8.029  -6.110  0.00  0.00    +0.148 HD
BRANCH  28  30
ATOM     30  C   UNL     1       1.654  -7.000  -4.338  0.00  0.00    +0.072 C 
ATOM     31  C   UNL     1       3.121  -6.574  -4.427  0.00  0.00    +0.022 C 
ATOM     32  C   UNL     1       3.692  -6.412  -3.017  0.00  0.00    +0.002 C 
ATOM     33  C   UNL     1       3.592  -7.744  -2.271  0.00  0.00    +0.000 C 
ATOM     34  C   UNL     1       2.125  -8.170  -2.182  0.00  0.00    +0.002 C 
ATOM     35  C   UNL     1       1.554  -8.332  -3.592  0.00  0.00    +0.022 C 
ENDBRANCH  28  30
ENDBRANCH  10  28
TORSDOF 5
