REMARK  Name = ZINC64392071
REMARK  4 active torsions:
REMARK  status: ('A' for Active; 'I' for Inactive)
REMARK    1  A    between atoms: C_5  and  C_7
REMARK    2  A    between atoms: C_7  and  N_8
REMARK    3  A    between atoms: C_14  and  C_21
REMARK    4  A    between atoms: C_24  and  C_27
REMARK                            x       y       z     vdW  Elec       q    Type
REMARK                         _______ _______ _______ _____ _____    ______ ____
ROOT
ATOM      1  N   UNL     1       1.488  -2.679   1.333  0.00  0.00    -0.256 N 
ATOM      2  C   UNL     1       2.762  -2.880   1.732  0.00  0.00    +0.265 A 
ATOM      3  O   UNL     1       3.693  -2.657   0.982  0.00  0.00    -0.267 OA
ATOM      4  C   UNL     1       2.996  -3.376   3.100  0.00  0.00    +0.063 A 
ATOM      5  C   UNL     1       4.281  -3.607   3.586  0.00  0.00    +0.016 A 
ATOM      6  C   UNL     1       4.446  -4.071   4.874  0.00  0.00    +0.009 A 
ATOM      7  C   UNL     1       3.345  -4.307   5.682  0.00  0.00    +0.006 A 
ATOM      8  C   UNL     1       2.066  -4.081   5.213  0.00  0.00    +0.034 A 
ATOM      9  C   UNL     1       1.880  -3.614   3.921  0.00  0.00    +0.056 A 
ATOM     10  N   UNL     1       0.613  -3.374   3.410  0.00  0.00    -0.307 N 
ATOM     11  H   UNL     1      -0.167  -3.534   3.965  0.00  0.00    +0.170 HD
ATOM     12  C   UNL     1       0.455  -2.917   2.156  0.00  0.00    +0.330 A 
ATOM     13  O   UNL     1      -0.673  -2.715   1.748  0.00  0.00    -0.246 OA
ENDROOT
BRANCH   7  14
ATOM     14  C   UNL     1       3.545  -4.814   7.087  0.00  0.00    +0.274 C 
ATOM     15  N   UNL     1       4.837  -4.357   7.613  0.00  0.00    -0.339 N 
ATOM     16  C   UNL     1       5.565  -5.396   7.888  0.00  0.00    +0.134 C 
ATOM     17  N   UNL     1       4.901  -6.563   7.603  0.00  0.00    -0.247 N 
ATOM     18  O   UNL     1       3.614  -6.248   7.092  0.00  0.00    -0.243 OA
ATOM     19  H   UNL     1       5.254  -7.458   7.730  0.00  0.00    +0.196 HD
ATOM     20  H   UNL     1       5.102  -3.433   7.735  0.00  0.00    +0.164 HD
BRANCH  16  21
ATOM     21  C   UNL     1       6.937  -5.330   8.440  0.00  0.00    +0.017 A 
ATOM     22  C   UNL     1       7.311  -4.267   9.262  0.00  0.00    +0.013 A 
ATOM     23  C   UNL     1       8.590  -4.211   9.774  0.00  0.00    +0.021 A 
ATOM     24  C   UNL     1       9.504  -5.207   9.472  0.00  0.00    +0.041 A 
ATOM     25  C   UNL     1       9.138  -6.264   8.656  0.00  0.00    +0.021 A 
ATOM     26  C   UNL     1       7.859  -6.333   8.143  0.00  0.00    +0.013 A 
ATOM     27 CL   UNL     1      11.113  -5.130  10.119  0.00  0.00    -0.084 Cl
ENDBRANCH  16  21
ENDBRANCH   7  14
BRANCH   1  28
ATOM     28  C   UNL     1       1.228  -2.186  -0.022  0.00  0.00    +0.168 C 
BRANCH  28  33
ATOM     29  C   UNL     1      -0.017   1.378   0.010  0.00  0.00    +0.000 A 
ATOM     30  C   UNL     1       1.171   2.087   0.002  0.00  0.00    +0.003 A 
ATOM     31  C   UNL     1       2.377   1.414  -0.013  0.00  0.00    +0.039 A 
ATOM     32  C   UNL     1       2.397   0.029  -0.021  0.00  0.00    +0.128 A 
ATOM     33  C   UNL     1       1.208  -0.679  -0.013  0.00  0.00    +0.008 A 
ATOM     34  C   UNL     1       0.002  -0.004   0.002  0.00  0.00    +0.008 A 
ATOM     35  F   UNL     1       3.577  -0.630  -0.036  0.00  0.00    -0.205 F 
ENDBRANCH  28  33
ENDBRANCH   1  28
TORSDOF 4
