REMARK  Name = ZINC13098409
REMARK  10 active torsions:
REMARK  status: ('A' for Active; 'I' for Inactive)
REMARK    1  A    between atoms: C_1  and  N_2
REMARK    2  A    between atoms: C_11  and  C_12
REMARK    3  A    between atoms: C_11  and  C_14
REMARK    4  A    between atoms: C_14  and  C_16
REMARK    5  A    between atoms: C_16  and  O_17
REMARK    6  A    between atoms: O_17  and  C_18
REMARK    7  A    between atoms: C_18  and  C_20
REMARK    8  A    between atoms: C_20  and  C_21
REMARK    9  A    between atoms: C_21  and  C_23
REMARK   10  A    between atoms: C_21  and  N_30
REMARK                            x       y       z     vdW  Elec       q    Type
REMARK                         _______ _______ _______ _____ _____    ______ ____
ROOT
ATOM      1  C   UNL     1       9.629   5.043  -0.126  0.00  0.00    +0.310 C 
ATOM      2  O   UNL     1      10.610   4.350  -0.257  0.00  0.00    -0.251 OA
ENDROOT
BRANCH   1   3
ATOM      3  O   UNL     1       8.409   4.483  -0.112  0.00  0.00    -0.456 OA
BRANCH   3   4
ATOM      4  C   UNL     1       8.345   3.040  -0.259  0.00  0.00    +0.312 C 
BRANCH   4   5
ATOM      5  C   UNL     1       6.905   2.595  -0.220  0.00  0.00    +0.213 C 
ATOM      6  O   UNL     1       6.019   3.416  -0.081  0.00  0.00    -0.288 OA
BRANCH   5  17
ATOM      7  C   UNL     1       6.229   2.338   2.385  0.00  0.00    +0.136 C 
ATOM      8  N   UNL     1       5.822   0.981   2.011  0.00  0.00    -0.296 N 
ATOM      9  C   UNL     1       5.241   0.152   2.951  0.00  0.00    +0.048 A 
ATOM     10  C   UNL     1       4.960   0.425   4.299  0.00  0.00    +0.024 A 
ATOM     11  C   UNL     1       4.372  -0.525   5.101  0.00  0.00    +0.002 A 
ATOM     12  C   UNL     1       4.040  -1.775   4.607  0.00  0.00    +0.001 A 
ATOM     13  C   UNL     1       4.306  -2.072   3.282  0.00  0.00    +0.017 A 
ATOM     14  C   UNL     1       4.893  -1.123   2.479  0.00  0.00    +0.035 A 
ATOM     15  S   UNL     1       5.396  -1.077   0.777  0.00  0.00    -0.071 S 
ATOM     16  C   UNL     1       6.018   0.541   0.741  0.00  0.00    +0.094 C 
ATOM     17  C   UNL     1       6.588   1.233  -0.345  0.00  0.00    +0.126 C 
BRANCH  17  18
ATOM     18  C   UNL     1       6.844   0.547  -1.575  0.00  0.00    +0.105 C 
ATOM     19  N   UNL     1       7.047   0.004  -2.552  0.00  0.00    -0.191 NA
ENDBRANCH  17  18
ENDBRANCH   5  17
ENDBRANCH   4   5
ENDBRANCH   3   4
ENDBRANCH   1   3
BRANCH   1  20
ATOM     20  C   UNL     1       9.775   6.536   0.023  0.00  0.00    +0.147 C 
BRANCH  20  21
ATOM     21  C   UNL     1      11.258   6.911  -0.026  0.00  0.00    +0.115 C 
BRANCH  21  22
ATOM     22  C   UNL     1      11.397   8.411  -0.002  0.00  0.00    -0.027 A 
ATOM     23  C   UNL     1      10.406   9.206  -0.545  0.00  0.00    +0.007 A 
ATOM     24  C   UNL     1      10.531  10.582  -0.517  0.00  0.00    +0.020 A 
ATOM     25  C   UNL     1      11.654  11.164   0.044  0.00  0.00    +0.041 A 
ATOM     26  C   UNL     1      12.648  10.367   0.583  0.00  0.00    +0.020 A 
ATOM     27  C   UNL     1      12.520   8.991   0.559  0.00  0.00    +0.007 A 
ATOM     28 CL   UNL     1      11.815  12.892   0.072  0.00  0.00    -0.084 Cl
ENDBRANCH  21  22
BRANCH  21  29
ATOM     29  N   UNL     1      11.945   6.337   1.133  0.00  0.00    -0.292 N 
ATOM     30  C   UNL     1      11.555   6.668   2.380  0.00  0.00    +0.298 C 
ATOM     31  O   UNL     1      10.573   7.366   2.544  0.00  0.00    -0.253 OA
ATOM     32  N   UNL     1      12.253   6.225   3.445  0.00  0.00    -0.313 N 
ATOM     33  H   UNL     1      12.681   5.719   1.004  0.00  0.00    +0.151 HD
ATOM     34  H   UNL     1      13.036   5.668   3.313  0.00  0.00    +0.146 HD
ATOM     35  H   UNL     1      11.972   6.463   4.342  0.00  0.00    +0.146 HD
ENDBRANCH  21  29
ENDBRANCH  20  21
ENDBRANCH   1  20
TORSDOF 9
