REMARK  Name = ZINC39637452
REMARK  8 active torsions:
REMARK  status: ('A' for Active; 'I' for Inactive)
REMARK    1  A    between atoms: C_1  and  C_2
REMARK    2  A    between atoms: C_7  and  N_12
REMARK    3  A    between atoms: C_9  and  C_11
REMARK    4  A    between atoms: C_13  and  C_15
REMARK    5  A    between atoms: C_26  and  C_28
REMARK    6  A    between atoms: C_34  and  O_36
REMARK    7  A    between atoms: O_36  and  C_37
REMARK    8  A    between atoms: C_37  and  C_38
REMARK                            x       y       z     vdW  Elec       q    Type
REMARK                         _______ _______ _______ _____ _____    ______ ____
ROOT
ATOM      1  C   UNL     1       1.936  -4.254   4.128  0.00  0.00    +0.100 C 
ATOM      2  C   UNL     1       3.430  -4.481   3.807  0.00  0.00    +0.121 C 
ATOM      3  N   UNL     1       3.796  -5.698   4.571  0.00  0.00    -0.300 N 
ATOM      4  C   UNL     1       2.616  -6.585   4.437  0.00  0.00    +0.115 C 
ATOM      5  C   UNL     1       1.405  -5.637   4.541  0.00  0.00    -0.004 C 
ATOM      6  C   UNL     1       0.301  -6.085   3.587  0.00  0.00    -0.010 C 
ATOM      7  C   UNL     1      -0.251  -7.436   4.051  0.00  0.00    -0.082 C 
ATOM      8  N   UNL     1      -0.777  -7.309   5.416  0.00  0.00    +0.379 N 
ATOM      9  C   UNL     1       0.310  -6.968   6.342  0.00  0.00    -0.082 C 
ATOM     10  C   UNL     1       0.885  -5.598   5.975  0.00  0.00    -0.010 C 
ATOM     11  C   UNL     1       4.942  -5.941   5.237  0.00  0.00    +0.219 C 
ATOM     12  O   UNL     1       5.093  -6.995   5.818  0.00  0.00    -0.275 OA
ATOM     13  H   UNL     1      -1.477  -6.582   5.439  0.00  0.00    -0.086 HD
ATOM     14  H   UNL     1      -1.195  -8.183   5.697  0.00  0.00    -0.086 HD
ENDROOT
BRANCH  11  15
ATOM     15  C   UNL     1       6.036  -4.905   5.258  0.00  0.00    +0.078 C 
ATOM     16  C   UNL     1       6.492  -4.616   3.826  0.00  0.00    +0.032 C 
ATOM     17  C   UNL     1       7.580  -3.537   3.850  0.00  0.00    +0.112 C 
ATOM     18  N   UNL     1       8.657  -3.970   4.751  0.00  0.00    -0.267 N 
ATOM     19  C   UNL     1       8.314  -4.359   6.125  0.00  0.00    +0.112 C 
ATOM     20  C   UNL     1       7.218  -5.429   6.077  0.00  0.00    +0.032 C 
ATOM     21  C   UNL     1       9.934  -4.011   4.324  0.00  0.00    +0.403 C 
ATOM     22  O   UNL     1      10.205  -3.687   3.185  0.00  0.00    -0.226 OA
BRANCH  21  23
ATOM     23  O   UNL     1      10.911  -4.410   5.160  0.00  0.00    -0.445 OA
BRANCH  23  24
ATOM     24  C   UNL     1      12.242  -4.429   4.641  0.00  0.00    +0.269 C 
BRANCH  24  25
ATOM     25  C   UNL     1      13.193  -4.899   5.712  0.00  0.00    -0.010 A 
ATOM     26  C   UNL     1      13.780  -3.983   6.566  0.00  0.00    +0.007 A 
ATOM     27  C   UNL     1      14.651  -4.414   7.548  0.00  0.00    +0.000 A 
ATOM     28  C   UNL     1      14.936  -5.761   7.677  0.00  0.00    +0.000 A 
ATOM     29  C   UNL     1      14.348  -6.676   6.825  0.00  0.00    +0.000 A 
ATOM     30  C   UNL     1      13.473  -6.246   5.845  0.00  0.00    +0.007 A 
ENDBRANCH  24  25
ENDBRANCH  23  24
ENDBRANCH  21  23
ENDBRANCH  11  15
BRANCH   1  32
ATOM     31  N   UNL     1       0.128  -2.959   3.045  0.00  0.00    -0.312 N 
ATOM     32  C   UNL     1       1.207  -3.754   2.907  0.00  0.00    +0.218 C 
ATOM     33  O   UNL     1       1.591  -4.068   1.801  0.00  0.00    -0.275 OA
ATOM     34  H   UNL     1      -0.180  -2.708   3.930  0.00  0.00    +0.149 HD
BRANCH  31  40
ATOM     35  C   UNL     1      -4.223  -1.330   1.353  0.00  0.00    +0.008 C 
ATOM     36  C   UNL     1      -2.772  -1.648   0.986  0.00  0.00    -0.009 C 
ATOM     37  C   UNL     1      -2.088  -0.383   0.465  0.00  0.00    +0.003 C 
ATOM     38  C   UNL     1      -0.637  -0.701   0.099  0.00  0.00    +0.002 C 
ATOM     39  C   UNL     1       0.103  -1.208   1.338  0.00  0.00    +0.022 C 
ATOM     40  C   UNL     1      -0.581  -2.474   1.858  0.00  0.00    +0.076 C 
ATOM     41  C   UNL     1      -2.032  -2.155   2.225  0.00  0.00    +0.009 C 
ATOM     42  C   UNL     1      -2.716  -3.421   2.745  0.00  0.00    +0.009 C 
ENDBRANCH  31  40
ENDBRANCH   1  32
TORSDOF 6
