REMARK  Name = ZINC00844178
REMARK  8 active torsions:
REMARK  status: ('A' for Active; 'I' for Inactive)
REMARK    1  A    between atoms: C_1  and  C_2
REMARK    2  A    between atoms: C_2  and  N_3
REMARK    3  A    between atoms: N_3  and  C_4
REMARK    4  A    between atoms: N_3  and  C_6
REMARK    5  A    between atoms: C_4  and  C_5
REMARK    6  A    between atoms: C_9  and  C_12
REMARK    7  A    between atoms: C_26  and  N_30
REMARK    8  A    between atoms: C_27  and  C_28
REMARK                            x       y       z     vdW  Elec       q    Type
REMARK                         _______ _______ _______ _____ _____    ______ ____
ROOT
ATOM      1  C   UNL     1       3.542   6.168  -0.002  0.00  0.00    +0.105 C 
ATOM      2  C   UNL     1       2.302   5.316   0.006  0.00  0.00    +0.092 A 
ATOM      3  C   UNL     1       2.394   3.955  -0.001  0.00  0.00    +0.152 A 
ATOM      4  C   UNL     1       1.148   3.173   0.008  0.00  0.00    +0.060 A 
ATOM      5  C   UNL     1       1.173   1.777   0.000  0.00  0.00    +0.015 A 
ATOM      6  C   UNL     1      -0.013   1.076   0.008  0.00  0.00    +0.001 A 
ATOM      7  C   UNL     1      -1.225   1.750   0.017  0.00  0.00    +0.004 A 
ATOM      8  C   UNL     1      -1.264   3.128   0.031  0.00  0.00    +0.047 A 
ATOM      9  C   UNL     1      -0.080   3.855   0.023  0.00  0.00    +0.143 A 
ATOM     10  O   UNL     1      -0.098   5.205   0.029  0.00  0.00    -0.422 OA
ATOM     11  C   UNL     1       1.035   5.925   0.020  0.00  0.00    +0.345 A 
ATOM     12  O   UNL     1       0.964   7.142   0.024  0.00  0.00    -0.245 OA
ATOM     13  O   UNL     1       3.586   3.330  -0.014  0.00  0.00    -0.440 OA
ATOM     14  C   UNL     1       4.689   3.994  -0.401  0.00  0.00    +0.199 C 
ATOM     15  C   UNL     1       4.732   5.348  -0.418  0.00  0.00    +0.098 C 
ENDROOT
BRANCH   1  19
ATOM     16  C   UNL     1       4.205   7.740   3.916  0.00  0.00    +0.030 A 
ATOM     17  C   UNL     1       4.014   8.602   2.843  0.00  0.00    +0.023 A 
ATOM     18  C   UNL     1       3.800   8.090   1.578  0.00  0.00    +0.006 A 
ATOM     19  C   UNL     1       3.776   6.722   1.379  0.00  0.00    -0.034 A 
ATOM     20  C   UNL     1       3.959   5.862   2.446  0.00  0.00    +0.006 A 
ATOM     21  C   UNL     1       4.180   6.367   3.713  0.00  0.00    +0.023 A 
BRANCH  16  22
ATOM     22  N   UNL     1       4.421   8.254   5.197  0.00  0.00    -0.330 N 
BRANCH  22  24
ATOM     23  C   UNL     1       6.113   7.038   6.476  0.00  0.00    +0.024 C 
ATOM     24  C   UNL     1       4.622   7.344   6.327  0.00  0.00    +0.102 C 
ENDBRANCH  22  24
BRANCH  22  25
ATOM     25  C   UNL     1       4.447   9.704   5.410  0.00  0.00    +0.102 C 
ATOM     26  C   UNL     1       3.034  10.198   5.728  0.00  0.00    +0.024 C 
ENDBRANCH  22  25
ENDBRANCH  16  22
ENDBRANCH   1  19
BRANCH  14  27
ATOM     27  N   UNL     1       5.799   3.284  -0.787  0.00  0.00    -0.328 N 
ATOM     28  H   UNL     1       6.601   3.752  -1.068  0.00  0.00    +0.145 HD
ATOM     29  H   UNL     1       5.781   2.314  -0.779  0.00  0.00    +0.145 HD
ENDBRANCH  14  27
BRANCH  15  30
ATOM     30  C   UNL     1       5.931   6.010  -0.839  0.00  0.00    +0.101 C 
ATOM     31  N   UNL     1       6.881   6.535  -1.172  0.00  0.00    -0.191 NA
ENDBRANCH  15  30
TORSDOF 6
