REMARK  Name = ZINC19690012
REMARK  6 active torsions:
REMARK  status: ('A' for Active; 'I' for Inactive)
REMARK    1  A    between atoms: C_1  and  C_2
REMARK    2  A    between atoms: C_5  and  C_8
REMARK    3  A    between atoms: C_8  and  C_9
REMARK    4  A    between atoms: C_10  and  C_25
REMARK    5  A    between atoms: N_17  and  C_18
REMARK    6  A    between atoms: C_21  and  N_24
REMARK                            x       y       z     vdW  Elec       q    Type
REMARK                         _______ _______ _______ _____ _____    ______ ____
ROOT
ATOM      1  C   UNL     1       1.692  -4.921   0.171  0.00  0.00    +0.042 A 
ATOM      2  C   UNL     1       2.208  -4.917   1.434  0.00  0.00    +0.050 A 
ATOM      3  N   UNL     1       3.483  -5.245   1.636  0.00  0.00    -0.221 NA
ATOM      4  C   UNL     1       4.272  -5.578   0.635  0.00  0.00    +0.200 A 
ATOM      5  N   UNL     1       3.813  -5.600  -0.646  0.00  0.00    -0.295 N 
ATOM      6  H   UNL     1       4.407  -5.848  -1.372  0.00  0.00    +0.172 HD
ATOM      7  C   UNL     1       2.527  -5.281  -0.903  0.00  0.00    +0.256 A 
ATOM      8  O   UNL     1       2.097  -5.300  -2.045  0.00  0.00    -0.267 OA
ATOM      9  N   UNL     1       5.578  -5.908   0.888  0.00  0.00    -0.285 N 
ATOM     10  C   UNL     1       1.334  -4.541   2.603  0.00  0.00    +0.066 C 
ATOM     11  H   UNL     1       6.189  -6.069   0.152  0.00  0.00    +0.155 HD
ENDROOT
BRANCH   9  12
ATOM     12  C   UNL     1       6.030  -6.013   2.210  0.00  0.00    +0.034 A 
ATOM     13  C   UNL     1       5.199  -6.542   3.188  0.00  0.00    +0.025 A 
ATOM     14  C   UNL     1       5.645  -6.646   4.491  0.00  0.00    +0.024 A 
ATOM     15  C   UNL     1       6.925  -6.221   4.822  0.00  0.00    +0.025 A 
ATOM     16  C   UNL     1       7.756  -5.693   3.844  0.00  0.00    +0.024 A 
ATOM     17  C   UNL     1       7.312  -5.594   2.540  0.00  0.00    +0.025 A 
BRANCH  15  18
ATOM     18  N   UNL     1       7.377  -6.326   6.142  0.00  0.00    -0.358 N 
ATOM     19  H   UNL     1       6.795  -6.695   6.826  0.00  0.00    +0.142 HD
ATOM     20  H   UNL     1       8.271  -6.030   6.374  0.00  0.00    +0.142 HD
ENDBRANCH  15  18
ENDBRANCH   9  12
BRANCH   1  21
ATOM     21  C   UNL     1       0.251  -4.553  -0.069  0.00  0.00    +0.077 C 
BRANCH  21  26
ATOM     22  C   UNL     1      -2.962  -9.352  -0.254  0.00  0.00    +0.044 C 
ATOM     23  C   UNL     1      -2.124  -8.100  -0.206  0.00  0.00    -0.050 A 
ATOM     24  C   UNL     1      -1.869  -7.486   1.006  0.00  0.00    +0.003 A 
ATOM     25  C   UNL     1      -1.100  -6.338   1.050  0.00  0.00    +0.004 A 
ATOM     26  C   UNL     1      -0.586  -5.805  -0.117  0.00  0.00    -0.043 A 
ATOM     27  C   UNL     1      -0.841  -6.420  -1.329  0.00  0.00    +0.004 A 
ATOM     28  C   UNL     1      -1.607  -7.570  -1.373  0.00  0.00    +0.003 A 
ENDBRANCH  21  26
ENDBRANCH   1  21
TORSDOF 4
