REMARK  Name = ZINC22278365
REMARK  7 active torsions:
REMARK  status: ('A' for Active; 'I' for Inactive)
REMARK    1  A    between atoms: C_4  and  C_7
REMARK    2  A    between atoms: C_7  and  N_8
REMARK    3  A    between atoms: C_9  and  C_11
REMARK    4  A    between atoms: C_11  and  N_12
REMARK    5  A    between atoms: N_15  and  C_18
REMARK    6  A    between atoms: C_18  and  C_19
REMARK    7  A    between atoms: C_29  and  C_31
REMARK                            x       y       z     vdW  Elec       q    Type
REMARK                         _______ _______ _______ _____ _____    ______ ____
ROOT
ATOM      1  N   UNL     1       3.695   1.618  -2.011  0.00  0.00    +0.387 N 
ATOM      2  C   UNL     1       4.198   2.156  -3.283  0.00  0.00    -0.063 C 
ATOM      3  C   UNL     1       5.199   3.278  -2.999  0.00  0.00    +0.066 C 
ATOM      4  N   UNL     1       6.301   2.752  -2.180  0.00  0.00    -0.298 NA
ATOM      5  C   UNL     1       5.798   2.214  -0.909  0.00  0.00    +0.066 C 
ATOM      6  C   UNL     1       4.797   1.092  -1.193  0.00  0.00    -0.063 C 
ATOM      7  H   UNL     1       3.223   2.442  -1.457  0.00  0.00    -0.081 HD
ENDROOT
BRANCH   1   8
ATOM      8  C   UNL     1       2.674   0.588  -2.243  0.00  0.00    +0.019 C 
BRANCH   8  10
ATOM      9  N   UNL     1       0.384   0.461  -3.171  0.00  0.00    -0.313 N 
ATOM     10  C   UNL     1       1.456   1.219  -2.868  0.00  0.00    +0.197 C 
ATOM     11  O   UNL     1       1.441   2.410  -3.098  0.00  0.00    -0.278 OA
ATOM     12  H   UNL     1       0.396  -0.618  -2.958  0.00  0.00    +0.149 HD
BRANCH   9  13
ATOM     13  C   UNL     1      -0.797   1.074  -3.784  0.00  0.00    +0.139 C 
BRANCH  13  17
ATOM     14  C   UNL     1      -3.762  -1.923  -4.471  0.00  0.00    +0.000 A 
ATOM     15  C   UNL     1      -3.741  -1.234  -3.273  0.00  0.00    +0.000 A 
ATOM     16  C   UNL     1      -2.781  -0.264  -3.051  0.00  0.00    +0.005 A 
ATOM     17  C   UNL     1      -1.843   0.016  -4.026  0.00  0.00    -0.030 A 
ATOM     18  C   UNL     1      -1.868  -0.669  -5.227  0.00  0.00    +0.005 A 
ATOM     19  C   UNL     1      -2.824  -1.642  -5.447  0.00  0.00    +0.000 A 
ENDBRANCH  13  17
ENDBRANCH   9  13
ENDBRANCH   8  10
ENDBRANCH   1   8
BRANCH   4  20
ATOM     20  C   UNL     1       7.323   3.782  -1.949  0.00  0.00    +0.180 C 
BRANCH  20  21
ATOM     21  C   UNL     1       8.544   3.149  -1.335  0.00  0.00    +0.230 C 
ATOM     22  O   UNL     1       8.597   1.945  -1.194  0.00  0.00    -0.274 OA
ATOM     23  N   UNL     1       9.578   3.919  -0.943  0.00  0.00    -0.288 N 
ATOM     24  C   UNL     1       9.485   5.385  -1.014  0.00  0.00    +0.114 C 
ATOM     25  C   UNL     1       9.545   5.938   0.423  0.00  0.00    +0.062 C 
ATOM     26  C   UNL     1      10.613   5.208   1.171  0.00  0.00    -0.003 A 
ATOM     27  C   UNL     1      11.215   4.034   0.838  0.00  0.00    -0.012 A 
ATOM     28  C   UNL     1      12.186   3.557   1.717  0.00  0.00    +0.013 A 
ATOM     29  C   UNL     1      12.490   4.257   2.834  0.00  0.00    +0.046 A 
ATOM     30  S   UNL     1      11.391   5.659   2.700  0.00  0.00    -0.101 S 
ATOM     31  C   UNL     1      10.817   3.307  -0.445  0.00  0.00    +0.144 C 
BRANCH  31  32
ATOM     32  C   UNL     1      10.583   1.847  -0.154  0.00  0.00    +0.015 A 
ATOM     33  C   UNL     1      11.185   0.761  -0.697  0.00  0.00    +0.013 A 
ATOM     34  C   UNL     1      10.809  -0.499  -0.269  0.00  0.00    +0.008 A 
ATOM     35  C   UNL     1       9.841  -0.611   0.673  0.00  0.00    +0.045 A 
ATOM     36  S   UNL     1       9.435   1.099   0.991  0.00  0.00    -0.099 S 
ENDBRANCH  31  32
ENDBRANCH  20  21
ENDBRANCH   4  20
TORSDOF 7
