REMARK  Name = ZINC35927993
REMARK  12 active torsions:
REMARK  status: ('A' for Active; 'I' for Inactive)
REMARK    1  A    between atoms: C_1  and  C_2
REMARK    2  A    between atoms: C_5  and  N_8
REMARK    3  A    between atoms: C_11  and  C_13
REMARK    4  A    between atoms: C_13  and  N_14
REMARK    5  A    between atoms: N_14  and  C_15
REMARK    6  A    between atoms: N_14  and  C_16
REMARK    7  A    between atoms: C_16  and  C_17
REMARK    8  A    between atoms: C_17  and  C_19
REMARK    9  A    between atoms: C_17  and  O_26
REMARK   10  A    between atoms: C_19  and  C_20
REMARK   11  A    between atoms: N_28  and  C_31
REMARK   12  A    between atoms: C_31  and  C_32
REMARK                            x       y       z     vdW  Elec       q    Type
REMARK                         _______ _______ _______ _____ _____    ______ ____
ROOT
ATOM      1  N   UNL     1       0.057  -4.172  -0.021  0.00  0.00    -0.236 N 
ATOM      2  C   UNL     1       0.765  -4.960   0.806  0.00  0.00    +0.051 A 
ATOM      3  C   UNL     1       0.510  -6.253   0.471  0.00  0.00    +0.009 A 
ATOM      4  C   UNL     1      -0.386  -6.252  -0.594  0.00  0.00    +0.052 A 
ATOM      5  N   UNL     1      -0.666  -5.005  -0.890  0.00  0.00    -0.173 NA
ATOM      6  C   UNL     1       1.132  -7.431   1.177  0.00  0.00    +0.123 C 
ATOM      7  N   UNL     1       2.289  -6.948   1.950  0.00  0.00    -0.294 NA
ATOM      8  C   UNL     1       1.928  -5.806   2.801  0.00  0.00    +0.091 C 
ATOM      9  C   UNL     1       1.693  -4.565   1.928  0.00  0.00    +0.071 C 
ENDROOT
BRANCH   1  14
ATOM     10  C   UNL     1      -0.016   1.503   0.008  0.00  0.00    +0.044 C 
ATOM     11  C   UNL     1       0.004  -0.004   0.001  0.00  0.00    -0.050 A 
ATOM     12  C   UNL     1       1.198  -0.680   0.170  0.00  0.00    +0.005 A 
ATOM     13  C   UNL     1       1.219  -2.061   0.163  0.00  0.00    +0.028 A 
ATOM     14  C   UNL     1       0.039  -2.771  -0.013  0.00  0.00    +0.066 A 
ATOM     15  C   UNL     1      -1.159  -2.089  -0.182  0.00  0.00    +0.028 A 
ATOM     16  C   UNL     1      -1.174  -0.708  -0.169  0.00  0.00    +0.005 A 
ENDBRANCH   1  14
BRANCH   4  17
ATOM     17  C   UNL     1      -0.943  -7.471  -1.283  0.00  0.00    -0.021 C 
BRANCH  17  18
ATOM     18  N   UNL     1      -2.183  -7.887  -0.615  0.00  0.00    +0.383 N 
ATOM     19  C   UNL     1      -3.204  -6.844  -0.785  0.00  0.00    -0.096 C 
ATOM     20  H   UNL     1      -2.006  -8.026   0.368  0.00  0.00    -0.082 HD
BRANCH  18  21
ATOM     21  C   UNL     1      -2.662  -9.142  -1.209  0.00  0.00    -0.047 C 
BRANCH  21  22
ATOM     22  C   UNL     1      -3.883  -9.640  -0.433  0.00  0.00    +0.102 C 
BRANCH  22  23
ATOM     23  O   UNL     1      -3.521  -9.866   0.931  0.00  0.00    -0.393 OA
ATOM     24  H   UNL     1      -2.821 -10.523   1.048  0.00  0.00    +0.210 HD
ENDBRANCH  22  23
BRANCH  22  25
ATOM     25  C   UNL     1      -4.382 -10.948  -1.052  0.00  0.00    +0.064 C 
BRANCH  25  26
ATOM     26  C   UNL     1      -5.654 -11.374  -0.366  0.00  0.00    -0.045 A 
ATOM     27  C   UNL     1      -5.599 -12.187   0.750  0.00  0.00    +0.004 A 
ATOM     28  C   UNL     1      -6.767 -12.579   1.379  0.00  0.00    +0.000 A 
ATOM     29  C   UNL     1      -7.989 -12.157   0.890  0.00  0.00    +0.000 A 
ATOM     30  C   UNL     1      -8.044 -11.343  -0.226  0.00  0.00    +0.000 A 
ATOM     31  C   UNL     1      -6.877 -10.948  -0.852  0.00  0.00    +0.004 A 
ENDBRANCH  25  26
ENDBRANCH  22  25
ENDBRANCH  21  22
ENDBRANCH  18  21
ENDBRANCH  17  18
ENDBRANCH   4  17
BRANCH   7  32
ATOM     32  C   UNL     1       2.880  -8.032   2.747  0.00  0.00    +0.120 C 
BRANCH  32  33
ATOM     33  C   UNL     1       4.192  -7.571   3.326  0.00  0.00    -0.033 A 
ATOM     34  C   UNL     1       5.364  -7.758   2.617  0.00  0.00    +0.008 A 
ATOM     35  C   UNL     1       6.568  -7.336   3.147  0.00  0.00    +0.038 A 
ATOM     36  C   UNL     1       6.601  -6.725   4.390  0.00  0.00    +0.123 A 
ATOM     37  C   UNL     1       5.426  -6.539   5.099  0.00  0.00    +0.038 A 
ATOM     38  C   UNL     1       4.223  -6.957   4.564  0.00  0.00    +0.008 A 
ATOM     39  F   UNL     1       7.777  -6.312   4.910  0.00  0.00    -0.205 F 
ENDBRANCH  32  33
ENDBRANCH   7  32
TORSDOF 10
