REMARK  Name = ZINC28248996
REMARK  3 active torsions:
REMARK  status: ('A' for Active; 'I' for Inactive)
REMARK    1  A    between atoms: C_4  and  S_8
REMARK    2  A    between atoms: S_8  and  N_11
REMARK    3  A    between atoms: N_11  and  C_12
REMARK                            x       y       z     vdW  Elec       q    Type
REMARK                         _______ _______ _______ _____ _____    ______ ____
ROOT
ATOM      1  S   UNL     1      -1.766   0.573  -1.986  0.00  0.00    +0.060 S 
ATOM      2  O   UNL     1      -2.741   0.049  -1.095  0.00  0.00    -0.153 OA
ATOM      3  O   UNL     1      -2.115   1.333  -3.135  0.00  0.00    -0.153 OA
ENDROOT
BRANCH   1   7
ATOM      4  C   UNL     1       0.673  -2.948  -3.454  0.00  0.00    +0.016 A 
ATOM      5  C   UNL     1       0.995  -1.667  -3.861  0.00  0.00    +0.018 A 
ATOM      6  C   UNL     1       0.250  -0.591  -3.413  0.00  0.00    +0.044 A 
ATOM      7  C   UNL     1      -0.817  -0.797  -2.557  0.00  0.00    +0.120 A 
ATOM      8  C   UNL     1      -1.135  -2.077  -2.145  0.00  0.00    +0.045 A 
ATOM      9  C   UNL     1      -0.394  -3.154  -2.598  0.00  0.00    +0.020 A 
ATOM     10 BR   UNL     1      -0.834  -4.907  -2.041  0.00  0.00    -0.050 Br
ATOM     11 BR   UNL     1       0.690   1.161  -3.971  0.00  0.00    -0.048 Br
ENDBRANCH   1   7
BRANCH   1  12
ATOM     12  N   UNL     1      -0.758   1.523  -1.079  0.00  0.00    -0.185 NA
ATOM     13  H   UNL     1      -0.653   2.589  -1.330  0.00  0.00    +0.148 HD
BRANCH  12  14
ATOM     14  C   UNL     1      -0.189   1.005   0.168  0.00  0.00    +0.099 C 
ATOM     15  C   UNL     1      -1.030   1.485   1.362  0.00  0.00    +0.044 C 
ATOM     16  C   UNL     1      -0.270   1.220   2.684  0.00  0.00    +0.167 C 
ATOM     17  S   UNL     1       1.491   1.289   2.158  0.00  0.00    -0.029 S 
ATOM     18  O   UNL     1       2.088   0.018   2.374  0.00  0.00    -0.174 OA
ATOM     19  O   UNL     1       2.095   2.449   2.714  0.00  0.00    -0.174 OA
ATOM     20  C   UNL     1       1.259   1.544   0.348  0.00  0.00    +0.186 C 
ENDBRANCH  12  14
ENDBRANCH   1  12
TORSDOF 3
