REMARK  Name = ZINC13498538
REMARK  11 active torsions:
REMARK  status: ('A' for Active; 'I' for Inactive)
REMARK    1  A    between atoms: C_1  and  C_2
REMARK    2  A    between atoms: C_7  and  C_14
REMARK    3  A    between atoms: C_14  and  N_73
REMARK    4  A    between atoms: C_15  and  N_73
REMARK    5  A    between atoms: C_21  and  C_23
REMARK    6  A    between atoms: C_21  and  C_35
REMARK    7  A    between atoms: C_21  and  N_73
REMARK    8  A    between atoms: N_27  and  C_28
REMARK    9  A    between atoms: C_28  and  C_29
REMARK   10  A    between atoms: C_35  and  C_36
REMARK   11  A    between atoms: C_35  and  C_37
REMARK                            x       y       z     vdW  Elec       q    Type
REMARK                         _______ _______ _______ _____ _____    ______ ____
ROOT
ATOM      1  N   UNL     1       3.357  -0.679  -0.710  0.00  0.00    +0.391 N 
ATOM      2  H   UNL     1       3.140  -0.786  -1.708  0.00  0.00    -0.080 HD
ENDROOT
BRANCH   1   3
ATOM      3  C   UNL     1       2.560  -1.657   0.062  0.00  0.00    -0.067 C 
ATOM      4  C   UNL     1       1.228  -1.876  -0.657  0.00  0.00    -0.015 C 
ATOM      5  C   UNL     1       0.392  -2.897   0.117  0.00  0.00    -0.002 C 
ATOM      6  C   UNL     1       0.129  -2.374   1.530  0.00  0.00    -0.000 C 
ATOM      7  C   UNL     1       1.461  -2.155   2.250  0.00  0.00    -0.002 C 
ATOM      8  C   UNL     1       2.297  -1.134   1.475  0.00  0.00    -0.015 C 
ENDBRANCH   1   3
BRANCH   1   9
ATOM      9  C   UNL     1       4.799  -0.927  -0.502  0.00  0.00    -0.036 C 
BRANCH   9  16
ATOM     10  C   UNL     1       7.025  -7.392  -4.609  0.00  0.00    +0.044 C 
ATOM     11  C   UNL     1       6.679  -6.050  -4.018  0.00  0.00    -0.048 A 
ATOM     12  C   UNL     1       6.929  -4.894  -4.746  0.00  0.00    +0.004 A 
ATOM     13  C   UNL     1       6.623  -3.667  -4.229  0.00  0.00    +0.010 A 
ATOM     14  C   UNL     1       6.053  -3.574  -2.955  0.00  0.00    -0.001 A 
ATOM     15  C   UNL     1       5.712  -2.276  -2.371  0.00  0.00    +0.017 A 
ATOM     16  C   UNL     1       5.161  -2.247  -1.132  0.00  0.00    +0.001 A 
ATOM     17  C   UNL     1       4.931  -3.449  -0.429  0.00  0.00    +0.251 A 
ATOM     18  O   UNL     1       4.440  -3.400   0.685  0.00  0.00    -0.268 OA
ATOM     19  N   UNL     1       5.236  -4.646  -0.959  0.00  0.00    -0.322 N 
ATOM     20  H   UNL     1       5.061  -5.453  -0.450  0.00  0.00    +0.169 HD
ATOM     21  C   UNL     1       5.798  -4.743  -2.215  0.00  0.00    +0.049 A 
ATOM     22  C   UNL     1       6.118  -5.982  -2.761  0.00  0.00    +0.029 A 
ENDBRANCH   9  16
ENDBRANCH   1   9
BRANCH   1  23
ATOM     23  C   UNL     1       3.014   0.696  -0.289  0.00  0.00    +0.006 C 
BRANCH  23  24
ATOM     24  C   UNL     1       1.515   0.851  -0.283  0.00  0.00    +0.138 A 
ATOM     25  N   UNL     1       0.658   0.144   0.412  0.00  0.00    -0.115 NA
ATOM     26  N   UNL     1      -0.525   0.579   0.144  0.00  0.00    -0.023 NA
ATOM     27  N   UNL     1      -0.445   1.545  -0.703  0.00  0.00    -0.044 NA
ATOM     28  N   UNL     1       0.797   1.743  -0.991  0.00  0.00    -0.228 N 
BRANCH  28  29
ATOM     29  C   UNL     1       1.327   2.749  -1.915  0.00  0.00    +0.178 C 
BRANCH  29  30
ATOM     30  C   UNL     1       1.723   4.002  -1.133  0.00  0.00    +0.140 C 
ATOM     31  C   UNL     1       1.921   5.185  -2.104  0.00  0.00    +0.035 C 
ATOM     32  C   UNL     1       3.157   5.905  -1.500  0.00  0.00    +0.031 C 
ATOM     33  C   UNL     1       3.959   4.699  -0.949  0.00  0.00    +0.160 C 
ATOM     34  O   UNL     1       2.968   3.781  -0.460  0.00  0.00    -0.375 OA
ENDBRANCH  29  30
ENDBRANCH  28  29
ENDBRANCH  23  24
BRANCH  23  35
ATOM     35  C   UNL     1       3.562   0.979   1.111  0.00  0.00    -0.024 C 
ATOM     36  C   UNL     1       5.069   1.226   1.029  0.00  0.00    +0.006 C 
ATOM     37  C   UNL     1       2.873   2.219   1.687  0.00  0.00    +0.006 C 
ENDBRANCH  23  35
ENDBRANCH   1  23
TORSDOF 8
