REMARK  Name = ZINC15705617
REMARK  6 active torsions:
REMARK  status: ('A' for Active; 'I' for Inactive)
REMARK    1  A    between atoms: C_1  and  C_2
REMARK    2  A    between atoms: C_2  and  C_4
REMARK    3  A    between atoms: C_2  and  O_21
REMARK    4  A    between atoms: C_15  and  C_17
REMARK    5  A    between atoms: O_21  and  C_22
REMARK    6  A    between atoms: C_22  and  C_24
REMARK                            x       y       z     vdW  Elec       q    Type
REMARK                         _______ _______ _______ _____ _____    ______ ____
ROOT
ATOM      1  C   UNL     1       1.000   7.912   0.746  0.00  0.00    +0.261 C 
ATOM      2  O   UNL     1      -0.106   7.752   1.216  0.00  0.00    -0.271 OA
ATOM      3  N   UNL     1       1.618   9.104   0.870  0.00  0.00    -0.258 N 
ATOM      4  C   UNL     1       2.962   9.322   0.315  0.00  0.00    +0.209 C 
ATOM      5  C   UNL     1       3.784  10.107   1.299  0.00  0.00    +0.235 C 
ATOM      6  O   UNL     1       4.988   9.962   1.325  0.00  0.00    -0.274 OA
ATOM      7  N   UNL     1       3.199  10.966   2.156  0.00  0.00    -0.283 N 
ATOM      8  C   UNL     1       1.808  11.115   2.182  0.00  0.00    +0.056 A 
ATOM      9  C   UNL     1       1.003  10.173   1.539  0.00  0.00    +0.058 A 
ATOM     10  C   UNL     1      -0.374  10.301   1.567  0.00  0.00    +0.026 A 
ATOM     11  C   UNL     1      -0.951  11.369   2.231  0.00  0.00    +0.014 A 
ATOM     12  C   UNL     1      -0.155  12.305   2.865  0.00  0.00    +0.057 A 
ATOM     13  C   UNL     1       1.222  12.182   2.842  0.00  0.00    +0.037 A 
ATOM     14  H   UNL     1       3.749  11.487   2.762  0.00  0.00    +0.155 HD
ENDROOT
BRANCH  12  15
ATOM     15  C   UNL     1      -0.792  13.466   3.584  0.00  0.00    +0.417 C 
ATOM     16  F   UNL     1      -2.184  13.379   3.470  0.00  0.00    -0.166 F 
ATOM     17  F   UNL     1      -0.432  13.433   4.935  0.00  0.00    -0.166 F 
ATOM     18  F   UNL     1      -0.353  14.666   3.013  0.00  0.00    -0.166 F 
ENDBRANCH  12  15
BRANCH   1  20
ATOM     19  C   UNL     1       1.973   7.198  -1.420  0.00  0.00    +0.062 C 
ATOM     20  C   UNL     1       1.683   6.780   0.023  0.00  0.00    +0.259 C 
BRANCH  20  21
ATOM     21  O   UNL     1       0.833   5.632   0.025  0.00  0.00    -0.447 OA
BRANCH  21  22
ATOM     22  C   UNL     1       1.434   4.425   0.013  0.00  0.00    +0.376 C 
ATOM     23  O   UNL     1       2.648   4.350   0.001  0.00  0.00    -0.241 OA
BRANCH  22  24
ATOM     24  C   UNL     1       0.626   3.204   0.013  0.00  0.00    +0.213 A 
ATOM     25  C   UNL     1       1.104   1.924   0.002  0.00  0.00    +0.058 A 
ATOM     26  C   UNL     1      -0.013   1.076   0.008  0.00  0.00    +0.058 A 
ATOM     27  C   UNL     1      -1.112   1.865   0.017  0.00  0.00    +0.171 A 
ATOM     28  O   UNL     1      -0.723   3.146   0.026  0.00  0.00    -0.442 OA
ATOM     29 BR   UNL     1      -2.903   1.258   0.021  0.00  0.00    -0.008 Br
ENDBRANCH  22  24
ENDBRANCH  21  22
ENDBRANCH  20  21
ENDBRANCH   1  20
TORSDOF 5
