REMARK  Name = ZINC06049903
REMARK  11 active torsions:
REMARK  status: ('A' for Active; 'I' for Inactive)
REMARK    1  A    between atoms: C_1  and  C_2
REMARK    2  A    between atoms: C_2  and  C_3
REMARK    3  A    between atoms: C_2  and  C_4
REMARK    4  A    between atoms: C_4  and  O_32
REMARK    5  A    between atoms: C_6  and  O_31
REMARK    6  A    between atoms: C_8  and  C_30
REMARK    7  A    between atoms: C_11  and  O_20
REMARK    8  A    between atoms: C_14  and  C_19
REMARK    9  A    between atoms: O_20  and  C_21
REMARK   10  A    between atoms: C_21  and  C_23
REMARK   11  A    between atoms: C_26  and  O_29
REMARK                            x       y       z     vdW  Elec       q    Type
REMARK                         _______ _______ _______ _____ _____    ______ ____
ROOT
ATOM      1  C   UNL     1       1.680   0.862  -0.126  0.00  0.00    +0.077 C 
ATOM      2  C   UNL     1       2.760   0.743   0.979  0.00  0.00    +0.067 C 
ATOM      3  C   UNL     1       3.185   2.179   1.345  0.00  0.00    +0.124 C 
ATOM      4  C   UNL     1       2.127   3.102   0.685  0.00  0.00    +0.005 C 
ATOM      5  C   UNL     1       1.806   2.304  -0.622  0.00  0.00    +0.070 C 
ATOM      6  C   UNL     1       0.601   2.910  -1.301  0.00  0.00    +0.186 C 
ATOM      7  C   UNL     1       1.059   3.577  -2.642  0.00  0.00    +0.082 C 
ATOM      8  C   UNL     1       2.057   4.645  -2.191  0.00  0.00    +0.097 C 
ATOM      9  C   UNL     1       1.924   5.092  -0.745  0.00  0.00    +0.151 C 
ATOM     10  C   UNL     1       2.797   4.419   0.255  0.00  0.00    +0.044 C 
ATOM     11  O   UNL     1       1.912   5.967  -1.795  0.00  0.00    -0.365 OA
ATOM     12  C   UNL     1       3.466   4.394  -2.744  0.00  0.00    +0.044 C 
ATOM     13  C   UNL     1       0.950   3.350   1.638  0.00  0.00    +0.014 C 
ENDROOT
BRANCH   1  15
ATOM     14  C   UNL     1       0.134  -1.019   0.401  0.00  0.00    +0.010 C 
ATOM     15  C   UNL     1       0.331   0.496   0.475  0.00  0.00    +0.015 C 
ATOM     16  C   UNL     1       0.284   0.945   1.937  0.00  0.00    +0.010 C 
ENDBRANCH   1  15
BRANCH   3  17
ATOM     17  O   UNL     1       4.490   2.453   0.838  0.00  0.00    -0.391 OA
ATOM     18  H   UNL     1       5.185   1.901   1.221  0.00  0.00    +0.210 HD
ENDBRANCH   3  17
BRANCH   1  19
ATOM     19  O   UNL     1       2.002  -0.045  -1.186  0.00  0.00    -0.388 OA
ATOM     20  H   UNL     1       1.942  -0.978  -0.938  0.00  0.00    +0.210 HD
ENDBRANCH   1  19
BRANCH   6  21
ATOM     21  O   UNL     1      -0.395   1.908  -1.683  0.00  0.00    -0.457 OA
BRANCH  21  22
ATOM     22  C   UNL     1      -1.683   2.303  -1.703  0.00  0.00    +0.339 C 
ATOM     23  O   UNL     1      -1.974   3.446  -1.411  0.00  0.00    -0.245 OA
BRANCH  22  24
ATOM     24  C   UNL     1      -2.741   1.347  -2.079  0.00  0.00    +0.059 A 
ATOM     25  C   UNL     1      -2.409   0.032  -2.421  0.00  0.00    +0.018 A 
ATOM     26  C   UNL     1      -3.400  -0.859  -2.767  0.00  0.00    +0.046 A 
ATOM     27  C   UNL     1      -4.729  -0.450  -2.786  0.00  0.00    +0.117 A 
ATOM     28  C   UNL     1      -5.063   0.858  -2.452  0.00  0.00    +0.046 A 
ATOM     29  C   UNL     1      -4.079   1.753  -2.100  0.00  0.00    +0.018 A 
BRANCH  27  30
ATOM     30  O   UNL     1      -5.702  -1.330  -3.132  0.00  0.00    -0.507 OA
ATOM     31  H   UNL     1      -5.899  -1.347  -4.079  0.00  0.00    +0.292 HD
ENDBRANCH  27  30
ENDBRANCH  22  24
ENDBRANCH  21  22
ENDBRANCH   6  21
TORSDOF 7
