REMARK  Name = ZINC17135595
REMARK  9 active torsions:
REMARK  status: ('A' for Active; 'I' for Inactive)
REMARK    1  A    between atoms: C_1  and  C_2
REMARK    2  A    between atoms: C_6  and  N_8
REMARK    3  A    between atoms: C_9  and  C_23
REMARK    4  A    between atoms: C_12  and  S_13
REMARK    5  A    between atoms: S_13  and  C_14
REMARK    6  A    between atoms: C_14  and  C_15
REMARK    7  A    between atoms: C_17  and  C_22
REMARK    8  A    between atoms: C_20  and  C_21
REMARK    9  A    between atoms: C_23  and  C_24
REMARK                            x       y       z     vdW  Elec       q    Type
REMARK                         _______ _______ _______ _____ _____    ______ ____
ROOT
ATOM      1  N   UNL     1      -0.069   5.245   0.030  0.00  0.00    -0.274 N 
ATOM      2  C   UNL     1      -0.537   6.061   1.026  0.00  0.00    +0.144 A 
ATOM      3  N   UNL     1      -0.365   7.291   0.631  0.00  0.00    -0.133 NA
ATOM      4  N   UNL     1       0.167   7.310  -0.538  0.00  0.00    -0.122 NA
ATOM      5  C   UNL     1       0.371   6.083  -0.958  0.00  0.00    +0.196 A 
ENDROOT
BRANCH   1  11
ATOM      6  C   UNL     1       2.490   1.044  -0.016  0.00  0.00    +0.044 C 
ATOM      7  C   UNL     1       1.176   1.782   0.000  0.00  0.00    -0.048 A 
ATOM      8  C   UNL     1      -0.013   1.076   0.008  0.00  0.00    +0.003 A 
ATOM      9  C   UNL     1      -1.220   1.749   0.017  0.00  0.00    +0.002 A 
ATOM     10  C   UNL     1      -1.242   3.131   0.030  0.00  0.00    +0.026 A 
ATOM     11  C   UNL     1      -0.050   3.842   0.022  0.00  0.00    +0.050 A 
ATOM     12  C   UNL     1       1.161   3.163   0.007  0.00  0.00    +0.029 A 
ENDBRANCH   1  11
BRANCH   5  13
ATOM     13  S   UNL     1       1.078   5.606  -2.499  0.00  0.00    -0.081 S 
BRANCH  13  14
ATOM     14  C   UNL     1       1.388   7.236  -3.221  0.00  0.00    +0.112 C 
BRANCH  14  15
ATOM     15  C   UNL     1       2.010   7.072  -4.584  0.00  0.00    -0.034 A 
ATOM     16  C   UNL     1       1.205   6.985  -5.705  0.00  0.00    +0.008 A 
ATOM     17  C   UNL     1       1.776   6.835  -6.955  0.00  0.00    -0.050 A 
ATOM     18  C   UNL     1       3.151   6.773  -7.084  0.00  0.00    +0.003 A 
ATOM     19  C   UNL     1       3.955   6.860  -5.963  0.00  0.00    +0.004 A 
ATOM     20  C   UNL     1       3.385   7.015  -4.714  0.00  0.00    -0.046 A 
ATOM     21  C   UNL     1       4.262   7.117  -3.493  0.00  0.00    +0.044 C 
ATOM     22  C   UNL     1       0.899   6.740  -8.177  0.00  0.00    +0.044 C 
ENDBRANCH  14  15
ENDBRANCH  13  14
ENDBRANCH   5  13
BRANCH   2  23
ATOM     23  C   UNL     1      -1.137   5.618   2.335  0.00  0.00    +0.130 C 
BRANCH  23  24
ATOM     24  C   UNL     1      -0.047   5.485   3.367  0.00  0.00    +0.033 A 
ATOM     25  C   UNL     1       0.222   6.508   4.206  0.00  0.00    +0.091 A 
ATOM     26  C   UNL     1       1.251   6.359   5.167  0.00  0.00    +0.254 A 
ATOM     27  O   UNL     1       1.511   7.267   5.935  0.00  0.00    -0.268 OA
ATOM     28  N   UNL     1       1.940   5.201   5.225  0.00  0.00    -0.275 N 
ATOM     29  H   UNL     1       2.668   5.088   5.901  0.00  0.00    +0.173 HD
ATOM     30  C   UNL     1       1.651   4.197   4.376  0.00  0.00    +0.327 A 
ATOM     31  O   UNL     1       2.281   3.159   4.439  0.00  0.00    -0.247 OA
ATOM     32  N   UNL     1       0.672   4.324   3.462  0.00  0.00    -0.311 N 
ATOM     33  H   UNL     1       0.467   3.563   2.846  0.00  0.00    +0.170 HD
ENDBRANCH  23  24
ENDBRANCH   2  23
TORSDOF 6
