REMARK  Name = ZINC15206019
REMARK  9 active torsions:
REMARK  status: ('A' for Active; 'I' for Inactive)
REMARK    1  A    between atoms: C_10  and  O_11
REMARK    2  A    between atoms: O_11  and  P_12
REMARK    3  A    between atoms: P_12  and  O_14
REMARK    4  A    between atoms: O_14  and  C_15
REMARK    5  A    between atoms: C_17  and  O_31
REMARK    6  A    between atoms: C_19  and  O_30
REMARK    7  A    between atoms: C_21  and  O_29
REMARK    8  A    between atoms: C_23  and  O_28
REMARK    9  A    between atoms: C_25  and  O_27
REMARK                            x       y       z     vdW  Elec       q    Type
REMARK                         _______ _______ _______ _____ _____    ______ ____
ROOT
ATOM      1  O   UNL     1       2.822  -0.429  -2.443  0.00  0.00    -0.267 OA
ENDROOT
BRANCH   1   2
ATOM      2  C   UNL     1       2.154   0.032  -1.268  0.00  0.00    +0.193 C 
ATOM      3  C   UNL     1       0.718  -0.497  -1.257  0.00  0.00    +0.177 C 
ATOM      4  C   UNL     1       0.002  -0.004   0.002  0.00  0.00    +0.177 C 
ATOM      5  C   UNL     1      -0.019   1.526   0.010  0.00  0.00    +0.176 C 
ATOM      6  C   UNL     1       1.417   2.055  -0.000  0.00  0.00    +0.177 C 
ATOM      7  C   UNL     1       2.133   1.562  -1.259  0.00  0.00    +0.177 C 
BRANCH   7   8
ATOM      8  O   UNL     1       3.474   2.057  -1.269  0.00  0.00    -0.386 OA
ATOM      9  H   UNL     1       3.537   3.022  -1.265  0.00  0.00    +0.210 HD
ENDBRANCH   7   8
BRANCH   6  10
ATOM     10  O   UNL     1       2.108   1.582   1.157  0.00  0.00    -0.386 OA
ATOM     11  H   UNL     1       1.708   1.857   1.994  0.00  0.00    +0.210 HD
ENDBRANCH   6  10
BRANCH   5  12
ATOM     12  O   UNL     1      -0.688   1.987   1.186  0.00  0.00    -0.386 OA
ATOM     13  H   UNL     1      -0.738   2.950   1.258  0.00  0.00    +0.210 HD
ENDBRANCH   5  12
BRANCH   4  14
ATOM     14  O   UNL     1      -1.339  -0.499   0.012  0.00  0.00    -0.386 OA
ATOM     15  H   UNL     1      -1.853  -0.225   0.784  0.00  0.00    +0.210 HD
ENDBRANCH   4  14
BRANCH   3  16
ATOM     16  O   UNL     1       0.027  -0.024  -2.414  0.00  0.00    -0.386 OA
ATOM     17  H   UNL     1      -0.891  -0.322  -2.473  0.00  0.00    +0.210 HD
ENDBRANCH   3  16
ENDBRANCH   1   2
BRANCH   1  18
ATOM     18  P   UNL     1       4.149  -1.340  -2.397  0.00  0.00    +0.561 P 
ATOM     19  O   UNL     1       3.890  -2.548  -1.582  0.00  0.00    -0.213 OA
ATOM     20  O   UNL     1       5.355  -0.499  -1.742  0.00  0.00    -0.105 OA
BRANCH  18  21
ATOM     21  O   UNL     1       4.551  -1.778  -3.893  0.00  0.00    -0.400 OA
BRANCH  21  31
ATOM     22  C   UNL     1       9.054  -3.529  -4.594  0.00  0.00    +0.027 A 
ATOM     23  C   UNL     1       9.668  -2.368  -5.007  0.00  0.00    +0.019 A 
ATOM     24  C   UNL     1       8.951  -1.182  -5.101  0.00  0.00    +0.037 A 
ATOM     25  C   UNL     1       7.611  -1.151  -4.782  0.00  0.00    +0.068 A 
ATOM     26  C   UNL     1       6.974  -2.322  -4.361  0.00  0.00    +0.061 A 
ATOM     27  C   UNL     1       7.702  -3.522  -4.266  0.00  0.00    +0.052 A 
ATOM     28  N   UNL     1       6.829  -4.495  -3.833  0.00  0.00    -0.358 N 
ATOM     29  H   UNL     1       7.062  -5.424  -3.678  0.00  0.00    +0.165 HD
ATOM     30  C   UNL     1       5.580  -3.952  -3.646  0.00  0.00    +0.130 A 
ATOM     31  C   UNL     1       5.602  -2.643  -3.954  0.00  0.00    +0.158 A 
ATOM     32 CL   UNL     1       6.718   0.333  -4.902  0.00  0.00    -0.082 Cl
ATOM     33 BR   UNL     1       9.819   0.399  -5.670  0.00  0.00    -0.049 Br
ENDBRANCH  21  31
ENDBRANCH  18  21
ENDBRANCH   1  18
TORSDOF 9
