REMARK  Name = ZINC16913463
REMARK  14 active torsions:
REMARK  status: ('A' for Active; 'I' for Inactive)
REMARK    1  A    between atoms: C_1  and  C_2
REMARK    2  A    between atoms: C_2  and  C_3
REMARK    3  A    between atoms: C_3  and  N_4
REMARK    4  A    between atoms: C_8  and  C_9
REMARK    5  A    between atoms: C_12  and  O_17
REMARK    6  A    between atoms: C_13  and  O_15
REMARK    7  A    between atoms: O_15  and  C_16
REMARK    8  A    between atoms: O_17  and  C_18
REMARK    9  A    between atoms: C_18  and  C_20
REMARK   10  A    between atoms: C_18  and  C_22
REMARK   11  A    between atoms: C_20  and  C_21
REMARK   12  A    between atoms: N_26  and  C_27
REMARK   13  A    between atoms: C_30  and  C_32
REMARK   14  A    between atoms: C_32  and  C_33
REMARK                            x       y       z     vdW  Elec       q    Type
REMARK                         _______ _______ _______ _____ _____    ______ ____
ROOT
ATOM      1  N   UNL     1       4.370  -2.778  -0.397  0.00  0.00    -0.246 N 
ATOM      2  C   UNL     1       4.427  -4.099  -0.402  0.00  0.00    +0.259 C 
ATOM      3  O   UNL     1       5.461  -4.692  -0.156  0.00  0.00    -0.269 OA
ATOM      4  C   UNL     1       3.183  -4.822  -0.727  0.00  0.00    +0.078 C 
ATOM      5  C   UNL     1       2.959  -6.158  -0.808  0.00  0.00    +0.028 C 
ATOM      6  S   UNL     1       2.050  -3.464  -0.985  0.00  0.00    -0.049 S 
ATOM      7  C   UNL     1       3.190  -2.126  -0.674  0.00  0.00    +0.171 C 
ATOM      8  N   UNL     1       2.959  -0.829  -0.707  0.00  0.00    -0.198 NA
ENDROOT
BRANCH   5   9
ATOM      9  C   UNL     1       4.085  -7.097  -0.739  0.00  0.00    -0.020 A 
ATOM     10  C   UNL     1       5.306  -6.776  -1.346  0.00  0.00    +0.012 A 
ATOM     11  C   UNL     1       6.361  -7.659  -1.279  0.00  0.00    +0.050 A 
ATOM     12  C   UNL     1       6.219  -8.867  -0.611  0.00  0.00    +0.163 A 
ATOM     13  C   UNL     1       5.007  -9.195  -0.004  0.00  0.00    +0.162 A 
ATOM     14  C   UNL     1       3.945  -8.314  -0.061  0.00  0.00    +0.057 A 
BRANCH  13  15
ATOM     15  O   UNL     1       4.872 -10.380   0.649  0.00  0.00    -0.491 OA
ATOM     16  C   UNL     1       3.603 -10.651   1.248  0.00  0.00    +0.277 C 
ENDBRANCH  13  15
BRANCH  12  17
ATOM     17  O   UNL     1       7.263  -9.734  -0.548  0.00  0.00    -0.474 OA
BRANCH  17  18
ATOM     18  C   UNL     1       8.508  -9.290  -1.093  0.00  0.00    +0.285 C 
BRANCH  18  19
ATOM     19  C   UNL     1       8.536  -9.568  -2.574  0.00  0.00    +0.396 C 
ATOM     20  O   UNL     1       7.587 -10.092  -3.108  0.00  0.00    -0.242 OA
ATOM     21  O   UNL     1       9.614  -9.233  -3.299  0.00  0.00    -0.242 OA
ENDBRANCH  18  19
BRANCH  18  22
ATOM     22  C   UNL     1       9.658 -10.036  -0.412  0.00  0.00    +0.053 C 
ATOM     23  C   UNL     1       9.706  -9.656   1.069  0.00  0.00    +0.008 C 
ENDBRANCH  18  22
ENDBRANCH  17  18
ENDBRANCH  12  17
ENDBRANCH   5   9
BRANCH   8  24
ATOM     24  C   UNL     1       1.717  -0.368  -1.009  0.00  0.00    +0.217 A 
ATOM     25  N   UNL     1       0.602  -1.036  -1.301  0.00  0.00    -0.121 NA
ATOM     26  N   UNL     1      -0.478  -0.438  -1.560  0.00  0.00    -0.144 NA
ATOM     27  C   UNL     1      -0.572   0.877  -1.559  0.00  0.00    +0.104 A 
ATOM     28  S   UNL     1       1.111   1.313  -1.129  0.00  0.00    -0.031 S 
BRANCH  27  29
ATOM     29  C   UNL     1      -1.757   1.763  -1.845  0.00  0.00    +0.061 C 
ATOM     30  C   UNL     1      -2.515   2.037  -0.544  0.00  0.00    +0.011 C 
ENDBRANCH  27  29
ENDBRANCH   8  24
BRANCH   1  31
ATOM     31  C   UNL     1       5.573  -2.001  -0.088  0.00  0.00    +0.116 C 
BRANCH  31  33
ATOM     32  C   UNL     1       6.905  -0.945   1.742  0.00  0.00    +0.005 C 
ATOM     33  C   UNL     1       5.649  -1.756   1.420  0.00  0.00    +0.016 C 
ENDBRANCH  31  33
ENDBRANCH   1  31
TORSDOF 10
