REMARK  Name = ZINC15772483
REMARK  12 active torsions:
REMARK  status: ('A' for Active; 'I' for Inactive)
REMARK    1  A    between atoms: C_1  and  C_2
REMARK    2  A    between atoms: C_2  and  C_3
REMARK    3  A    between atoms: C_3  and  C_4
REMARK    4  A    between atoms: C_10  and  C_14
REMARK    5  A    between atoms: C_14  and  O_15
REMARK    6  A    between atoms: O_15  and  C_16
REMARK    7  A    between atoms: C_16  and  C_18
REMARK    8  A    between atoms: C_23  and  N_24
REMARK    9  A    between atoms: C_25  and  C_27
REMARK   10  A    between atoms: C_27  and  C_29
REMARK   11  A    between atoms: C_27  and  O_30
REMARK   12  A    between atoms: O_30  and  C_31
REMARK                            x       y       z     vdW  Elec       q    Type
REMARK                         _______ _______ _______ _____ _____    ______ ____
ROOT
ATOM      1  C   UNL     1      -3.612   1.600  -3.181  0.00  0.00    +0.080 A 
ATOM      2  C   UNL     1      -4.038   2.085  -4.420  0.00  0.00    +0.017 A 
ATOM      3  C   UNL     1      -3.208   2.896  -5.163  0.00  0.00    +0.001 A 
ATOM      4  C   UNL     1      -1.951   3.234  -4.688  0.00  0.00    +0.002 A 
ATOM      5  C   UNL     1      -1.518   2.768  -3.463  0.00  0.00    +0.024 A 
ATOM      6  C   UNL     1      -2.338   1.944  -2.703  0.00  0.00    +0.048 A 
ENDROOT
BRANCH   6   7
ATOM      7  N   UNL     1      -1.902   1.468  -1.470  0.00  0.00    -0.282 N 
ATOM      8  C   UNL     1      -0.972   2.151  -0.774  0.00  0.00    +0.258 C 
ATOM      9  O   UNL     1      -0.592   3.233  -1.170  0.00  0.00    -0.271 OA
ATOM     10  H   UNL     1      -2.267   0.643  -1.111  0.00  0.00    +0.155 HD
BRANCH   8  11
ATOM     11  C   UNL     1      -0.403   1.571   0.496  0.00  0.00    +0.256 C 
ATOM     12  C   UNL     1       0.381   0.299   0.169  0.00  0.00    +0.062 C 
BRANCH  11  13
ATOM     13  O   UNL     1       0.469   2.525   1.106  0.00  0.00    -0.480 OA
BRANCH  13  14
ATOM     14  C   UNL     1       0.502   2.549   2.465  0.00  0.00    +0.122 A 
ATOM     15  C   UNL     1      -0.202   1.603   3.194  0.00  0.00    +0.045 A 
ATOM     16  C   UNL     1      -0.163   1.627   4.575  0.00  0.00    +0.004 A 
ATOM     17  C   UNL     1       0.571   2.599   5.230  0.00  0.00    +0.000 A 
ATOM     18  C   UNL     1       1.269   3.547   4.505  0.00  0.00    +0.004 A 
ATOM     19  C   UNL     1       1.237   3.524   3.124  0.00  0.00    +0.045 A 
ENDBRANCH  13  14
ENDBRANCH  11  13
ENDBRANCH   8  11
ENDBRANCH   6   7
BRANCH   1  20
ATOM     20  C   UNL     1      -4.495   0.732  -2.381  0.00  0.00    +0.341 C 
ATOM     21  O   UNL     1      -4.162   0.392  -1.263  0.00  0.00    -0.245 OA
BRANCH  20  22
ATOM     22  O   UNL     1      -5.671   0.316  -2.890  0.00  0.00    -0.455 OA
BRANCH  22  23
ATOM     23  C   UNL     1      -6.489  -0.537  -2.046  0.00  0.00    +0.288 C 
BRANCH  23  30
ATOM     24  C   UNL     1     -12.068  -0.659  -5.018  0.00  0.00    +0.102 A 
ATOM     25  N   UNL     1     -11.299  -1.678  -4.780  0.00  0.00    -0.159 NA
ATOM     26  N   UNL     1     -10.085  -1.537  -4.114  0.00  0.00    -0.171 N 
ATOM     27  C   UNL     1      -9.192  -2.523  -3.806  0.00  0.00    +0.275 A 
ATOM     28  O   UNL     1      -9.425  -3.679  -4.122  0.00  0.00    -0.266 OA
ATOM     29  C   UNL     1      -8.013  -2.207  -3.130  0.00  0.00    +0.099 A 
ATOM     30  C   UNL     1      -7.757  -0.899  -2.776  0.00  0.00    +0.087 A 
ATOM     31  N   UNL     1      -8.650   0.036  -3.087  0.00  0.00    -0.223 NA
ATOM     32  C   UNL     1      -9.752  -0.268  -3.726  0.00  0.00    +0.199 A 
ATOM     33  S   UNL     1     -11.139   0.687  -4.302  0.00  0.00    -0.033 S 
BRANCH  24  34
ATOM     34  C   UNL     1     -13.402  -0.623  -5.718  0.00  0.00    +0.064 C 
BRANCH  34  36
ATOM     35  C   UNL     1     -15.140  -2.000  -6.868  0.00  0.00    +0.004 C 
ATOM     36  C   UNL     1     -13.786  -2.037  -6.157  0.00  0.00    +0.003 C 
ENDBRANCH  34  36
ENDBRANCH  24  34
ENDBRANCH  23  30
ENDBRANCH  22  23
ENDBRANCH  20  22
ENDBRANCH   1  20
TORSDOF 10
