REMARK  Name = ZINC40571903
REMARK  7 active torsions:
REMARK  status: ('A' for Active; 'I' for Inactive)
REMARK    1  A    between atoms: C_1  and  C_2
REMARK    2  A    between atoms: C_7  and  N_10
REMARK    3  A    between atoms: N_13  and  CA_14
REMARK    4  A    between atoms: CA_14  and  CB_16
REMARK    5  A    between atoms: CA_14  and  C_19
REMARK    6  A    between atoms: CB_16  and  CG1_17
REMARK    7  A    between atoms: CB_16  and  CG2_18
REMARK                            x       y       z     vdW  Elec       q    Type
REMARK                         _______ _______ _______ _____ _____    ______ ____
ROOT
ATOM      1  N   UNK A   0      -0.612  -2.548   1.244  0.00  0.00    -0.297 N 
ATOM      2  C   UNK A   0      -0.873  -3.776   1.733  0.00  0.00    +0.301 C 
ATOM      3  O   UNK A   0       0.032  -4.463   2.165  0.00  0.00    -0.253 OA
ATOM      4  N   VAL A   1      -2.137  -4.243   1.742  0.00  0.00    -0.286 N 
ATOM      5  H   UNK A   0      -1.333  -2.000   0.898  0.00  0.00    +0.151 HD
ATOM      6  H   VAL A   1      -2.859  -3.694   1.397  0.00  0.00    +0.151 HD
ENDROOT
BRANCH   1  12
ATOM      7  C   UNK A   0      -0.019   1.526   0.010  0.00  0.00    +0.007 C 
ATOM      8  C   UNK A   0       0.002  -0.004   0.002  0.00  0.00    -0.012 C 
ATOM      9  C   UNK A   0       0.718  -0.497  -1.257  0.00  0.00    +0.003 C 
ATOM     10  C   UNK A   0       0.739  -2.027  -1.265  0.00  0.00    +0.002 C 
ATOM     11  C   UNK A   0       1.479  -2.534  -0.026  0.00  0.00    +0.022 C 
ATOM     12  C   UNK A   0       0.763  -2.041   1.233  0.00  0.00    +0.075 C 
ATOM     13  C   UNK A   0       0.742  -0.511   1.242  0.00  0.00    +0.025 C 
ENDBRANCH   1  12
BRANCH   4  14
ATOM     14  CA  VAL A   1      -2.422  -5.578   2.274  0.00  0.00    +0.190 C 
BRANCH  14  15
ATOM     15  CB  VAL A   1      -3.874  -5.638   2.751  0.00  0.00    +0.014 C 
ATOM     16  CG1 VAL A   1      -4.171  -7.033   3.306  0.00  0.00    +0.009 C 
ATOM     17  CG2 VAL A   1      -4.095  -4.595   3.848  0.00  0.00    +0.009 C 
ENDBRANCH  14  15
BRANCH  14  18
ATOM     18  C   VAL A   1      -2.204  -6.606   1.194  0.00  0.00    +0.376 C 
ATOM     19  O   VAL A   1      -1.846  -7.733   1.488  0.00  0.00    -0.244 OA
ATOM     20  OXT VAL A   1      -2.386  -6.309   0.025  0.00  0.00    -0.244 OA
ENDBRANCH  14  18
ENDBRANCH   4  14
TORSDOF 4
