REMARK  Name = ZINC36346399
REMARK  15 active torsions:
REMARK  status: ('A' for Active; 'I' for Inactive)
REMARK    1  A    between atoms: C_1  and  C_2
REMARK    2  A    between atoms: C_2  and  C_3
REMARK    3  A    between atoms: C_3  and  C_4
REMARK    4  A    between atoms: C_4  and  C_5
REMARK    5  A    between atoms: C_5  and  C_7
REMARK    6  A    between atoms: C_5  and  O_37
REMARK    7  A    between atoms: C_7  and  N_8
REMARK    8  A    between atoms: N_8  and  C_9
REMARK    9  A    between atoms: N_8  and  C_30
REMARK   10  A    between atoms: C_9  and  C_10
REMARK   11  A    between atoms: C_11  and  C_29
REMARK   12  A    between atoms: N_13  and  C_23
REMARK   13  A    between atoms: C_14  and  O_15
REMARK   14  A    between atoms: O_15  and  C_16
REMARK   15  A    between atoms: C_30  and  C_31
REMARK                            x       y       z     vdW  Elec       q    Type
REMARK                         _______ _______ _______ _____ _____    ______ ____
ROOT
ATOM      1  C   UNL     1       3.603  -6.298  -5.256  0.00  0.00    +0.021 A 
ATOM      2  C   UNL     1       3.289  -6.344  -6.618  0.00  0.00    +0.065 A 
ATOM      3  N   UNL     1       4.394  -6.197  -7.303  0.00  0.00    -0.168 NA
ATOM      4  N   UNL     1       5.457  -6.052  -6.402  0.00  0.00    -0.200 N 
ATOM      5  C   UNL     1       4.945  -6.111  -5.143  0.00  0.00    +0.225 A 
ATOM      6  C   UNL     1       1.911  -6.532  -7.198  0.00  0.00    +0.068 C 
ENDROOT
BRANCH   4   7
ATOM      7  C   UNL     1       6.806  -5.871  -6.737  0.00  0.00    +0.069 A 
ATOM      8  C   UNL     1       7.602  -5.018  -5.985  0.00  0.00    +0.028 A 
ATOM      9  C   UNL     1       8.931  -4.842  -6.318  0.00  0.00    +0.002 A 
ATOM     10  C   UNL     1       9.469  -5.515  -7.399  0.00  0.00    +0.000 A 
ATOM     11  C   UNL     1       8.678  -6.365  -8.151  0.00  0.00    +0.002 A 
ATOM     12  C   UNL     1       7.350  -6.549  -7.820  0.00  0.00    +0.028 A 
ENDBRANCH   4   7
BRANCH   1  13
ATOM     13  C   UNL     1       2.626  -6.426  -4.116  0.00  0.00    -0.036 C 
BRANCH  13  14
ATOM     14  N   UNL     1       2.119  -5.096  -3.754  0.00  0.00    +0.386 N 
ATOM     15  H   UNL     1       2.892  -4.495  -3.511  0.00  0.00    -0.081 HD
BRANCH  14  16
ATOM     16  C   UNL     1       1.210  -5.214  -2.606  0.00  0.00    -0.047 C 
BRANCH  16  17
ATOM     17  C   UNL     1       2.006  -5.632  -1.367  0.00  0.00    +0.098 C 
BRANCH  17  18
ATOM     18  O   UNL     1       2.485  -6.968  -1.537  0.00  0.00    -0.394 OA
ATOM     19  H   UNL     1       1.786  -7.624  -1.661  0.00  0.00    +0.210 HD
ENDBRANCH  17  18
BRANCH  17  20
ATOM     20  C   UNL     1       1.102  -5.567  -0.135  0.00  0.00    +0.029 C 
BRANCH  20  21
ATOM     21  C   UNL     1       1.927  -5.864   1.119  0.00  0.00    +0.002 C 
BRANCH  21  23
ATOM     22  C   UNL     1       1.849  -6.096   3.606  0.00  0.00    +0.004 C 
ATOM     23  C   UNL     1       1.023  -5.799   2.352  0.00  0.00    -0.003 C 
ENDBRANCH  21  23
ENDBRANCH  20  21
ENDBRANCH  17  20
ENDBRANCH  16  17
ENDBRANCH  14  16
BRANCH  14  24
ATOM     24  C   UNL     1       1.393  -4.522  -4.895  0.00  0.00    -0.046 C 
BRANCH  24  25
ATOM     25  C   UNL     1       0.985  -3.084  -4.569  0.00  0.00    +0.102 C 
ATOM     26  C   UNL     1       0.156  -2.498  -5.732  0.00  0.00    +0.032 C 
ATOM     27  C   UNL     1       0.676  -1.037  -5.804  0.00  0.00    +0.030 C 
ATOM     28  C   UNL     1       2.162  -1.234  -5.412  0.00  0.00    +0.160 C 
ATOM     29  O   UNL     1       2.153  -2.270  -4.415  0.00  0.00    -0.378 OA
ENDBRANCH  24  25
ENDBRANCH  14  24
ENDBRANCH  13  14
ENDBRANCH   1  13
BRANCH   5  30
ATOM     30  O   UNL     1       5.646  -6.006  -3.986  0.00  0.00    -0.438 OA
BRANCH  30  31
ATOM     31  C   UNL     1       6.233  -7.127  -3.491  0.00  0.00    +0.133 A 
ATOM     32  C   UNL     1       6.199  -8.308  -4.219  0.00  0.00    +0.046 A 
ATOM     33  C   UNL     1       6.795  -9.447  -3.715  0.00  0.00    +0.006 A 
ATOM     34  C   UNL     1       7.426  -9.413  -2.485  0.00  0.00    +0.038 A 
ATOM     35  C   UNL     1       7.462  -8.237  -1.756  0.00  0.00    +0.127 A 
ATOM     36  C   UNL     1       6.871  -7.092  -2.260  0.00  0.00    +0.084 A 
ATOM     37  F   UNL     1       8.078  -8.206  -0.554  0.00  0.00    -0.205 F 
ENDBRANCH  30  31
ENDBRANCH   5  30
TORSDOF 13
