REMARK  Name = ZINC40076912
REMARK  9 active torsions:
REMARK  status: ('A' for Active; 'I' for Inactive)
REMARK    1  A    between atoms: C_6  and  C_7
REMARK    2  A    between atoms: C_7  and  C_9
REMARK    3  A    between atoms: N_13  and  C_24
REMARK    4  A    between atoms: C_14  and  C_16
REMARK    5  A    between atoms: C_24  and  C_25
REMARK    6  A    between atoms: C_25  and  O_26
REMARK    7  A    between atoms: O_26  and  C_27
REMARK    8  A    between atoms: C_27  and  C_28
REMARK    9  A    between atoms: C_28  and  O_29
REMARK                            x       y       z     vdW  Elec       q    Type
REMARK                         _______ _______ _______ _____ _____    ______ ____
ROOT
ATOM      1  C   UNL     1      -1.357  -2.247  -0.037  0.00  0.00    +0.076 C 
ATOM      2  C   UNL     1      -2.468  -3.015  -0.118  0.00  0.00    +0.249 C 
ATOM      3  C   UNL     1      -2.072  -4.438  -0.177  0.00  0.00    +0.288 C 
ATOM      4  O   UNL     1      -2.843  -5.374  -0.254  0.00  0.00    -0.266 OA
ATOM      5  N   UNL     1      -0.732  -4.544  -0.133  0.00  0.00    -0.281 N 
ATOM      6  C   UNL     1      -0.175  -3.188  -0.049  0.00  0.00    +0.145 C 
ATOM      7  O   UNL     1      -3.740  -2.554  -0.140  0.00  0.00    -0.282 OA
ENDROOT
BRANCH   6   8
ATOM      8  C   UNL     1       0.621  -3.036   1.222  0.00  0.00    -0.021 A 
ATOM      9  C   UNL     1       0.224  -3.698   2.369  0.00  0.00    +0.007 A 
ATOM     10  C   UNL     1       0.952  -3.560   3.535  0.00  0.00    +0.022 A 
ATOM     11  C   UNL     1       2.080  -2.758   3.555  0.00  0.00    +0.059 A 
ATOM     12  C   UNL     1       2.478  -2.096   2.407  0.00  0.00    +0.060 A 
ATOM     13  C   UNL     1       1.750  -2.240   1.239  0.00  0.00    +0.027 A 
ATOM     14 CL   UNL     1       3.892  -1.089   2.430  0.00  0.00    -0.082 Cl
ATOM     15 CL   UNL     1       2.995  -2.583   5.020  0.00  0.00    -0.082 Cl
ENDBRANCH   6   8
BRANCH   1  16
ATOM     16  C   UNL     1      -1.309  -0.784   0.040  0.00  0.00    +0.195 C 
ATOM     17  O   UNL     1      -1.735  -0.212   1.025  0.00  0.00    -0.287 OA
BRANCH  16  23
ATOM     18  C   UNL     1      -0.767   1.393  -1.046  0.00  0.00    +0.013 A 
ATOM     19  C   UNL     1      -0.237   2.115  -2.093  0.00  0.00    +0.016 A 
ATOM     20  C   UNL     1       0.322   1.460  -3.178  0.00  0.00    +0.018 A 
ATOM     21  C   UNL     1       0.350   0.075  -3.218  0.00  0.00    +0.016 A 
ATOM     22  C   UNL     1      -0.178  -0.659  -2.177  0.00  0.00    +0.013 A 
ATOM     23  C   UNL     1      -0.742  -0.003  -1.080  0.00  0.00    +0.022 A 
ATOM     24 BR   UNL     1       1.047   2.458  -4.610  0.00  0.00    -0.050 Br
ENDBRANCH  16  23
ENDBRANCH   1  16
BRANCH   5  25
ATOM     25  C   UNL     1       0.037  -5.790  -0.169  0.00  0.00    +0.137 C 
BRANCH  25  26
ATOM     26  C   UNL     1       0.357  -6.150  -1.621  0.00  0.00    +0.179 C 
BRANCH  26  27
ATOM     27  O   UNL     1       1.221  -5.158  -2.178  0.00  0.00    -0.376 OA
BRANCH  27  28
ATOM     28  C   UNL     1       1.584  -5.400  -3.539  0.00  0.00    +0.187 C 
BRANCH  28  29
ATOM     29  C   UNL     1       2.505  -4.281  -4.029  0.00  0.00    +0.184 C 
BRANCH  29  30
ATOM     30  O   UNL     1       3.732  -4.320  -3.297  0.00  0.00    -0.393 OA
ATOM     31  H   UNL     1       4.366  -3.637  -3.556  0.00  0.00    +0.209 HD
ENDBRANCH  29  30
ENDBRANCH  28  29
ENDBRANCH  27  28
ENDBRANCH  26  27
ENDBRANCH  25  26
ENDBRANCH   5  25
TORSDOF 9
