REMARK  Name = ZINC12624722
REMARK  7 active torsions:
REMARK  status: ('A' for Active; 'I' for Inactive)
REMARK    1  A    between atoms: C_1  and  O_2
REMARK    2  A    between atoms: O_2  and  C_3
REMARK    3  A    between atoms: C_8  and  C_9
REMARK    4  A    between atoms: C_15  and  C_28
REMARK    5  A    between atoms: C_17  and  C_20
REMARK    6  A    between atoms: C_20  and  C_22
REMARK    7  A    between atoms: C_32  and  N_34
REMARK                            x       y       z     vdW  Elec       q    Type
REMARK                         _______ _______ _______ _____ _____    ______ ____
ROOT
ATOM      1  C   UNL     1       6.432  -2.757  -2.827  0.00  0.00    +0.185 A 
ATOM      2  N   UNL     1       7.211  -3.519  -2.092  0.00  0.00    -0.127 NA
ATOM      3  N   UNL     1       7.257  -3.069  -0.885  0.00  0.00    -0.121 NA
ATOM      4  C   UNL     1       6.516  -1.999  -0.786  0.00  0.00    +0.210 A 
ATOM      5  N   UNL     1       5.956  -1.761  -2.010  0.00  0.00    -0.220 N 
ATOM      6  N   UNL     1       5.105  -0.755  -2.339  0.00  0.00    -0.272 N 
ATOM      7  C   UNL     1       5.179   0.397  -1.439  0.00  0.00    +0.139 C 
ATOM      8  C   UNL     1       4.845  -0.024  -0.002  0.00  0.00    +0.151 C 
ATOM      9  S   UNL     1       6.249  -0.988   0.637  0.00  0.00    -0.071 S 
ATOM     10  H   UNL     1       5.234  -0.472  -3.299  0.00  0.00    +0.167 HD
ENDROOT
BRANCH   7  11
ATOM     11  C   UNL     1       4.196   1.446  -1.891  0.00  0.00    -0.022 A 
ATOM     12  C   UNL     1       2.938   1.073  -2.326  0.00  0.00    +0.007 A 
ATOM     13  C   UNL     1       2.037   2.035  -2.741  0.00  0.00    +0.022 A 
ATOM     14  C   UNL     1       2.394   3.372  -2.721  0.00  0.00    +0.071 A 
ATOM     15  C   UNL     1       3.653   3.744  -2.285  0.00  0.00    +0.145 A 
ATOM     16  C   UNL     1       4.552   2.782  -1.865  0.00  0.00    +0.039 A 
ATOM     17 CL   UNL     1       1.262   4.581  -3.241  0.00  0.00    -0.081 Cl
BRANCH  15  18
ATOM     18  N   UNL     1       4.036   5.174  -2.264  0.00  0.00    +0.058 N 
ATOM     19  O   UNL     1       5.144   5.502  -1.880  0.00  0.00    -0.126 OA
ATOM     20  O   UNL     1       3.242   6.022  -2.630  0.00  0.00    -0.126 OA
ENDBRANCH  15  18
ENDBRANCH   7  11
BRANCH   1  26
ATOM     21  C   UNL     1       7.158  -3.190  -5.174  0.00  0.00    +0.131 A 
ATOM     22  C   UNL     1       6.861  -3.363  -6.516  0.00  0.00    +0.046 A 
ATOM     23  C   UNL     1       5.553  -3.277  -6.953  0.00  0.00    +0.004 A 
ATOM     24  C   UNL     1       4.531  -3.023  -6.054  0.00  0.00    +0.001 A 
ATOM     25  C   UNL     1       4.810  -2.854  -4.714  0.00  0.00    +0.015 A 
ATOM     26  C   UNL     1       6.127  -2.938  -4.261  0.00  0.00    +0.062 A 
BRANCH  21  28
ATOM     27  C   UNL     1       9.444  -3.528  -5.733  0.00  0.00    +0.277 C 
ATOM     28  O   UNL     1       8.445  -3.269  -4.745  0.00  0.00    -0.494 OA
ENDBRANCH  21  28
ENDBRANCH   1  26
BRANCH   8  29
ATOM     29  C   UNL     1       3.599  -0.872   0.006  0.00  0.00    +0.179 C 
ATOM     30  O   UNL     1       3.688  -2.081  -0.017  0.00  0.00    -0.291 OA
BRANCH  29  31
ATOM     31  C   UNL     1       2.274  -0.231   0.040  0.00  0.00    +0.019 A 
ATOM     32  C   UNL     1       1.115  -1.014   0.047  0.00  0.00    +0.011 A 
ATOM     33  C   UNL     1      -0.122  -0.407   0.079  0.00  0.00    +0.001 A 
ATOM     34  C   UNL     1      -0.219   0.974   0.104  0.00  0.00    +0.000 A 
ATOM     35  C   UNL     1       0.923   1.755   0.097  0.00  0.00    +0.001 A 
ATOM     36  C   UNL     1       2.168   1.163   0.066  0.00  0.00    +0.011 A 
ENDBRANCH  29  31
ENDBRANCH   8  29
TORSDOF 6
