REMARK  Name = ZINC02086901
REMARK  11 active torsions:
REMARK  status: ('A' for Active; 'I' for Inactive)
REMARK    1  A    between atoms: C_1  and  C_2
REMARK    2  A    between atoms: C_2  and  C_3
REMARK    3  A    between atoms: C_3  and  S_4
REMARK    4  A    between atoms: S_4  and  C_5
REMARK    5  A    between atoms: C_18  and  C_21
REMARK    6  A    between atoms: C_24  and  O_30
REMARK    7  A    between atoms: C_25  and  O_27
REMARK    8  A    between atoms: O_27  and  C_28
REMARK    9  A    between atoms: C_28  and  C_29
REMARK   10  A    between atoms: O_30  and  C_31
REMARK   11  A    between atoms: C_31  and  C_32
REMARK                            x       y       z     vdW  Elec       q    Type
REMARK                         _______ _______ _______ _____ _____    ______ ____
ROOT
ATOM      1  C   UNL     1       0.214   0.949   2.734  0.00  0.00    +0.212 A 
ATOM      2  N   UNL     1      -0.073   1.155   4.017  0.00  0.00    -0.184 NA
ATOM      3  C   UNL     1       0.692   0.607   4.946  0.00  0.00    +0.248 A 
ATOM      4  C   UNL     1       1.790  -0.185   4.542  0.00  0.00    +0.156 A 
ATOM      5  N   UNL     1       2.022  -0.348   3.249  0.00  0.00    -0.141 NA
ATOM      6  N   UNL     1       1.250   0.201   2.376  0.00  0.00    -0.122 NA
ATOM      7  C   UNL     1       2.649  -0.817   5.565  0.00  0.00    +0.028 A 
ATOM      8  C   UNL     1       4.035  -0.740   5.500  0.00  0.00    +0.012 A 
ATOM      9  C   UNL     1       4.802  -1.355   6.470  0.00  0.00    +0.001 A 
ATOM     10  C   UNL     1       4.200  -2.050   7.505  0.00  0.00    +0.002 A 
ATOM     11  C   UNL     1       2.821  -2.130   7.584  0.00  0.00    +0.024 A 
ATOM     12  C   UNL     1       2.039  -1.513   6.625  0.00  0.00    +0.039 A 
ATOM     13  N   UNL     1       0.643  -1.544   6.694  0.00  0.00    -0.305 N 
ATOM     14  C   UNL     1      -0.074  -0.309   6.997  0.00  0.00    +0.294 C 
ATOM     15  O   UNL     1       0.444   0.795   6.264  0.00  0.00    -0.449 OA
ATOM     16  H   UNL     1       0.159  -2.372   6.544  0.00  0.00    +0.150 HD
ENDROOT
BRANCH  14  17
ATOM     17  C   UNL     1       0.047  -0.020   8.471  0.00  0.00    +0.015 A 
ATOM     18  C   UNL     1      -0.021  -1.055   9.385  0.00  0.00    +0.013 A 
ATOM     19  C   UNL     1       0.095  -0.796  10.738  0.00  0.00    +0.050 A 
ATOM     20  C   UNL     1       0.267   0.505  11.181  0.00  0.00    +0.163 A 
ATOM     21  C   UNL     1       0.330   1.548  10.262  0.00  0.00    +0.162 A 
ATOM     22  C   UNL     1       0.219   1.281   8.907  0.00  0.00    +0.058 A 
BRANCH  21  23
ATOM     23  O   UNL     1       0.500   2.827  10.692  0.00  0.00    -0.489 OA
BRANCH  23  24
ATOM     24  C   UNL     1       0.555   3.846   9.692  0.00  0.00    +0.226 C 
ATOM     25  C   UNL     1       0.749   5.208  10.362  0.00  0.00    +0.048 C 
ENDBRANCH  23  24
ENDBRANCH  21  23
BRANCH  20  26
ATOM     26  O   UNL     1       0.375   0.763  12.512  0.00  0.00    -0.477 OA
BRANCH  26  27
ATOM     27  C   UNL     1       0.302  -0.356  13.398  0.00  0.00    +0.354 C 
BRANCH  27  28
ATOM     28  C   UNL     1       0.440   0.119  14.821  0.00  0.00    +0.393 C 
ATOM     29  O   UNL     1       0.586   1.296  15.053  0.00  0.00    -0.243 OA
ATOM     30  O   UNL     1       0.401  -0.764  15.831  0.00  0.00    -0.243 OA
ENDBRANCH  27  28
ENDBRANCH  26  27
ENDBRANCH  20  26
ENDBRANCH  14  17
BRANCH   1  31
ATOM     31  S   UNL     1      -0.802   1.675   1.491  0.00  0.00    -0.084 S 
BRANCH  31  32
ATOM     32  C   UNL     1       0.040   1.073   0.006  0.00  0.00    +0.077 C 
BRANCH  32  34
ATOM     33  C   UNL     1       0.025   1.083  -2.492  0.00  0.00    +0.004 C 
ATOM     34  C   UNL     1      -0.686   1.592  -1.237  0.00  0.00    +0.008 C 
ENDBRANCH  32  34
ENDBRANCH  31  32
ENDBRANCH   1  31
TORSDOF 9
