REMARK  Name = ZINC40869985
REMARK  12 active torsions:
REMARK  status: ('A' for Active; 'I' for Inactive)
REMARK    1  A    between atoms: C_1  and  C_2
REMARK    2  A    between atoms: C_4  and  C_11
REMARK    3  A    between atoms: C_7  and  N_8
REMARK    4  A    between atoms: C_11  and  O_13
REMARK    5  A    between atoms: O_13  and  C_14
REMARK    6  A    between atoms: C_17  and  C_22
REMARK    7  A    between atoms: C_19  and  O_20
REMARK    8  A    between atoms: O_20  and  C_21
REMARK    9  A    between atoms: C_23  and  C_24
REMARK   10  A    between atoms: C_23  and  C_26
REMARK   11  A    between atoms: N_28  and  C_29
REMARK   12  A    between atoms: C_29  and  C_30
REMARK                            x       y       z     vdW  Elec       q    Type
REMARK                         _______ _______ _______ _____ _____    ______ ____
ROOT
ATOM      1  C   UNL     1       0.071  -4.811  -3.720  0.00  0.00    +0.173 A 
ATOM      2  C   UNL     1      -0.005  -4.021  -4.861  0.00  0.00    +0.051 A 
ATOM      3  C   UNL     1       0.062  -4.599  -6.108  0.00  0.00    +0.012 A 
ATOM      4  C   UNL     1       0.206  -5.989  -6.229  0.00  0.00    -0.020 A 
ATOM      5  C   UNL     1       0.283  -6.784  -5.077  0.00  0.00    +0.057 A 
ATOM      6  C   UNL     1       0.220  -6.193  -3.831  0.00  0.00    +0.163 A 
ENDROOT
BRANCH   6   7
ATOM      7  O   UNL     1       0.298  -6.961  -2.711  0.00  0.00    -0.491 OA
ATOM      8  C   UNL     1       0.451  -8.369  -2.898  0.00  0.00    +0.277 C 
ENDBRANCH   6   7
BRANCH   4   9
ATOM      9  C   UNL     1       0.277  -6.607  -7.555  0.00  0.00    +0.032 C 
ATOM     10  C   UNL     1       0.780  -5.895  -8.621  0.00  0.00    +0.114 C 
BRANCH  10  11
ATOM     11  C   UNL     1       0.714  -6.459  -9.979  0.00  0.00    +0.255 C 
ATOM     12  O   UNL     1       0.215  -7.553 -10.160  0.00  0.00    -0.269 OA
ATOM     13  N   UNL     1       1.207  -5.762 -11.022  0.00  0.00    -0.307 N 
ATOM     14  H   UNL     1       1.605  -4.890 -10.878  0.00  0.00    +0.149 HD
BRANCH  13  15
ATOM     15  C   UNL     1       1.141  -6.323 -12.374  0.00  0.00    +0.139 C 
BRANCH  15  16
ATOM     16  C   UNL     1       1.755  -5.354 -13.351  0.00  0.00    -0.030 A 
ATOM     17  C   UNL     1       0.969  -4.391 -13.956  0.00  0.00    +0.005 A 
ATOM     18  C   UNL     1       1.532  -3.501 -14.852  0.00  0.00    +0.000 A 
ATOM     19  C   UNL     1       2.882  -3.574 -15.142  0.00  0.00    +0.000 A 
ATOM     20  C   UNL     1       3.668  -4.537 -14.536  0.00  0.00    +0.000 A 
ATOM     21  C   UNL     1       3.106  -5.423 -13.637  0.00  0.00    +0.005 A 
ENDBRANCH  15  16
ENDBRANCH  13  15
ENDBRANCH  10  11
BRANCH  10  22
ATOM     22  C   UNL     1       1.368  -4.607  -8.408  0.00  0.00    +0.104 C 
ATOM     23  N   UNL     1       1.835  -3.585  -8.240  0.00  0.00    -0.191 NA
ENDBRANCH  10  22
ENDBRANCH   4   9
BRANCH   1  24
ATOM     24  O   UNL     1       0.004  -4.234  -2.492  0.00  0.00    -0.419 OA
BRANCH  24  25
ATOM     25  C   UNL     1       1.160  -4.008  -1.836  0.00  0.00    +0.345 C 
ATOM     26  O   UNL     1       2.222  -4.231  -2.382  0.00  0.00    -0.245 OA
BRANCH  25  30
ATOM     27  C   UNL     1       3.587  -2.519   2.260  0.00  0.00    +0.046 C 
ATOM     28  C   UNL     1       2.299  -2.772   1.522  0.00  0.00    -0.019 A 
ATOM     29  C   UNL     1       2.329  -3.256   0.230  0.00  0.00    +0.020 A 
ATOM     30  C   UNL     1       1.134  -3.491  -0.453  0.00  0.00    +0.060 A 
ATOM     31  C   UNL     1      -0.085  -3.233   0.178  0.00  0.00    +0.017 A 
ATOM     32  C   UNL     1      -0.101  -2.750   1.469  0.00  0.00    +0.034 A 
ATOM     33  C   UNL     1       1.087  -2.524   2.142  0.00  0.00    +0.129 A 
BRANCH  33  34
ATOM     34  N   UNL     1       1.062  -2.010   3.530  0.00  0.00    +0.057 N 
ATOM     35  O   UNL     1       1.942  -2.311   4.302  0.00  0.00    -0.126 OA
ATOM     36  O   UNL     1       0.161  -1.290   3.892  0.00  0.00    -0.126 OA
ENDBRANCH  33  34
ENDBRANCH  25  30
ENDBRANCH  24  25
ENDBRANCH   1  24
TORSDOF 10
