REMARK  Name = ZINC01755995
REMARK  8 active torsions:
REMARK  status: ('A' for Active; 'I' for Inactive)
REMARK    1  A    between atoms: C_1  and  C_2
REMARK    2  A    between atoms: C_5  and  C_8
REMARK    3  A    between atoms: C_11  and  C_34
REMARK    4  A    between atoms: C_13  and  C_28
REMARK    5  A    between atoms: C_14  and  C_15
REMARK    6  A    between atoms: N_16  and  C_17
REMARK    7  A    between atoms: C_17  and  C_18
REMARK    8  A    between atoms: C_18  and  C_19
REMARK                            x       y       z     vdW  Elec       q    Type
REMARK                         _______ _______ _______ _____ _____    ______ ____
ROOT
ATOM      1  C   UNL     1       0.218  -3.871  -0.574  0.00  0.00    +0.080 C 
ATOM      2  C   UNL     1      -1.102  -3.585   0.086  0.00  0.00    +0.033 C 
ATOM      3  C   UNL     1      -1.234  -3.608   1.405  0.00  0.00    +0.133 C 
ATOM      4  O   UNL     1      -0.195  -3.889   2.223  0.00  0.00    -0.455 OA
ATOM      5  C   UNL     1       0.894  -4.512   1.731  0.00  0.00    +0.141 C 
ATOM      6  C   UNL     1       1.147  -4.538   0.403  0.00  0.00    +0.022 C 
ENDROOT
BRANCH   1  11
ATOM      7  C   UNL     1       2.570   1.089  -2.379  0.00  0.00    +0.044 C 
ATOM      8  C   UNL     1       1.957  -0.204  -1.908  0.00  0.00    -0.050 A 
ATOM      9  C   UNL     1       1.664  -1.202  -2.819  0.00  0.00    +0.003 A 
ATOM     10  C   UNL     1       1.101  -2.389  -2.387  0.00  0.00    +0.005 A 
ATOM     11  C   UNL     1       0.832  -2.578  -1.045  0.00  0.00    -0.036 A 
ATOM     12  C   UNL     1       1.126  -1.580  -0.134  0.00  0.00    +0.005 A 
ATOM     13  C   UNL     1       1.692  -0.395  -0.565  0.00  0.00    +0.003 A 
ENDBRANCH   1  11
BRANCH   5  14
ATOM     14  C   UNL     1       1.829  -5.177   2.660  0.00  0.00    +0.018 A 
ATOM     15  C   UNL     1       3.192  -4.876   2.619  0.00  0.00    +0.011 A 
ATOM     16  C   UNL     1       4.060  -5.501   3.490  0.00  0.00    +0.001 A 
ATOM     17  C   UNL     1       3.583  -6.425   4.403  0.00  0.00    +0.000 A 
ATOM     18  C   UNL     1       2.233  -6.729   4.449  0.00  0.00    +0.001 A 
ATOM     19  C   UNL     1       1.354  -6.107   3.588  0.00  0.00    +0.011 A 
ENDBRANCH   5  14
BRANCH   3  20
ATOM     20  C   UNL     1      -2.558  -3.317   1.999  0.00  0.00    +0.017 A 
ATOM     21  C   UNL     1      -3.647  -3.029   1.177  0.00  0.00    +0.011 A 
ATOM     22  C   UNL     1      -4.878  -2.758   1.737  0.00  0.00    +0.001 A 
ATOM     23  C   UNL     1      -5.034  -2.772   3.111  0.00  0.00    +0.000 A 
ATOM     24  C   UNL     1      -3.958  -3.056   3.933  0.00  0.00    +0.001 A 
ATOM     25  C   UNL     1      -2.722  -3.334   3.384  0.00  0.00    +0.011 A 
ENDBRANCH   3  20
BRANCH   6  26
ATOM     26  C   UNL     1       2.299  -5.202  -0.071  0.00  0.00    +0.086 C 
ATOM     27  N   UNL     1       2.590  -5.175  -1.340  0.00  0.00    -0.390 N 
ATOM     28  H   UNL     1       1.981  -4.757  -1.969  0.00  0.00    +0.159 HD
BRANCH  27  29
ATOM     29  C   UNL     1       3.838  -5.774  -1.818  0.00  0.00    +0.117 C 
BRANCH  29  30
ATOM     30  C   UNL     1       3.518  -6.962  -2.729  0.00  0.00    +0.058 C 
BRANCH  30  31
ATOM     31  C   UNL     1       4.795  -7.501  -3.319  0.00  0.00    -0.021 A 
ATOM     32  C   UNL     1       5.701  -8.471  -2.699  0.00  0.00    +0.003 A 
ATOM     33  C   UNL     1       5.701  -9.158  -1.484  0.00  0.00    +0.010 A 
ATOM     34  C   UNL     1       6.721 -10.021  -1.193  0.00  0.00    +0.001 A 
ATOM     35  C   UNL     1       7.757 -10.218  -2.095  0.00  0.00    +0.002 A 
ATOM     36  C   UNL     1       7.776  -9.550  -3.300  0.00  0.00    +0.026 A 
ATOM     37  C   UNL     1       6.748  -8.668  -3.617  0.00  0.00    +0.047 A 
ATOM     38  N   UNL     1       6.486  -7.871  -4.709  0.00  0.00    -0.360 N 
ATOM     39  C   UNL     1       5.316  -7.188  -4.516  0.00  0.00    +0.087 A 
ATOM     40  H   UNL     1       7.045  -7.807  -5.499  0.00  0.00    +0.165 HD
ENDBRANCH  30  31
ENDBRANCH  29  30
ENDBRANCH  27  29
ENDBRANCH   6  26
TORSDOF 7
