REMARK  Name = ZINC64198608
REMARK  10 active torsions:
REMARK  status: ('A' for Active; 'I' for Inactive)
REMARK    1  A    between atoms: C_7  and  C_10
REMARK    2  A    between atoms: C_10  and  C_11
REMARK    3  A    between atoms: C_11  and  C_12
REMARK    4  A    between atoms: C_12  and  O_14
REMARK    5  A    between atoms: O_14  and  C_15
REMARK    6  A    between atoms: C_15  and  C_16
REMARK    7  A    between atoms: C_16  and  C_18
REMARK    8  A    between atoms: C_21  and  O_24
REMARK    9  A    between atoms: O_24  and  C_25
REMARK   10  A    between atoms: C_26  and  N_32
REMARK                            x       y       z     vdW  Elec       q    Type
REMARK                         _______ _______ _______ _____ _____    ______ ____
ROOT
ATOM      1  C   UNL     1      -2.009  -7.039  -3.930  0.00  0.00    +0.200 C 
ATOM      2  O   UNL     1      -1.491  -6.508  -4.890  0.00  0.00    -0.288 OA
ENDROOT
BRANCH   1   3
ATOM      3  C   UNL     1      -2.907  -8.185  -4.121  0.00  0.00    +0.021 A 
ATOM      4  C   UNL     1      -3.510  -8.796  -3.014  0.00  0.00    +0.015 A 
ATOM      5  C   UNL     1      -4.348  -9.866  -3.197  0.00  0.00    +0.047 A 
ATOM      6  C   UNL     1      -4.599 -10.345  -4.479  0.00  0.00    +0.129 A 
ATOM      7  C   UNL     1      -4.002  -9.742  -5.581  0.00  0.00    +0.047 A 
ATOM      8  C   UNL     1      -3.167  -8.668  -5.410  0.00  0.00    +0.015 A 
BRANCH   6   9
ATOM      9  O   UNL     1      -5.428 -11.404  -4.655  0.00  0.00    -0.452 OA
BRANCH   9  10
ATOM     10  C   UNL     1      -5.646 -11.840  -5.924  0.00  0.00    +0.177 A 
ATOM     11  C   UNL     1      -6.688 -11.311  -6.671  0.00  0.00    +0.170 A 
ATOM     12  C   UNL     1      -6.907 -11.756  -7.960  0.00  0.00    +0.036 A 
ATOM     13  C   UNL     1      -6.089 -12.727  -8.507  0.00  0.00    +0.004 A 
ATOM     14  C   UNL     1      -5.050 -13.257  -7.765  0.00  0.00    +0.024 A 
ATOM     15  C   UNL     1      -4.822 -12.812  -6.476  0.00  0.00    +0.085 A 
ATOM     16 CL   UNL     1      -3.512 -13.471  -5.547  0.00  0.00    -0.080 Cl
BRANCH  11  17
ATOM     17  N   UNL     1      -7.565 -10.271  -6.087  0.00  0.00    +0.060 N 
ATOM     18  O   UNL     1      -8.473  -9.811  -6.739  0.00  0.00    -0.126 OA
ATOM     19  O   UNL     1      -7.373  -9.883  -4.958  0.00  0.00    -0.126 OA
ENDBRANCH  11  17
ENDBRANCH   9  10
ENDBRANCH   6   9
ENDBRANCH   1   3
BRANCH   1  20
ATOM     20  C   UNL     1      -1.731  -6.522  -2.542  0.00  0.00    +0.311 C 
BRANCH  20  21
ATOM     21  O   UNL     1      -0.836  -5.411  -2.619  0.00  0.00    -0.457 OA
BRANCH  21  22
ATOM     22  C   UNL     1      -0.484  -4.830  -1.460  0.00  0.00    +0.308 C 
ATOM     23  O   UNL     1      -0.923  -5.252  -0.416  0.00  0.00    -0.251 OA
BRANCH  22  24
ATOM     24  C   UNL     1       0.457  -3.653  -1.462  0.00  0.00    +0.125 C 
BRANCH  24  25
ATOM     25  C   UNL     1       0.691  -3.186  -0.024  0.00  0.00    +0.044 C 
BRANCH  25  32
ATOM     26  C   UNL     1      -0.016   1.348   0.009  0.00  0.00    +0.001 A 
ATOM     27  C   UNL     1       1.166   2.101   0.002  0.00  0.00    +0.002 A 
ATOM     28  C   UNL     1       2.391   1.535  -0.013  0.00  0.00    +0.026 A 
ATOM     29  C   UNL     1       2.529   0.120  -0.022  0.00  0.00    +0.043 A 
ATOM     30  N   UNL     1       3.587  -0.654  -0.037  0.00  0.00    -0.380 N 
ATOM     31  C   UNL     1       3.143  -2.053  -0.041  0.00  0.00    +0.144 C 
ATOM     32  C   UNL     1       1.631  -2.008  -0.025  0.00  0.00    -0.041 C 
ATOM     33  C   UNL     1       1.295  -0.698  -0.014  0.00  0.00    -0.001 A 
ATOM     34  C   UNL     1       0.002  -0.004   0.002  0.00  0.00    +0.010 A 
ATOM     35  H   UNL     1       4.509  -0.353  -0.045  0.00  0.00    +0.160 HD
ENDBRANCH  25  32
ENDBRANCH  24  25
ENDBRANCH  22  24
ENDBRANCH  21  22
ENDBRANCH  20  21
ENDBRANCH   1  20
TORSDOF 10
