REMARK  Name = ZINC10151603
REMARK  12 active torsions:
REMARK  status: ('A' for Active; 'I' for Inactive)
REMARK    1  A    between atoms: C_1  and  C_2
REMARK    2  A    between atoms: C_2  and  C_3
REMARK    3  A    between atoms: C_3  and  C_4
REMARK    4  A    between atoms: C_4  and  C_6
REMARK    5  A    between atoms: C_4  and  N_71
REMARK    6  A    between atoms: C_16  and  C_17
REMARK    7  A    between atoms: C_17  and  O_18
REMARK    8  A    between atoms: O_18  and  C_19
REMARK    9  A    between atoms: C_25  and  C_26
REMARK   10  A    between atoms: C_25  and  N_71
REMARK   11  A    between atoms: C_32  and  C_33
REMARK   12  A    between atoms: C_32  and  N_71
REMARK                            x       y       z     vdW  Elec       q    Type
REMARK                         _______ _______ _______ _____ _____    ______ ____
ROOT
ATOM      1  C   UNL     1       4.558  -0.094   2.224  0.00  0.00    +0.023 C 
ENDROOT
BRANCH   1   2
ATOM      2  C   UNL     1       5.678  -1.102   2.163  0.00  0.00    +0.220 C 
ATOM      3  O   UNL     1       6.553  -1.083   2.996  0.00  0.00    -0.274 OA
ATOM      4  N   UNL     1       5.703  -2.023   1.180  0.00  0.00    -0.265 N 
ATOM      5  C   UNL     1       6.372  -1.919  -0.030  0.00  0.00    +0.076 A 
ATOM      6  C   UNL     1       7.169  -0.944  -0.609  0.00  0.00    +0.028 A 
ATOM      7  C   UNL     1       7.696  -1.147  -1.868  0.00  0.00    +0.002 A 
ATOM      8  C   UNL     1       7.433  -2.322  -2.558  0.00  0.00    +0.002 A 
ATOM      9  C   UNL     1       6.644  -3.300  -1.997  0.00  0.00    +0.030 A 
ATOM     10  C   UNL     1       6.103  -3.110  -0.723  0.00  0.00    +0.090 A 
ATOM     11  N   UNL     1       5.308  -3.868   0.077  0.00  0.00    -0.228 NA
ATOM     12  C   UNL     1       5.075  -3.240   1.190  0.00  0.00    +0.155 A 
BRANCH  12  13
ATOM     13  C   UNL     1       4.232  -3.768   2.322  0.00  0.00    +0.303 C 
BRANCH  13  14
ATOM     14  O   UNL     1       5.035  -4.595   3.167  0.00  0.00    -0.484 OA
BRANCH  14  15
ATOM     15  C   UNL     1       4.423  -5.155   4.243  0.00  0.00    +0.121 A 
ATOM     16  C   UNL     1       5.142  -5.969   5.106  0.00  0.00    +0.045 A 
ATOM     17  C   UNL     1       4.518  -6.537   6.200  0.00  0.00    +0.004 A 
ATOM     18  C   UNL     1       3.177  -6.295   6.435  0.00  0.00    +0.000 A 
ATOM     19  C   UNL     1       2.458  -5.484   5.577  0.00  0.00    +0.004 A 
ATOM     20  C   UNL     1       3.077  -4.914   4.481  0.00  0.00    +0.045 A 
ENDBRANCH  14  15
ENDBRANCH  13  14
ENDBRANCH  12  13
ENDBRANCH   1   2
BRANCH   1  21
ATOM     21  N   UNL     1       4.485   0.462   3.591  0.00  0.00    +0.393 N 
ATOM     22  H   UNL     1       5.354   0.971   3.791  0.00  0.00    -0.080 HD
BRANCH  21  23
ATOM     23  C   UNL     1       3.345   1.399   3.694  0.00  0.00    -0.041 C 
BRANCH  23  24
ATOM     24  C   UNL     1       2.077   0.742   3.215  0.00  0.00    -0.064 A 
ATOM     25  C   UNL     1       1.768   0.736   1.867  0.00  0.00    +0.002 A 
ATOM     26  C   UNL     1       0.607   0.129   1.427  0.00  0.00    +0.000 A 
ATOM     27  C   UNL     1      -0.251  -0.463   2.336  0.00  0.00    +0.000 A 
ATOM     28  C   UNL     1       0.055  -0.453   3.683  0.00  0.00    +0.000 A 
ATOM     29  C   UNL     1       1.219   0.150   4.123  0.00  0.00    +0.002 A 
ENDBRANCH  23  24
ENDBRANCH  21  23
BRANCH  21  30
ATOM     30  C   UNL     1       4.331  -0.631   4.574  0.00  0.00    -0.041 C 
BRANCH  30  31
ATOM     31  C   UNL     1       4.682  -0.104   5.941  0.00  0.00    -0.064 A 
ATOM     32  C   UNL     1       6.003  -0.048   6.343  0.00  0.00    +0.002 A 
ATOM     33  C   UNL     1       6.325   0.441   7.595  0.00  0.00    +0.000 A 
ATOM     34  C   UNL     1       5.324   0.863   8.450  0.00  0.00    +0.000 A 
ATOM     35  C   UNL     1       4.003   0.802   8.051  0.00  0.00    +0.000 A 
ATOM     36  C   UNL     1       3.681   0.319   6.796  0.00  0.00    +0.002 A 
ENDBRANCH  30  31
ENDBRANCH  21  30
ENDBRANCH   1  21
BRANCH   1  37
ATOM     37  C   UNL     1       4.842   1.043   1.240  0.00  0.00    -0.006 C 
BRANCH  37  39
ATOM     38  C   UNL     1       6.457   2.846   0.622  0.00  0.00    +0.004 C 
ATOM     39  C   UNL     1       6.210   1.655   1.550  0.00  0.00    -0.004 C 
ENDBRANCH  37  39
ENDBRANCH   1  37
TORSDOF 11
