REMARK  Name = ZINC65404354
REMARK  7 active torsions:
REMARK  status: ('A' for Active; 'I' for Inactive)
REMARK    1  A    between atoms: C_4  and  C_7
REMARK    2  A    between atoms: C_7  and  C_9
REMARK    3  A    between atoms: C_7  and  N_17
REMARK    4  A    between atoms: C_13  and  N_16
REMARK    5  A    between atoms: C_18  and  C_20
REMARK    6  A    between atoms: C_20  and  C_21
REMARK    7  A    between atoms: C_21  and  C_22
REMARK                            x       y       z     vdW  Elec       q    Type
REMARK                         _______ _______ _______ _____ _____    ______ ____
ROOT
ATOM      1  C   UNL     1       3.711  -0.707  -0.038  0.00  0.00    +0.131 C 
ENDROOT
BRANCH   1   2
ATOM      2  C   UNL     1       4.019  -1.168  -1.464  0.00  0.00    +0.150 C 
ATOM      3  N   UNL     1       5.267  -1.993  -1.514  0.00  0.00    -0.242 NA
ATOM      4  N   UNL     1       5.269  -2.821  -2.715  0.00  0.00    -0.260 NA
ATOM      5  C   UNL     1       3.988  -3.564  -2.876  0.00  0.00    +0.070 C 
ATOM      6  S   UNL     1       2.800  -2.426  -2.043  0.00  0.00    -0.139 S 
ATOM      7  H   UNL     1       5.360  -2.559  -0.684  0.00  0.00    +0.142 HD
ATOM      8  H   UNL     1       6.056  -3.452  -2.717  0.00  0.00    +0.140 HD
BRANCH   5   9
ATOM      9  N   UNL     1       3.651  -3.732  -4.296  0.00  0.00    +0.395 N 
ATOM     10  H   UNL     1       4.373  -4.269  -4.752  0.00  0.00    -0.086 HD
ATOM     11  H   UNL     1       2.769  -4.216  -4.378  0.00  0.00    -0.086 HD
ATOM     12  H   UNL     1       3.579  -2.825  -4.734  0.00  0.00    -0.086 HD
ENDBRANCH   5   9
ENDBRANCH   1   2
BRANCH   1  16
ATOM     13  C   UNL     1      -0.017   1.378   0.010  0.00  0.00    +0.000 A 
ATOM     14  C   UNL     1       1.171   2.086   0.002  0.00  0.00    +0.000 A 
ATOM     15  C   UNL     1       2.377   1.411  -0.013  0.00  0.00    +0.005 A 
ATOM     16  C   UNL     1       2.396   0.029  -0.020  0.00  0.00    -0.025 A 
ATOM     17  C   UNL     1       1.208  -0.679  -0.012  0.00  0.00    +0.005 A 
ATOM     18  C   UNL     1       0.002  -0.004   0.002  0.00  0.00    +0.000 A 
ENDBRANCH   1  16
BRANCH   1  19
ATOM     19  N   UNL     1       3.630  -1.873   0.845  0.00  0.00    -0.306 N 
ATOM     20  C   UNL     1       3.871  -1.738   2.164  0.00  0.00    +0.214 C 
ATOM     21  O   UNL     1       4.155  -0.651   2.621  0.00  0.00    -0.276 OA
ATOM     22  H   UNL     1       3.403  -2.743   0.480  0.00  0.00    +0.149 HD
BRANCH  20  23
ATOM     23  C   UNL     1       3.788  -2.938   3.073  0.00  0.00    +0.100 C 
BRANCH  23  24
ATOM     24  C   UNL     1       4.103  -2.513   4.508  0.00  0.00    +0.042 C 
BRANCH  24  25
ATOM     25  C   UNL     1       4.019  -3.713   5.417  0.00  0.00    -0.041 C 
ATOM     26  C   UNL     1       5.042  -4.504   5.815  0.00  0.00    -0.001 A 
ATOM     27  C   UNL     1       6.482  -4.486   5.532  0.00  0.00    +0.010 A 
ATOM     28  C   UNL     1       7.272  -5.432   6.088  0.00  0.00    +0.001 A 
ATOM     29  C   UNL     1       6.751  -6.428   6.926  0.00  0.00    +0.002 A 
ATOM     30  C   UNL     1       5.439  -6.510   7.233  0.00  0.00    +0.026 A 
ATOM     31  C   UNL     1       4.517  -5.566   6.703  0.00  0.00    +0.043 A 
ATOM     32  N   UNL     1       3.220  -5.436   6.848  0.00  0.00    -0.380 N 
ATOM     33  C   UNL     1       2.777  -4.272   6.073  0.00  0.00    +0.144 C 
ATOM     34  H   UNL     1       2.650  -6.010   7.383  0.00  0.00    +0.160 HD
ENDBRANCH  24  25
ENDBRANCH  23  24
ENDBRANCH  20  23
ENDBRANCH   1  19
TORSDOF 7
