REMARK  Name = ZINC07380281
REMARK  5 active torsions:
REMARK  status: ('A' for Active; 'I' for Inactive)
REMARK    1  A    between atoms: C_1  and  C_2
REMARK    2  A    between atoms: C_10  and  C_11
REMARK    3  A    between atoms: N_13  and  N_14
REMARK    4  A    between atoms: N_14  and  S_15
REMARK    5  A    between atoms: S_15  and  C_18
REMARK                            x       y       z     vdW  Elec       q    Type
REMARK                         _______ _______ _______ _____ _____    ______ ____
ROOT
ATOM      1  N   UNL     1       1.048   8.184   1.616  0.00  0.00    -0.108 NA
ATOM      2  H   UNL     1       0.317   8.717   1.964  0.00  0.00    +0.172 HD
ENDROOT
BRANCH   1   5
ATOM      3  C   UNL     1       2.799   8.771   3.119  0.00  0.00    +0.294 C 
ATOM      4  O   UNL     1       2.495   9.942   2.993  0.00  0.00    -0.265 OA
ATOM      5  N   UNL     1       2.112   7.821   2.452  0.00  0.00    -0.225 N 
ATOM      6  H   UNL     1       2.354   6.887   2.553  0.00  0.00    +0.171 HD
BRANCH   3  16
ATOM      7  C   UNL     1       4.547  10.759   4.751  0.00  0.00    +0.048 C 
ATOM      8  C   UNL     1       4.678   9.258   4.710  0.00  0.00    +0.008 A 
ATOM      9  C   UNL     1       5.652   8.441   5.432  0.00  0.00    +0.024 A 
ATOM     10  C   UNL     1       6.694   8.723   6.319  0.00  0.00    +0.012 A 
ATOM     11  C   UNL     1       7.445   7.702   6.830  0.00  0.00    +0.001 A 
ATOM     12  C   UNL     1       7.180   6.388   6.471  0.00  0.00    +0.004 A 
ATOM     13  C   UNL     1       6.158   6.087   5.598  0.00  0.00    +0.047 A 
ATOM     14  C   UNL     1       5.380   7.109   5.066  0.00  0.00    +0.136 A 
ATOM     15  O   UNL     1       4.339   7.128   4.211  0.00  0.00    -0.450 OA
ATOM     16  C   UNL     1       3.915   8.390   3.996  0.00  0.00    +0.195 A 
ENDBRANCH   3  16
ENDBRANCH   1   5
BRANCH   1  17
ATOM     17  S   UNL     1       1.040   7.702   0.031  0.00  0.00    +0.074 S 
ATOM     18  O   UNL     1       2.275   8.128  -0.529  0.00  0.00    -0.152 OA
ATOM     19  O   UNL     1      -0.216   8.094  -0.506  0.00  0.00    -0.152 OA
BRANCH  17  20
ATOM     20  C   UNL     1       1.064   5.940   0.022  0.00  0.00    +0.107 A 
ATOM     21  C   UNL     1       2.286   5.270   0.008  0.00  0.00    +0.029 A 
ATOM     22  C   UNL     1       2.340   3.910  -0.000  0.00  0.00    +0.010 A 
ATOM     23  C   UNL     1       1.147   3.167   0.008  0.00  0.00    -0.018 A 
ATOM     24  C   UNL     1       1.163   1.762   0.000  0.00  0.00    +0.008 A 
ATOM     25  C   UNL     1      -0.013   1.076   0.008  0.00  0.00    +0.001 A 
ATOM     26  C   UNL     1      -1.235   1.746   0.017  0.00  0.00    +0.001 A 
ATOM     27  C   UNL     1      -1.288   3.106   0.030  0.00  0.00    +0.008 A 
ATOM     28  C   UNL     1      -0.096   3.849   0.023  0.00  0.00    -0.016 A 
ATOM     29  C   UNL     1      -0.111   5.254   0.030  0.00  0.00    +0.037 A 
ENDBRANCH  17  20
ENDBRANCH   1  17
TORSDOF 4
