REMARK  Name = ZINC50306146
REMARK  4 active torsions:
REMARK  status: ('A' for Active; 'I' for Inactive)
REMARK    1  A    between atoms: C_1  and  C_2
REMARK    2  A    between atoms: C_3  and  N_21
REMARK    3  A    between atoms: C_4  and  C_8
REMARK    4  A    between atoms: C_14  and  C_16
REMARK                            x       y       z     vdW  Elec       q    Type
REMARK                         _______ _______ _______ _____ _____    ______ ____
ROOT
ATOM      1  C   UNL     1       0.042  -3.372  -1.392  0.00  0.00    +0.269 C 
ATOM      2  O   UNL     1       0.035  -3.313  -2.607  0.00  0.00    -0.268 OA
ATOM      3  N   UNL     1       0.062  -4.571  -0.776  0.00  0.00    -0.289 N 
ATOM      4  C   UNL     1       0.067  -4.787   0.682  0.00  0.00    +0.109 C 
ATOM      5  C   UNL     1       0.701  -6.188   0.873  0.00  0.00    +0.021 C 
ATOM      6  C   UNL     1       0.127  -6.958  -0.346  0.00  0.00    +0.029 C 
ATOM      7  C   UNL     1       0.077  -5.879  -1.447  0.00  0.00    +0.107 C 
ENDROOT
BRANCH   1  11
ATOM      8  C   UNL     1      -0.018   1.503   0.010  0.00  0.00    +0.067 C 
ATOM      9  C   UNL     1       0.002  -0.004   0.002  0.00  0.00    +0.054 A 
ATOM     10  C   UNL     1       0.008  -0.806  -1.096  0.00  0.00    +0.078 A 
ATOM     11  C   UNL     1       0.029  -2.133  -0.594  0.00  0.00    +0.168 A 
ATOM     12  N   UNL     1       0.034  -2.049   0.723  0.00  0.00    -0.167 NA
ATOM     13  N   UNL     1       0.024  -0.818   1.090  0.00  0.00    -0.279 N 
ATOM     14  H   UNL     1       0.029  -0.513   2.011  0.00  0.00    +0.189 HD
BRANCH  10  15
ATOM     15  N   UNL     1      -0.004  -0.407  -2.440  0.00  0.00    -0.355 N 
ATOM     16  H   UNL     1      -0.018   0.537  -2.666  0.00  0.00    +0.142 HD
ATOM     17  H   UNL     1       0.002  -1.074  -3.144  0.00  0.00    +0.142 HD
ENDBRANCH  10  15
ENDBRANCH   1  11
BRANCH   7  18
ATOM     18  C   UNL     1      -1.172  -6.045  -2.274  0.00  0.00    -0.020 A 
ATOM     19  C   UNL     1      -1.120  -6.668  -3.507  0.00  0.00    +0.013 A 
ATOM     20  C   UNL     1      -2.262  -6.801  -4.225  0.00  0.00    +0.045 A 
ATOM     21  S   UNL     1      -3.464  -6.032  -3.153  0.00  0.00    -0.105 S 
ATOM     22  C   UNL     1      -2.365  -5.590  -1.818  0.00  0.00    +0.050 A 
ENDBRANCH   7  18
TORSDOF 3
