REMARK  Name = ZINC28050945
REMARK  9 active torsions:
REMARK  status: ('A' for Active; 'I' for Inactive)
REMARK    1  A    between atoms: C_1  and  C_2
REMARK    2  A    between atoms: C_5  and  S_8
REMARK    3  A    between atoms: S_8  and  N_11
REMARK    4  A    between atoms: N_11  and  C_12
REMARK    5  A    between atoms: C_12  and  C_13
REMARK    6  A    between atoms: N_25  and  C_28
REMARK    7  A    between atoms: C_29  and  C_36
REMARK    8  A    between atoms: C_31  and  C_35
REMARK    9  A    between atoms: C_33  and  C_34
REMARK                            x       y       z     vdW  Elec       q    Type
REMARK                         _______ _______ _______ _____ _____    ______ ____
ROOT
ATOM      1  C   UNL     1       0.890  -0.153  -1.181  0.00  0.00    +0.114 C 
ATOM      2  C   UNL     1       2.068   0.715  -0.641  0.00  0.00    +0.008 C 
ATOM      3  C   UNL     1       1.476   1.716  -0.003  0.00  0.00    +0.004 C 
ATOM      4  C   UNL     1      -0.018   1.485   0.010  0.00  0.00    +0.155 C 
ATOM      5  O   UNL     1       0.002  -0.004   0.002  0.00  0.00    -0.359 OA
ATOM      6  C   UNL     1      -0.697   1.675  -1.335  0.00  0.00    +0.123 C 
ATOM      7  C   UNL     1       0.312   0.788  -2.177  0.00  0.00    +0.128 C 
ATOM      8  C   UNL     1      -0.090   1.043  -3.524  0.00  0.00    +0.233 C 
ATOM      9  O   UNL     1      -0.085   0.278  -4.464  0.00  0.00    -0.274 OA
ATOM     10  N   UNL     1      -0.442   2.412  -3.475  0.00  0.00    -0.209 N 
ATOM     11  C   UNL     1      -0.542   2.893  -2.189  0.00  0.00    +0.233 C 
ATOM     12  O   UNL     1      -0.510   4.050  -1.828  0.00  0.00    -0.274 OA
ENDROOT
BRANCH  10  13
ATOM     13  C   UNL     1      -0.691   3.184  -4.618  0.00  0.00    +0.050 A 
ATOM     14  C   UNL     1      -1.970   3.236  -5.157  0.00  0.00    -0.028 A 
ATOM     15  C   UNL     1      -2.214   4.001  -6.280  0.00  0.00    +0.008 A 
ATOM     16  C   UNL     1      -1.184   4.707  -6.875  0.00  0.00    -0.050 A 
ATOM     17  C   UNL     1       0.091   4.654  -6.343  0.00  0.00    +0.008 A 
ATOM     18  C   UNL     1       0.341   3.894  -5.217  0.00  0.00    -0.028 A 
ATOM     19  C   UNL     1       1.731   3.836  -4.639  0.00  0.00    +0.046 C 
ATOM     20  C   UNL     1      -1.452   5.537  -8.104  0.00  0.00    +0.044 C 
ATOM     21  C   UNL     1      -3.091   2.462  -4.513  0.00  0.00    +0.046 C 
ENDBRANCH  10  13
BRANCH   1  22
ATOM     22  C   UNL     1       1.204  -1.573  -1.655  0.00  0.00    +0.146 C 
BRANCH  22  23
ATOM     23  N   UNL     1       1.888  -2.305  -0.587  0.00  0.00    -0.187 NA
ATOM     24  H   UNL     1       2.456  -1.756   0.180  0.00  0.00    +0.148 HD
BRANCH  23  25
ATOM     25  S   UNL     1       2.020  -3.954  -0.665  0.00  0.00    +0.058 S 
ATOM     26  O   UNL     1       2.748  -4.358   0.486  0.00  0.00    -0.153 OA
ATOM     27  O   UNL     1       0.722  -4.451  -0.959  0.00  0.00    -0.153 OA
BRANCH  25  32
ATOM     28  C   UNL     1       5.482  -5.243  -5.435  0.00  0.00    +0.044 C 
ATOM     29  C   UNL     1       4.618  -4.921  -4.244  0.00  0.00    -0.050 A 
ATOM     30  C   UNL     1       5.195  -4.728  -3.003  0.00  0.00    +0.005 A 
ATOM     31  C   UNL     1       4.402  -4.433  -1.910  0.00  0.00    +0.029 A 
ATOM     32  C   UNL     1       3.031  -4.330  -2.058  0.00  0.00    +0.105 A 
ATOM     33  C   UNL     1       2.453  -4.528  -3.298  0.00  0.00    +0.029 A 
ATOM     34  C   UNL     1       3.247  -4.819  -4.392  0.00  0.00    +0.005 A 
ENDBRANCH  25  32
ENDBRANCH  23  25
ENDBRANCH  22  23
ENDBRANCH   1  22
TORSDOF 5
