REMARK  Name = ZINC34761070
REMARK  9 active torsions:
REMARK  status: ('A' for Active; 'I' for Inactive)
REMARK    1  A    between atoms: C_1  and  C_2
REMARK    2  A    between atoms: C_2  and  C_3
REMARK    3  A    between atoms: C_3  and  S_4
REMARK    4  A    between atoms: S_4  and  C_5
REMARK    5  A    between atoms: C_9  and  C_15
REMARK    6  A    between atoms: C_10  and  C_14
REMARK    7  A    between atoms: C_15  and  C_16
REMARK    8  A    between atoms: N_20  and  C_23
REMARK    9  A    between atoms: C_23  and  C_24
REMARK                            x       y       z     vdW  Elec       q    Type
REMARK                         _______ _______ _______ _____ _____    ______ ____
ROOT
ATOM      1  C   UNL     1       1.750  -2.776  -2.435  0.00  0.00    +0.191 A 
ATOM      2  N   UNL     1       1.899  -4.055  -2.758  0.00  0.00    -0.206 NA
ATOM      3  C   UNL     1       2.369  -4.432  -3.934  0.00  0.00    +0.134 A 
ATOM      4  C   UNL     1       2.730  -3.442  -4.891  0.00  0.00    +0.051 A 
ATOM      5  C   UNL     1       3.261  -3.601  -6.234  0.00  0.00    -0.025 A 
ATOM      6  C   UNL     1       3.531  -2.509  -6.965  0.00  0.00    -0.007 A 
ATOM      7  S   UNL     1       3.082  -1.164  -5.884  0.00  0.00    -0.073 S 
ATOM      8  C   UNL     1       2.545  -2.105  -4.480  0.00  0.00    +0.115 A 
ATOM      9  N   UNL     1       2.064  -1.810  -3.288  0.00  0.00    -0.215 NA
ATOM     10  C   UNL     1       4.082  -2.437  -8.365  0.00  0.00    +0.052 C 
ATOM     11  N   UNL     1       2.510  -5.776  -4.232  0.00  0.00    -0.318 N 
ATOM     12  C   UNL     1       3.743  -6.501  -3.892  0.00  0.00    +0.088 C 
ATOM     13  C   UNL     1       3.362  -7.782  -3.142  0.00  0.00    -0.059 C 
ATOM     14  N   UNL     1       2.408  -8.554  -3.948  0.00  0.00    +0.387 N 
ATOM     15  C   UNL     1       1.157  -7.799  -4.102  0.00  0.00    -0.059 C 
ATOM     16  C   UNL     1       1.427  -6.521  -4.894  0.00  0.00    +0.088 C 
ATOM     17  H   UNL     1       2.805  -8.733  -4.858  0.00  0.00    -0.081 HD
ENDROOT
BRANCH   5  18
ATOM     18  C   UNL     1       3.507  -4.976  -6.799  0.00  0.00    +0.033 C 
ATOM     19  C   UNL     1       2.306  -5.403  -7.645  0.00  0.00    +0.009 C 
ENDBRANCH   5  18
BRANCH   1  20
ATOM     20  S   UNL     1       1.117  -2.353  -0.846  0.00  0.00    -0.086 S 
BRANCH  20  21
ATOM     21  C   UNL     1       1.081  -0.539  -0.856  0.00  0.00    +0.077 C 
BRANCH  21  23
ATOM     22  C   UNL     1       0.514   1.497   0.476  0.00  0.00    +0.004 C 
ATOM     23  C   UNL     1       0.544  -0.033   0.484  0.00  0.00    +0.008 C 
ENDBRANCH  21  23
ENDBRANCH  20  21
ENDBRANCH   1  20
BRANCH  14  24
ATOM     24  C   UNL     1       2.127  -9.832  -3.280  0.00  0.00    +0.018 C 
BRANCH  24  25
ATOM     25  C   UNL     1       1.245 -10.677  -4.163  0.00  0.00    +0.194 C 
ATOM     26  O   UNL     1       0.886 -10.256  -5.242  0.00  0.00    -0.278 OA
ATOM     27  N   UNL     1       0.856 -11.900  -3.753  0.00  0.00    -0.331 N 
ATOM     28  H   UNL     1       1.143 -12.237  -2.890  0.00  0.00    +0.145 HD
ATOM     29  H   UNL     1       0.288 -12.444  -4.322  0.00  0.00    +0.145 HD
ENDBRANCH  24  25
ENDBRANCH  14  24
TORSDOF 6
