REMARK  Name = ZINC15934956
REMARK  11 active torsions:
REMARK  status: ('A' for Active; 'I' for Inactive)
REMARK    1  A    between atoms: C_1  and  C_2
REMARK    2  A    between atoms: C_5  and  S_8
REMARK    3  A    between atoms: S_8  and  N_11
REMARK    4  A    between atoms: N_11  and  C_12
REMARK    5  A    between atoms: C_12  and  C_14
REMARK    6  A    between atoms: C_12  and  C_18
REMARK    7  A    between atoms: C_14  and  C_15
REMARK    8  A    between atoms: C_15  and  S_16
REMARK    9  A    between atoms: S_16  and  C_17
REMARK   10  A    between atoms: N_20  and  N_21
REMARK   11  A    between atoms: C_22  and  C_24
REMARK                            x       y       z     vdW  Elec       q    Type
REMARK                         _______ _______ _______ _____ _____    ______ ____
ROOT
ATOM      1  C   UNL     1       3.933  -4.191   0.571  0.00  0.00    +0.248 C 
ATOM      2  O   UNL     1       4.190  -4.207  -0.614  0.00  0.00    -0.273 OA
ATOM      3  N   UNL     1       4.862  -3.781   1.456  0.00  0.00    -0.233 N 
ATOM      4  H   UNL     1       4.657  -3.768   2.404  0.00  0.00    +0.173 HD
ENDROOT
BRANCH   3   5
ATOM      5  N   UNL     1       6.125  -3.374   1.008  0.00  0.00    -0.229 N 
ATOM      6  C   UNL     1       7.055  -2.964   1.894  0.00  0.00    +0.279 C 
ATOM      7  O   UNL     1       6.797  -2.948   3.083  0.00  0.00    -0.267 OA
ATOM      8  H   UNL     1       6.331  -3.387   0.060  0.00  0.00    +0.173 HD
BRANCH   6   9
ATOM      9  C   UNL     1       8.382  -2.536   1.423  0.00  0.00    +0.136 A 
ATOM     10  C   UNL     1       9.338  -2.123   2.317  0.00  0.00    +0.081 A 
ATOM     11  S   UNL     1      10.688  -1.742   1.208  0.00  0.00    -0.060 S 
ATOM     12  C   UNL     1       9.857  -2.165  -0.316  0.00  0.00    +0.162 A 
ATOM     13  N   UNL     1       8.676  -2.550   0.121  0.00  0.00    -0.220 NA
ATOM     14  N   UNL     1      10.333  -2.108  -1.616  0.00  0.00    -0.305 N 
ATOM     15  C   UNL     1       9.482  -2.498  -2.751  0.00  0.00    +0.135 C 
ATOM     16  C   UNL     1       9.526  -1.377  -3.796  0.00  0.00    +0.179 C 
ATOM     17  O   UNL     1      10.889  -1.069  -4.099  0.00  0.00    -0.377 OA
ATOM     18  C   UNL     1      11.639  -0.575  -2.987  0.00  0.00    +0.179 C 
ATOM     19  C   UNL     1      11.702  -1.650  -1.902  0.00  0.00    +0.135 C 
ENDBRANCH   6   9
ENDBRANCH   3   5
BRANCH   1  20
ATOM     20  C   UNL     1       2.574  -4.629   1.053  0.00  0.00    +0.164 C 
BRANCH  20  21
ATOM     21  N   UNL     1       1.752  -5.024  -0.094  0.00  0.00    -0.178 NA
ATOM     22  H   UNL     1       1.998  -5.799  -0.623  0.00  0.00    +0.149 HD
BRANCH  21  23
ATOM     23  S   UNL     1       0.404  -4.147  -0.488  0.00  0.00    +0.059 S 
ATOM     24  O   UNL     1      -0.334  -3.974   0.714  0.00  0.00    -0.153 OA
ATOM     25  O   UNL     1      -0.155  -4.758  -1.643  0.00  0.00    -0.153 OA
BRANCH  23  30
ATOM     26  C   UNL     1       2.269   1.339  -2.171  0.00  0.00    +0.044 C 
ATOM     27  C   UNL     1       1.803  -0.031  -1.751  0.00  0.00    -0.050 A 
ATOM     28  C   UNL     1       1.676  -1.036  -2.691  0.00  0.00    +0.005 A 
ATOM     29  C   UNL     1       1.249  -2.293  -2.305  0.00  0.00    +0.029 A 
ATOM     30  C   UNL     1       0.949  -2.545  -0.979  0.00  0.00    +0.105 A 
ATOM     31  C   UNL     1       1.077  -1.540  -0.039  0.00  0.00    +0.029 A 
ATOM     32  C   UNL     1       1.508  -0.284  -0.424  0.00  0.00    +0.005 A 
ENDBRANCH  23  30
ENDBRANCH  21  23
ENDBRANCH  20  21
BRANCH  20  33
ATOM     33  C   UNL     1       2.728  -5.818   2.003  0.00  0.00    +0.040 C 
BRANCH  33  34
ATOM     34  C   UNL     1       1.365  -6.178   2.596  0.00  0.00    +0.071 C 
BRANCH  34  35
ATOM     35  S   UNL     1       1.524  -7.670   3.615  0.00  0.00    -0.164 S 
ATOM     36  C   UNL     1      -0.156  -7.958   4.236  0.00  0.00    +0.084 C 
ENDBRANCH  34  35
ENDBRANCH  33  34
ENDBRANCH  20  33
ENDBRANCH   1  20
TORSDOF 9
