REMARK  Name = ZINC38979876
REMARK  4 active torsions:
REMARK  status: ('A' for Active; 'I' for Inactive)
REMARK    1  A    between atoms: N_7  and  S_8
REMARK    2  A    between atoms: S_8  and  C_11
REMARK    3  A    between atoms: C_20  and  N_25
REMARK    4  A    between atoms: N_25  and  C_26
REMARK                            x       y       z     vdW  Elec       q    Type
REMARK                         _______ _______ _______ _____ _____    ______ ____
ROOT
ATOM      1  C   UNL     1      -0.321   1.090   0.249  0.00  0.00    +0.002 A 
ATOM      2  C   UNL     1       0.787   1.947   0.143  0.00  0.00    +0.002 A 
ATOM      3  C   UNL     1       2.054   1.492   0.023  0.00  0.00    +0.030 A 
ATOM      4  C   UNL     1       2.315   0.099  -0.000  0.00  0.00    +0.089 A 
ATOM      5  N   UNL     1       3.552  -0.339  -0.117  0.00  0.00    -0.226 NA
ATOM      6  C   UNL     1       3.834  -1.651  -0.142  0.00  0.00    +0.192 C 
ATOM      7  N   UNL     1       5.064  -2.059  -0.258  0.00  0.00    -0.110 NA
ATOM      8  C   UNL     1       2.702  -2.648  -0.035  0.00  0.00    +0.237 C 
ATOM      9  N   UNL     1       1.334  -2.122   0.094  0.00  0.00    -0.359 N 
ATOM     10  C   UNL     1       1.163  -0.830   0.110  0.00  0.00    +0.063 A 
ATOM     11  C   UNL     1      -0.184  -0.254   0.237  0.00  0.00    +0.027 A 
ATOM     12  H   UNL     1       0.576  -2.724   0.166  0.00  0.00    +0.162 HD
ENDROOT
BRANCH   7  13
ATOM     13  S   UNL     1       6.294  -0.957  -0.374  0.00  0.00    +0.103 S 
ATOM     14  O   UNL     1       6.114  -0.277  -1.608  0.00  0.00    -0.146 OA
ATOM     15  O   UNL     1       6.348  -0.275   0.872  0.00  0.00    -0.146 OA
BRANCH  13  16
ATOM     16  C   UNL     1       7.797  -1.867  -0.514  0.00  0.00    +0.141 A 
ATOM     17  C   UNL     1       8.531  -1.788  -1.649  0.00  0.00    +0.031 A 
ATOM     18  C   UNL     1       9.725  -2.493  -1.795  0.00  0.00    +0.004 A 
ATOM     19  C   UNL     1      10.202  -3.289  -0.809  0.00  0.00    +0.031 A 
ATOM     20  C   UNL     1       9.484  -3.421   0.411  0.00  0.00    +0.102 A 
ATOM     21  C   UNL     1       8.238  -2.678   0.566  0.00  0.00    +0.127 A 
ATOM     22  N   UNL     1       7.655  -2.874   1.749  0.00  0.00    -0.189 NA
ATOM     23  S   UNL     1       8.618  -3.887   2.546  0.00  0.00    +0.117 S 
ATOM     24  N   UNL     1       9.796  -4.151   1.482  0.00  0.00    -0.191 NA
ENDBRANCH  13  16
ENDBRANCH   7  13
BRANCH   8  25
ATOM     25  N   UNL     1       2.743  -3.501  -1.225  0.00  0.00    -0.317 N 
ATOM     26  H   UNL     1       2.888  -3.106  -2.099  0.00  0.00    +0.148 HD
BRANCH  25  27
ATOM     27  C   UNL     1       2.571  -4.882  -1.102  0.00  0.00    +0.047 A 
ATOM     28  C   UNL     1       2.236  -5.434   0.128  0.00  0.00    +0.024 A 
ATOM     29  C   UNL     1       2.066  -6.800   0.246  0.00  0.00    +0.002 A 
ATOM     30  C   UNL     1       2.230  -7.618  -0.857  0.00  0.00    +0.002 A 
ATOM     31  C   UNL     1       2.564  -7.072  -2.083  0.00  0.00    +0.022 A 
ATOM     32  C   UNL     1       2.729  -5.706  -2.210  0.00  0.00    +0.062 A 
ATOM     33 CL   UNL     1       3.142  -5.020  -3.751  0.00  0.00    -0.082 Cl
ENDBRANCH  25  27
ENDBRANCH   8  25
TORSDOF 4
