REMARK  Name = ZINC11786817
REMARK  11 active torsions:
REMARK  status: ('A' for Active; 'I' for Inactive)
REMARK    1  A    between atoms: C_1  and  C_2
REMARK    2  A    between atoms: C_4  and  C_32
REMARK    3  A    between atoms: C_6  and  C_8
REMARK    4  A    between atoms: N_10  and  C_11
REMARK    5  A    between atoms: C_11  and  C_13
REMARK    6  A    between atoms: C_11  and  C_17
REMARK    7  A    between atoms: C_13  and  C_14
REMARK    8  A    between atoms: C_14  and  C_15
REMARK    9  A    between atoms: C_14  and  C_16
REMARK   10  A    between atoms: C_26  and  C_27
REMARK   11  A    between atoms: C_26  and  N_65
REMARK                            x       y       z     vdW  Elec       q    Type
REMARK                         _______ _______ _______ _____ _____    ______ ____
ROOT
ATOM      1  C   UNL     1      -3.743   7.578   0.648  0.00  0.00    +0.142 C 
ENDROOT
BRANCH   1   2
ATOM      2  C   UNL     1      -2.887   6.895   1.682  0.00  0.00    +0.154 A 
ATOM      3  N   UNL     1      -2.315   7.460   2.713  0.00  0.00    -0.132 NA
ATOM      4  N   UNL     1      -1.668   6.576   3.390  0.00  0.00    -0.134 NA
ATOM      5  C   UNL     1      -1.803   5.412   2.827  0.00  0.00    +0.132 A 
ATOM      6  N   UNL     1      -2.565   5.584   1.719  0.00  0.00    -0.315 N 
ATOM      7  C   UNL     1      -2.932   4.545   0.757  0.00  0.00    +0.106 C 
ATOM      8  C   UNL     1      -2.959   3.188   1.468  0.00  0.00    -0.056 C 
ATOM      9  C   UNL     1      -0.613   3.376   2.088  0.00  0.00    -0.071 C 
ATOM     10  C   UNL     1      -1.240   4.093   3.288  0.00  0.00    +0.058 C 
ATOM     11  N   UNL     1      -1.630   2.534   1.421  0.00  0.00    +0.384 N 
ATOM     12  H   UNL     1      -1.687   1.634   1.911  0.00  0.00    -0.081 HD
BRANCH  11  13
ATOM     13  C   UNL     1      -1.239   2.291   0.021  0.00  0.00    -0.040 C 
BRANCH  13  14
ATOM     14  C   UNL     1      -0.017   1.410   0.010  0.00  0.00    -0.026 A 
ATOM     15  C   UNL     1       0.002  -0.004   0.002  0.00  0.00    +0.043 A 
ATOM     16  C   UNL     1       1.295  -0.376  -0.012  0.00  0.00    +0.195 A 
ATOM     17  O   UNL     1       2.055   0.731  -0.014  0.00  0.00    -0.471 OA
ATOM     18  C   UNL     1       1.265   1.817  -0.000  0.00  0.00    +0.196 A 
ENDBRANCH  13  14
ENDBRANCH  11  13
ENDBRANCH   1   2
BRANCH   1  21
ATOM     19  C   UNL     1      -3.373   9.356  -0.976  0.00  0.00    +0.245 C 
ATOM     20  O   UNL     1      -4.142   8.790  -1.728  0.00  0.00    -0.270 OA
ATOM     21  N   UNL     1      -3.106   8.831   0.236  0.00  0.00    -0.301 N 
ATOM     22  H   UNL     1      -2.492   9.283   0.836  0.00  0.00    +0.150 HD
BRANCH  19  28
ATOM     23  C   UNL     1      -0.295  13.160   0.004  0.00  0.00    +0.044 C 
ATOM     24  C   UNL     1      -1.250  12.454  -0.924  0.00  0.00    -0.049 A 
ATOM     25  C   UNL     1      -1.526  12.990  -2.169  0.00  0.00    +0.006 A 
ATOM     26  C   UNL     1      -2.401  12.348  -3.028  0.00  0.00    -0.049 A 
ATOM     27  C   UNL     1      -3.004  11.167  -2.646  0.00  0.00    +0.016 A 
ATOM     28  C   UNL     1      -2.730  10.621  -1.392  0.00  0.00    +0.037 A 
ATOM     29  C   UNL     1      -1.851  11.277  -0.528  0.00  0.00    +0.016 A 
ATOM     30  C   UNL     1      -2.695  12.940  -4.382  0.00  0.00    +0.044 C 
ENDBRANCH  19  28
ENDBRANCH   1  21
BRANCH   1  31
ATOM     31  C   UNL     1      -5.121   7.877   1.243  0.00  0.00    +0.033 C 
BRANCH  31  32
ATOM     32  C   UNL     1      -6.030   8.456   0.157  0.00  0.00    -0.015 C 
ATOM     33  C   UNL     1      -6.276   7.398  -0.920  0.00  0.00    +0.007 C 
ATOM     34  C   UNL     1      -7.365   8.871   0.779  0.00  0.00    +0.007 C 
ENDBRANCH  31  32
ENDBRANCH   1  31
TORSDOF 7
