REMARK  Name = ZINC32581460
REMARK  5 active torsions:
REMARK  status: ('A' for Active; 'I' for Inactive)
REMARK    1  A    between atoms: C_1  and  S_2
REMARK    2  A    between atoms: S_2  and  N_5
REMARK    3  A    between atoms: C_8  and  C_11
REMARK    4  A    between atoms: N_13  and  C_14
REMARK    5  A    between atoms: C_14  and  C_15
REMARK                            x       y       z     vdW  Elec       q    Type
REMARK                         _______ _______ _______ _____ _____    ______ ____
ROOT
ATOM      1  C   UNL     1       1.584   3.338   0.005  0.00  0.00    +0.216 C 
ATOM      2  O   UNL     1       0.652   4.114   0.018  0.00  0.00    -0.276 OA
ATOM      3  N   UNL     1       1.356   2.010  -0.000  0.00  0.00    -0.311 N 
ATOM      4  H   UNL     1       2.202   1.307  -0.012  0.00  0.00    +0.149 HD
ENDROOT
BRANCH   1   8
ATOM      5  N   UNL     1       5.173   5.318   1.063  0.00  0.00    -0.181 NA
ATOM      6  C   UNL     1       4.415   5.917  -0.043  0.00  0.00    +0.110 C 
ATOM      7  C   UNL     1       2.977   5.390   0.003  0.00  0.00    +0.030 C 
ATOM      8  C   UNL     1       2.998   3.860  -0.006  0.00  0.00    +0.077 C 
ATOM      9  C   UNL     1       3.739   3.351   1.233  0.00  0.00    +0.030 C 
ATOM     10  C   UNL     1       5.185   3.855   1.201  0.00  0.00    +0.110 C 
BRANCH   5  12
ATOM     11  C   UNL     1       4.810   6.626   3.457  0.00  0.00    +0.215 C 
ATOM     12  S   UNL     1       6.000   6.273   2.135  0.00  0.00    +0.029 S 
ATOM     13  O   UNL     1       7.046   5.446   2.626  0.00  0.00    -0.158 OA
ATOM     14  O   UNL     1       6.293   7.460   1.410  0.00  0.00    -0.158 OA
ENDBRANCH   5  12
ENDBRANCH   1   8
BRANCH   3  15
ATOM     15  C   UNL     1      -0.018   1.503   0.010  0.00  0.00    +0.140 C 
BRANCH  15  16
ATOM     16  C   UNL     1       0.002  -0.004   0.002  0.00  0.00    -0.022 A 
ATOM     17  C   UNL     1      -0.005  -0.699  -1.193  0.00  0.00    +0.028 A 
ATOM     18  C   UNL     1       0.018  -2.055  -1.165  0.00  0.00    +0.055 A 
ATOM     19  S   UNL     1       0.039  -2.387   0.589  0.00  0.00    -0.090 S 
ATOM     20  C   UNL     1       0.022  -0.698   1.166  0.00  0.00    +0.051 A 
ATOM     21 BR   UNL     1       0.021  -3.276  -2.608  0.00  0.00    -0.043 Br
ENDBRANCH  15  16
ENDBRANCH   3  15
TORSDOF 4
