REMARK  Name = ZINC10791504
REMARK  9 active torsions:
REMARK  status: ('A' for Active; 'I' for Inactive)
REMARK    1  A    between atoms: C_1  and  N_2
REMARK    2  A    between atoms: N_2  and  C_3
REMARK    3  A    between atoms: N_2  and  S_4
REMARK    4  A    between atoms: S_4  and  C_7
REMARK    5  A    between atoms: C_11  and  C_13
REMARK    6  A    between atoms: C_13  and  O_15
REMARK    7  A    between atoms: O_15  and  C_16
REMARK    8  A    between atoms: C_16  and  C_17
REMARK    9  A    between atoms: N_19  and  C_20
REMARK                            x       y       z     vdW  Elec       q    Type
REMARK                         _______ _______ _______ _____ _____    ______ ____
ROOT
ATOM      1  C   UNL     1      -1.330   1.945   0.012  0.00  0.00    +0.328 C 
ENDROOT
BRANCH   1   2
ATOM      2  C   UNL     1      -0.014   1.209   0.011  0.00  0.00    +0.255 C 
ATOM      3  O   UNL     1       0.002  -0.004   0.013  0.00  0.00    -0.272 OA
ATOM      4  N   UNL     1       1.143   1.898   0.001  0.00  0.00    -0.283 N 
ATOM      5  H   UNL     1       1.131   2.866  -0.068  0.00  0.00    +0.155 HD
BRANCH   4   6
ATOM      6  C   UNL     1       2.365   1.218   0.092  0.00  0.00    +0.037 A 
ATOM      7  C   UNL     1       2.513  -0.025  -0.508  0.00  0.00    +0.027 A 
ATOM      8  C   UNL     1       3.717  -0.698  -0.420  0.00  0.00    +0.051 A 
ATOM      9  C   UNL     1       4.779  -0.134   0.267  0.00  0.00    +0.173 A 
ATOM     10  C   UNL     1       4.634   1.113   0.870  0.00  0.00    +0.174 A 
ATOM     11  C   UNL     1       3.429   1.789   0.776  0.00  0.00    +0.073 A 
ATOM     12  O   UNL     1       5.811   1.445   1.477  0.00  0.00    -0.395 OA
ATOM     13  C   UNL     1       6.802   0.578   0.893  0.00  0.00    +0.589 C 
ATOM     14  O   UNL     1       6.049  -0.583   0.496  0.00  0.00    -0.395 OA
ATOM     15  F   UNL     1       7.392   1.185  -0.220  0.00  0.00    -0.125 F 
ATOM     16  F   UNL     1       7.774   0.237   1.839  0.00  0.00    -0.125 F 
ENDBRANCH   4   6
ENDBRANCH   1   2
BRANCH   1  17
ATOM     17  O   UNL     1      -2.420   0.986   0.016  0.00  0.00    -0.452 OA
BRANCH  17  18
ATOM     18  C   UNL     1      -3.672   1.484   0.018  0.00  0.00    +0.340 C 
ATOM     19  O   UNL     1      -3.848   2.686   0.016  0.00  0.00    -0.245 OA
BRANCH  18  24
ATOM     20  C   UNL     1      -7.208   0.221   0.027  0.00  0.00    +0.106 A 
ATOM     21  C   UNL     1      -7.005  -1.148   0.029  0.00  0.00    +0.028 A 
ATOM     22  C   UNL     1      -5.721  -1.663   0.026  0.00  0.00    +0.003 A 
ATOM     23  C   UNL     1      -4.633  -0.813   0.018  0.00  0.00    +0.015 A 
ATOM     24  C   UNL     1      -4.831   0.569   0.022  0.00  0.00    +0.061 A 
ATOM     25  C   UNL     1      -6.130   1.082   0.024  0.00  0.00    +0.043 A 
BRANCH  20  26
ATOM     26  S   UNL     1      -8.848   0.866   0.029  0.00  0.00    +0.060 S 
ATOM     27  O   UNL     1      -9.681  -0.143   0.583  0.00  0.00    -0.153 OA
ATOM     28  O   UNL     1      -8.769   2.175   0.578  0.00  0.00    -0.153 OA
BRANCH  26  30
ATOM     29  C   UNL     1      -9.973  -0.060  -2.249  0.00  0.00    +0.131 C 
ATOM     30  N   UNL     1      -9.306   1.043  -1.552  0.00  0.00    -0.183 NA
ATOM     31  C   UNL     1      -9.044   2.301  -2.255  0.00  0.00    +0.131 C 
ENDBRANCH  26  30
ENDBRANCH  20  26
ENDBRANCH  18  24
ENDBRANCH  17  18
ENDBRANCH   1  17
TORSDOF 7
