REMARK  Name = ZINC09108909
REMARK  9 active torsions:
REMARK  status: ('A' for Active; 'I' for Inactive)
REMARK    1  A    between atoms: C_1  and  C_2
REMARK    2  A    between atoms: C_5  and  N_31
REMARK    3  A    between atoms: C_7  and  C_8
REMARK    4  A    between atoms: C_9  and  C_25
REMARK    5  A    between atoms: C_11  and  C_14
REMARK    6  A    between atoms: C_17  and  O_22
REMARK    7  A    between atoms: C_19  and  O_20
REMARK    8  A    between atoms: O_20  and  C_21
REMARK    9  A    between atoms: O_22  and  C_23
REMARK                            x       y       z     vdW  Elec       q    Type
REMARK                         _______ _______ _______ _____ _____    ______ ____
ROOT
ATOM      1  C   UNL     1      -8.042  -0.059   2.649  0.00  0.00    +0.075 A 
ATOM      2  C   UNL     1      -7.885  -0.902   1.430  0.00  0.00    +0.097 A 
ATOM      3  N   UNL     1      -6.600  -0.893   1.129  0.00  0.00    -0.227 NA
ATOM      4  C   UNL     1      -5.929  -0.154   2.015  0.00  0.00    +0.143 A 
ATOM      5  N   UNL     1      -6.785   0.371   2.954  0.00  0.00    -0.337 N 
ATOM      6  H   UNL     1      -6.532   0.961   3.721  0.00  0.00    +0.167 HD
ENDROOT
BRANCH   1  13
ATOM      7  C   UNL     1     -10.052   1.520   1.321  0.00  0.00    +0.044 C 
ATOM      8  C   UNL     1     -10.247   1.002   2.723  0.00  0.00    -0.041 A 
ATOM      9  C   UNL     1     -11.399   1.276   3.401  0.00  0.00    +0.006 A 
ATOM     10  C   UNL     1     -11.582   0.801   4.693  0.00  0.00    +0.033 A 
ATOM     11  C   UNL     1     -10.596   0.042   5.311  0.00  0.00    +0.127 A 
ATOM     12  C   UNL     1      -9.438  -0.250   4.651  0.00  0.00    +0.043 A 
ATOM     13  C   UNL     1      -9.238   0.232   3.340  0.00  0.00    +0.005 A 
BRANCH  11  14
ATOM     14  N   UNL     1     -10.807  -0.457   6.688  0.00  0.00    +0.056 N 
ATOM     15  O   UNL     1     -11.926  -0.182   7.325  0.00  0.00    -0.126 OA
ATOM     16  O   UNL     1      -9.874  -1.177   7.277  0.00  0.00    -0.126 OA
ENDBRANCH  11  14
ENDBRANCH   1  13
BRANCH   4  17
ATOM     17  C   UNL     1      -4.535   0.064   1.987  0.00  0.00    +0.060 A 
ATOM     18  C   UNL     1      -3.923   0.870   2.970  0.00  0.00    +0.034 A 
ATOM     19  C   UNL     1      -2.579   1.076   2.940  0.00  0.00    +0.060 A 
ATOM     20  C   UNL     1      -1.793   0.493   1.936  0.00  0.00    +0.137 A 
ATOM     21  C   UNL     1      -2.377  -0.300   0.955  0.00  0.00    +0.093 A 
ATOM     22  C   UNL     1      -3.740  -0.527   0.972  0.00  0.00    +0.134 A 
ATOM     23 BR   UNL     1      -1.766   2.158   4.261  0.00  0.00    -0.046 Br
BRANCH  22  24
ATOM     24  O   UNL     1      -4.313  -1.302   0.021  0.00  0.00    -0.494 OA
ATOM     25  C   UNL     1      -3.447  -1.862  -0.968  0.00  0.00    +0.277 C 
ENDBRANCH  22  24
BRANCH  20  26
ATOM     26  O   UNL     1      -0.456   0.708   1.920  0.00  0.00    -0.494 OA
ATOM     27  C   UNL     1       0.288   0.085   0.871  0.00  0.00    +0.277 C 
ENDBRANCH  20  26
ENDBRANCH   4  17
BRANCH   2  28
ATOM     28  C   UNL     1      -8.952  -1.602   0.702  0.00  0.00    +0.002 A 
ATOM     29  C   UNL     1      -9.969  -2.266   1.406  0.00  0.00    +0.010 A 
ATOM     30  C   UNL     1     -10.968  -2.915   0.715  0.00  0.00    +0.001 A 
ATOM     31  C   UNL     1     -10.965  -2.924  -0.671  0.00  0.00    +0.000 A 
ATOM     32  C   UNL     1      -9.962  -2.275  -1.375  0.00  0.00    +0.001 A 
ATOM     33  C   UNL     1      -8.958  -1.616  -0.701  0.00  0.00    +0.010 A 
ENDBRANCH   2  28
TORSDOF 6
