REMARK  Name = ZINC14775748
REMARK  7 active torsions:
REMARK  status: ('A' for Active; 'I' for Inactive)
REMARK    1  A    between atoms: C_1  and  C_2
REMARK    2  A    between atoms: C_2  and  C_23
REMARK    3  A    between atoms: C_4  and  N_5
REMARK    4  A    between atoms: N_5  and  N_6
REMARK    5  A    between atoms: C_7  and  C_9
REMARK    6  A    between atoms: C_9  and  N_10
REMARK    7  A    between atoms: C_20  and  O_21
REMARK                            x       y       z     vdW  Elec       q    Type
REMARK                         _______ _______ _______ _____ _____    ______ ____
ROOT
ATOM      1  N   UNL     1      -4.027  -1.434  -0.029  0.00  0.00    -0.235 N 
ATOM      2  C   UNL     1      -5.291  -1.901  -0.032  0.00  0.00    +0.249 C 
ATOM      3  O   UNL     1      -5.530  -3.007   0.405  0.00  0.00    -0.272 OA
ATOM      4  H   UNL     1      -3.836  -0.549  -0.378  0.00  0.00    +0.173 HD
ENDROOT
BRANCH   1   5
ATOM      5  N   UNL     1      -2.989  -2.227   0.478  0.00  0.00    -0.265 N 
ATOM      6  H   UNL     1      -3.180  -3.111   0.827  0.00  0.00    +0.170 HD
BRANCH   5  10
ATOM      7  C   UNL     1      -0.019   1.526   0.010  0.00  0.00    +0.016 C 
ATOM      8  C   UNL     1       0.002  -0.004   0.002  0.00  0.00    -0.008 C 
ATOM      9  C   UNL     1      -1.411  -0.523   0.000  0.00  0.00    +0.004 C 
ATOM     10  C   UNL     1      -1.679  -1.743   0.481  0.00  0.00    +0.044 C 
ATOM     11  C   UNL     1      -0.585  -2.573   1.013  0.00  0.00    +0.065 C 
ATOM     12  C   UNL     1       0.565  -1.997   1.374  0.00  0.00    +0.097 C 
ATOM     13  C   UNL     1       0.741  -0.508   1.240  0.00  0.00    +0.084 C 
ATOM     14  C   UNL     1       0.723  -0.495  -1.255  0.00  0.00    +0.016 C 
BRANCH  12  15
ATOM     15  O   UNL     1       1.576  -2.756   1.862  0.00  0.00    -0.511 OA
ATOM     16  H   UNL     1       1.371  -3.700   1.911  0.00  0.00    +0.292 HD
ENDBRANCH  12  15
ENDBRANCH   5  10
ENDBRANCH   1   5
BRANCH   2  17
ATOM     17  C   UNL     1      -6.408  -1.048  -0.577  0.00  0.00    +0.219 C 
BRANCH  17  18
ATOM     18  N   UNL     1      -7.675  -1.776  -0.468  0.00  0.00    -0.338 N 
ATOM     19  C   UNL     1      -8.236  -2.530  -1.462  0.00  0.00    +0.087 A 
ATOM     20  C   UNL     1      -9.394  -3.059  -1.037  0.00  0.00    +0.027 A 
ATOM     21  C   UNL     1      -9.591  -2.607   0.342  0.00  0.00    -0.000 A 
ATOM     22  C   UNL     1      -8.476  -1.806   0.651  0.00  0.00    +0.049 A 
ATOM     23  C   UNL     1      -8.379  -1.231   1.914  0.00  0.00    +0.026 A 
ATOM     24  C   UNL     1      -9.370  -1.454   2.845  0.00  0.00    +0.002 A 
ATOM     25  C   UNL     1     -10.466  -2.247   2.536  0.00  0.00    +0.001 A 
ATOM     26  C   UNL     1     -10.586  -2.815   1.299  0.00  0.00    +0.010 A 
ENDBRANCH  17  18
ENDBRANCH   2  17
TORSDOF 5
