REMARK  Name = ZINC12916024
REMARK  9 active torsions:
REMARK  status: ('A' for Active; 'I' for Inactive)
REMARK    1  A    between atoms: C_1  and  C_2
REMARK    2  A    between atoms: C_2  and  C_3
REMARK    3  A    between atoms: C_2  and  C_4
REMARK    4  A    between atoms: C_4  and  N_5
REMARK    5  A    between atoms: C_6  and  C_27
REMARK    6  A    between atoms: C_9  and  S_10
REMARK    7  A    between atoms: S_10  and  C_11
REMARK    8  A    between atoms: C_11  and  C_12
REMARK    9  A    between atoms: N_14  and  C_15
REMARK                            x       y       z     vdW  Elec       q    Type
REMARK                         _______ _______ _______ _____ _____    ______ ____
ROOT
ATOM      1  S   UNL     1      -0.633   2.261  -0.105  0.00  0.00    -0.077 S 
ENDROOT
BRANCH   1   6
ATOM      2  N   UNL     1       1.875   3.499  -0.098  0.00  0.00    -0.302 N 
ATOM      3  C   UNL     1       3.186   3.083  -0.105  0.00  0.00    +0.166 A 
ATOM      4  N   UNL     1       3.174   1.770  -0.119  0.00  0.00    -0.128 NA
ATOM      5  N   UNL     1       1.962   1.343  -0.117  0.00  0.00    -0.122 NA
ATOM      6  C   UNL     1       1.126   2.357  -0.108  0.00  0.00    +0.192 A 
BRANCH   3   7
ATOM      7  C   UNL     1       4.383   3.950  -0.098  0.00  0.00    +0.038 A 
ATOM      8  C   UNL     1       4.494   5.000  -1.011  0.00  0.00    +0.014 A 
ATOM      9  C   UNL     1       5.610   5.809  -0.997  0.00  0.00    +0.021 A 
ATOM     10  C   UNL     1       6.627   5.575  -0.086  0.00  0.00    +0.042 A 
ATOM     11  C   UNL     1       6.527   4.532   0.819  0.00  0.00    +0.040 A 
ATOM     12  C   UNL     1       5.412   3.718   0.818  0.00  0.00    +0.053 A 
ATOM     13 CL   UNL     1       5.288   2.410   1.953  0.00  0.00    -0.083 Cl
ATOM     14 CL   UNL     1       8.033   6.594  -0.079  0.00  0.00    -0.083 Cl
ENDBRANCH   3   7
BRANCH   2  15
ATOM     15  C   UNL     1       1.385   4.879  -0.082  0.00  0.00    +0.129 C 
BRANCH  15  17
ATOM     16  C   UNL     1       0.953   6.869   1.367  0.00  0.00    +0.009 C 
ATOM     17  C   UNL     1       1.345   5.390   1.360  0.00  0.00    +0.003 C 
ATOM     18  C   UNL     1       0.317   4.586   2.158  0.00  0.00    +0.009 C 
ENDBRANCH  15  17
ENDBRANCH   2  15
ENDBRANCH   1   6
BRANCH   1  19
ATOM     19  C   UNL     1      -0.850   0.464  -0.125  0.00  0.00    +0.173 C 
BRANCH  19  20
ATOM     20  C   UNL     1      -2.321   0.136  -0.125  0.00  0.00    +0.227 C 
ATOM     21  O   UNL     1      -3.142   1.029  -0.113  0.00  0.00    -0.275 OA
ATOM     22  N   UNL     1      -2.724  -1.150  -0.139  0.00  0.00    -0.285 N 
ATOM     23  H   UNL     1      -2.071  -1.863  -0.213  0.00  0.00    +0.155 HD
BRANCH  22  24
ATOM     24  C   UNL     1      -4.088  -1.458  -0.045  0.00  0.00    +0.035 A 
ATOM     25  C   UNL     1      -4.497  -2.598   0.638  0.00  0.00    +0.025 A 
ATOM     26  C   UNL     1      -5.839  -2.903   0.739  0.00  0.00    +0.029 A 
ATOM     27  C   UNL     1      -6.783  -2.078   0.147  0.00  0.00    +0.067 A 
ATOM     28  C   UNL     1      -6.375  -0.935  -0.544  0.00  0.00    +0.069 A 
ATOM     29  C   UNL     1      -5.027  -0.628  -0.639  0.00  0.00    +0.051 A 
ATOM     30  N   UNL     1      -7.530  -0.318  -1.020  0.00  0.00    -0.306 N 
ATOM     31  H   UNL     1      -7.564   0.500  -1.539  0.00  0.00    +0.170 HD
ATOM     32  C   UNL     1      -8.592  -1.051  -0.635  0.00  0.00    +0.325 A 
ATOM     33  O   UNL     1      -9.753  -0.788  -0.888  0.00  0.00    -0.247 OA
ATOM     34  N   UNL     1      -8.175  -2.119   0.070  0.00  0.00    -0.306 N 
ATOM     35  H   UNL     1      -8.745  -2.801   0.458  0.00  0.00    +0.170 HD
ENDBRANCH  22  24
ENDBRANCH  19  20
ENDBRANCH   1  19
TORSDOF 7
