REMARK  Name = ZINC20153297
REMARK  11 active torsions:
REMARK  status: ('A' for Active; 'I' for Inactive)
REMARK    1  A    between atoms: C_1  and  C_2
REMARK    2  A    between atoms: C_2  and  O_3
REMARK    3  A    between atoms: O_3  and  C_4
REMARK    4  A    between atoms: C_9  and  N_10
REMARK    5  A    between atoms: C_11  and  C_13
REMARK    6  A    between atoms: C_13  and  N_14
REMARK    7  A    between atoms: N_23  and  C_26
REMARK    8  A    between atoms: C_26  and  C_27
REMARK    9  A    between atoms: C_27  and  C_28
REMARK   10  A    between atoms: C_28  and  S_29
REMARK   11  A    between atoms: S_29  and  C_32
REMARK                            x       y       z     vdW  Elec       q    Type
REMARK                         _______ _______ _______ _____ _____    ______ ____
ROOT
ATOM      1  N   UNL     1       1.145   2.204   6.842  0.00  0.00    -0.284 N 
ATOM      2  C   UNL     1       0.945   0.994   7.491  0.00  0.00    +0.059 A 
ATOM      3  C   UNL     1       1.628   0.672   8.654  0.00  0.00    +0.027 A 
ATOM      4  C   UNL     1       1.400  -0.543   9.268  0.00  0.00    +0.002 A 
ATOM      5  C   UNL     1       0.494  -1.446   8.733  0.00  0.00    +0.001 A 
ATOM      6  C   UNL     1      -0.194  -1.143   7.578  0.00  0.00    +0.015 A 
ATOM      7  C   UNL     1       0.026   0.080   6.948  0.00  0.00    +0.063 A 
ATOM      8  C   UNL     1      -0.687   0.456   5.715  0.00  0.00    +0.264 A 
ATOM      9  O   UNL     1      -1.496  -0.297   5.207  0.00  0.00    -0.267 OA
ATOM     10  N   UNL     1      -0.415   1.657   5.160  0.00  0.00    -0.260 N 
ATOM     11  C   UNL     1       0.472   2.497   5.716  0.00  0.00    +0.333 A 
ATOM     12  O   UNL     1       0.676   3.568   5.178  0.00  0.00    -0.246 OA
ENDROOT
BRANCH   1  13
ATOM     13  C   UNL     1       2.098   3.172   7.390  0.00  0.00    +0.222 C 
BRANCH  13  15
ATOM     14  N   UNL     1       2.069   5.068   8.979  0.00  0.00    -0.281 N 
ATOM     15  C   UNL     1       1.386   4.090   8.350  0.00  0.00    +0.237 C 
ATOM     16  O   UNL     1       0.199   3.950   8.556  0.00  0.00    -0.274 OA
ATOM     17  H   UNL     1       3.160   5.139   8.863  0.00  0.00    +0.155 HD
BRANCH  14  23
ATOM     18  C   UNL     1       2.058   6.656  10.806  0.00  0.00    +0.142 A 
ATOM     19  C   UNL     1       1.380   7.570  11.596  0.00  0.00    +0.047 A 
ATOM     20  C   UNL     1       0.040   7.822  11.366  0.00  0.00    +0.004 A 
ATOM     21  C   UNL     1      -0.626   7.165  10.349  0.00  0.00    +0.002 A 
ATOM     22  C   UNL     1       0.045   6.256   9.553  0.00  0.00    +0.027 A 
ATOM     23  C   UNL     1       1.387   5.993   9.781  0.00  0.00    +0.076 A 
BRANCH  18  24
ATOM     24  O   UNL     1       3.376   6.407  11.031  0.00  0.00    -0.490 OA
BRANCH  24  26
ATOM     25  C   UNL     1       5.469   6.714  12.199  0.00  0.00    +0.048 C 
ATOM     26  C   UNL     1       3.998   7.123  12.100  0.00  0.00    +0.226 C 
ENDBRANCH  24  26
ENDBRANCH  18  24
ENDBRANCH  14  23
ENDBRANCH  13  15
ENDBRANCH   1  13
BRANCH  10  27
ATOM     27  C   UNL     1      -1.106   2.053   3.930  0.00  0.00    +0.131 C 
BRANCH  27  28
ATOM     28  C   UNL     1      -0.292   1.597   2.718  0.00  0.00    +0.044 C 
BRANCH  28  29
ATOM     29  C   UNL     1      -1.014   2.010   1.434  0.00  0.00    +0.168 C 
BRANCH  29  30
ATOM     30  S   UNL     1      -0.049   1.469  -0.004  0.00  0.00    -0.028 S 
ATOM     31  O   UNL     1      -0.026   0.048  -0.021  0.00  0.00    -0.174 OA
ATOM     32  O   UNL     1       1.181   2.180  -0.013  0.00  0.00    -0.174 OA
BRANCH  30  33
ATOM     33  C   UNL     1      -1.054   2.043  -1.401  0.00  0.00    +0.130 C 
ATOM     34  C   UNL     1      -2.474   1.490  -1.269  0.00  0.00    +0.026 C 
ATOM     35  C   UNL     1      -3.321   1.974  -2.447  0.00  0.00    +0.002 C 
ATOM     36  C   UNL     1      -2.702   1.484  -3.757  0.00  0.00    +0.000 C 
ATOM     37  C   UNL     1      -1.282   2.037  -3.889  0.00  0.00    +0.002 C 
ATOM     38  C   UNL     1      -0.434   1.553  -2.711  0.00  0.00    +0.026 C 
ENDBRANCH  30  33
ENDBRANCH  29  30
ENDBRANCH  28  29
ENDBRANCH  27  28
ENDBRANCH  10  27
TORSDOF 10
