REMARK  Name = ZINC03906401
REMARK  4 active torsions:
REMARK  status: ('A' for Active; 'I' for Inactive)
REMARK    1  A    between atoms: C_1  and  C_2
REMARK    2  A    between atoms: C_5  and  C_8
REMARK    3  A    between atoms: C_8  and  C_9
REMARK    4  A    between atoms: C_13  and  C_18
REMARK                            x       y       z     vdW  Elec       q    Type
REMARK                         _______ _______ _______ _____ _____    ______ ____
ROOT
ATOM      1  C   UNL     1       0.076  -4.990   1.241  0.00  0.00    +0.079 C 
ATOM      2  C   UNL     1       0.094  -6.347   1.234  0.00  0.00    +0.093 C 
ATOM      3  N   UNL     1       0.103  -7.075   0.049  0.00  0.00    -0.338 N 
ATOM      4  C   UNL     1      -0.669  -8.331   0.061  0.00  0.00    +0.123 C 
ATOM      5  C   UNL     1      -0.148  -9.216   1.192  0.00  0.00    +0.087 C 
ATOM      6  N   UNL     1      -0.045  -8.475   2.443  0.00  0.00    -0.306 N 
ATOM      7  C   UNL     1       0.111  -7.141   2.495  0.00  0.00    +0.258 C 
ATOM      8  O   UNL     1       0.261  -6.585   3.564  0.00  0.00    -0.269 OA
ATOM      9  C   UNL     1      -1.105 -10.394   1.387  0.00  0.00    +0.029 C 
ATOM     10  H   UNL     1      -0.088  -8.968   3.277  0.00  0.00    +0.149 HD
ATOM     11  H   UNL     1       0.588  -6.776  -0.737  0.00  0.00    +0.146 HD
ENDROOT
BRANCH   1  12
ATOM     12  C   UNL     1       0.060  -4.252  -0.021  0.00  0.00    +0.188 C 
ATOM     13  O   UNL     1       0.062  -4.855  -1.079  0.00  0.00    -0.287 OA
BRANCH  12  18
ATOM     14  C   UNL     1      -0.018   1.503   0.010  0.00  0.00    +0.044 C 
ATOM     15  C   UNL     1       0.002  -0.004   0.002  0.00  0.00    -0.050 A 
ATOM     16  C   UNL     1       0.006  -0.686  -1.202  0.00  0.00    +0.004 A 
ATOM     17  C   UNL     1       0.024  -2.065  -1.217  0.00  0.00    +0.012 A 
ATOM     18  C   UNL     1       0.040  -2.773  -0.013  0.00  0.00    +0.022 A 
ATOM     19  C   UNL     1       0.037  -2.079   1.198  0.00  0.00    +0.012 A 
ATOM     20  C   UNL     1       0.023  -0.699   1.198  0.00  0.00    +0.004 A 
ENDBRANCH  12  18
ENDBRANCH   1  12
TORSDOF 2
