REMARK  Name = ZINC04068272
REMARK  11 active torsions:
REMARK  status: ('A' for Active; 'I' for Inactive)
REMARK    1  A    between atoms: C_1  and  C_2
REMARK    2  A    between atoms: C_2  and  O_3
REMARK    3  A    between atoms: O_3  and  C_4
REMARK    4  A    between atoms: C_6  and  C_11
REMARK    5  A    between atoms: C_9  and  O_10
REMARK    6  A    between atoms: C_16  and  C_21
REMARK    7  A    between atoms: C_28  and  C_40
REMARK    8  A    between atoms: C_29  and  C_30
REMARK    9  A    between atoms: C_30  and  O_32
REMARK   10  A    between atoms: O_32  and  C_33
REMARK   11  A    between atoms: C_33  and  C_34
REMARK                            x       y       z     vdW  Elec       q    Type
REMARK                         _______ _______ _______ _____ _____    ______ ____
ROOT
ATOM      1  C   UNL     1       1.045   3.803  -0.049  0.00  0.00    +0.092 C 
ATOM      2  C   UNL     1       1.175   2.301  -0.021  0.00  0.00    +0.024 C 
ATOM      3  C   UNL     1       0.079   1.515   0.045  0.00  0.00    +0.016 C 
ATOM      4  C   UNL     1       0.202   0.012   0.077  0.00  0.00    +0.059 C 
ATOM      5  C   UNL     1       1.513  -0.383   0.761  0.00  0.00    +0.032 C 
ATOM      6  C   UNL     1       2.674   0.256  -0.010  0.00  0.00    +0.088 C 
ATOM      7  C   UNL     1       2.466   1.745  -0.062  0.00  0.00    +0.162 C 
ATOM      8  O   UNL     1       3.430   2.480  -0.141  0.00  0.00    -0.292 OA
ATOM      9  N   UNL     1      -1.172   2.070   0.080  0.00  0.00    -0.321 N 
ATOM     10  C   UNL     1      -1.377   3.354  -0.340  0.00  0.00    +0.016 C 
ATOM     11  C   UNL     1      -0.349   4.216  -0.422  0.00  0.00    +0.065 C 
ATOM     12  C   UNL     1      -2.765   3.806  -0.715  0.00  0.00    +0.061 C 
ATOM     13  H   UNL     1      -2.025   1.480   0.447  0.00  0.00    +0.152 HD
ENDROOT
BRANCH   1  16
ATOM     14  C   UNL     1       2.732   5.750   2.715  0.00  0.00    +0.162 A 
ATOM     15  C   UNL     1       2.428   5.239   1.463  0.00  0.00    +0.054 A 
ATOM     16  C   UNL     1       1.376   4.354   1.314  0.00  0.00    -0.032 A 
ATOM     17  C   UNL     1       0.632   3.970   2.413  0.00  0.00    +0.008 A 
ATOM     18  C   UNL     1       0.932   4.472   3.666  0.00  0.00    +0.049 A 
ATOM     19  C   UNL     1       1.982   5.363   3.821  0.00  0.00    +0.158 A 
BRANCH  19  20
ATOM     20  O   UNL     1       2.278   5.858   5.052  0.00  0.00    -0.503 OA
ATOM     21  H   UNL     1       1.685   5.552   5.926  0.00  0.00    +0.292 HD
ENDBRANCH  19  20
BRANCH  14  22
ATOM     22  O   UNL     1       3.763   6.624   2.862  0.00  0.00    -0.489 OA
BRANCH  22  24
ATOM     23  C   UNL     1       5.602   7.962   2.044  0.00  0.00    +0.048 C 
ATOM     24  C   UNL     1       4.489   6.976   1.683  0.00  0.00    +0.226 C 
ENDBRANCH  22  24
ENDBRANCH  14  22
ENDBRANCH   1  16
BRANCH   5  25
ATOM     25  C   UNL     1       1.660  -1.882   0.747  0.00  0.00    -0.044 A 
ATOM     26  C   UNL     1       1.690  -2.563  -0.456  0.00  0.00    +0.004 A 
ATOM     27  C   UNL     1       1.829  -3.938  -0.469  0.00  0.00    +0.000 A 
ATOM     28  C   UNL     1       1.929  -4.634   0.722  0.00  0.00    +0.000 A 
ATOM     29  C   UNL     1       1.894  -3.954   1.925  0.00  0.00    +0.000 A 
ATOM     30  C   UNL     1       1.759  -2.578   1.937  0.00  0.00    +0.004 A 
ENDBRANCH   5  25
BRANCH  11  31
ATOM     31  C   UNL     1      -0.585   5.537  -0.867  0.00  0.00    +0.338 C 
ATOM     32  O   UNL     1      -1.688   5.855  -1.271  0.00  0.00    -0.245 OA
BRANCH  31  33
ATOM     33  O   UNL     1       0.412   6.446  -0.845  0.00  0.00    -0.457 OA
BRANCH  33  34
ATOM     34  C   UNL     1       0.103   7.761  -1.309  0.00  0.00    +0.268 C 
BRANCH  34  35
ATOM     35  C   UNL     1       1.329   8.631  -1.210  0.00  0.00    -0.010 A 
ATOM     36  C   UNL     1       1.574   9.352  -0.056  0.00  0.00    +0.007 A 
ATOM     37  C   UNL     1       2.702  10.146   0.036  0.00  0.00    +0.000 A 
ATOM     38  C   UNL     1       3.580  10.227  -1.028  0.00  0.00    +0.000 A 
ATOM     39  C   UNL     1       3.332   9.509  -2.184  0.00  0.00    +0.000 A 
ATOM     40  C   UNL     1       2.207   8.711  -2.275  0.00  0.00    +0.007 A 
ENDBRANCH  34  35
ENDBRANCH  33  34
ENDBRANCH  31  33
ENDBRANCH  11  31
TORSDOF 9
