REMARK  Name = ZINC23777292
REMARK  7 active torsions:
REMARK  status: ('A' for Active; 'I' for Inactive)
REMARK    1  A    between atoms: C_4  and  C_7
REMARK    2  A    between atoms: C_8  and  C_9
REMARK    3  A    between atoms: C_9  and  N_10
REMARK    4  A    between atoms: N_13  and  C_16
REMARK    5  A    between atoms: C_16  and  C_17
REMARK    6  A    between atoms: C_20  and  C_34
REMARK    7  A    between atoms: C_23  and  C_25
REMARK                            x       y       z     vdW  Elec       q    Type
REMARK                         _______ _______ _______ _____ _____    ______ ____
ROOT
ATOM      1  C   UNL     1       7.788  -6.291   4.569  0.00  0.00    +0.249 C 
ATOM      2  O   UNL     1       8.595  -6.017   3.706  0.00  0.00    -0.272 OA
ATOM      3  N   UNL     1       8.109  -7.174   5.536  0.00  0.00    -0.181 N 
ATOM      4  C   UNL     1       9.399  -7.870   5.665  0.00  0.00    +0.173 C 
ATOM      5  C   UNL     1       9.216  -8.742   6.923  0.00  0.00    +0.093 C 
ATOM      6  C   UNL     1       7.808  -8.434   7.379  0.00  0.00    +0.104 C 
ATOM      7  N   UNL     1       7.275  -7.572   6.579  0.00  0.00    -0.178 NA
ENDROOT
BRANCH   6   8
ATOM      8  C   UNL     1       7.150  -9.020   8.552  0.00  0.00    +0.152 A 
ATOM      9  C   UNL     1       5.882  -8.746   8.956  0.00  0.00    +0.059 A 
ATOM     10  C   UNL     1       5.656  -9.551  10.157  0.00  0.00    +0.021 A 
ATOM     11  C   UNL     1       4.579  -9.717  11.029  0.00  0.00    +0.011 A 
ATOM     12  C   UNL     1       4.691 -10.571  12.090  0.00  0.00    +0.001 A 
ATOM     13  C   UNL     1       5.869 -11.272  12.306  0.00  0.00    +0.004 A 
ATOM     14  C   UNL     1       6.945 -11.121  11.456  0.00  0.00    +0.047 A 
ATOM     15  C   UNL     1       6.853 -10.260  10.370  0.00  0.00    +0.136 A 
ATOM     16  O   UNL     1       7.711  -9.917   9.388  0.00  0.00    -0.454 OA
ENDBRANCH   6   8
BRANCH   4  17
ATOM     17  C   UNL     1      10.518  -6.881   5.859  0.00  0.00    +0.128 A 
ATOM     18  C   UNL     1      11.748  -6.969   5.321  0.00  0.00    +0.046 A 
ATOM     19  C   UNL     1      12.470  -5.836   5.762  0.00  0.00    +0.041 A 
ATOM     20  C   UNL     1      11.639  -5.124   6.543  0.00  0.00    +0.195 A 
ATOM     21  O   UNL     1      10.456  -5.758   6.594  0.00  0.00    -0.466 OA
ENDBRANCH   4  17
BRANCH   1  22
ATOM     22  C   UNL     1       6.427  -5.645   4.561  0.00  0.00    +0.182 C 
BRANCH  22  26
ATOM     23  N   UNL     1       5.087  -3.681   1.066  0.00  0.00    +0.384 N 
ATOM     24  C   UNL     1       5.075  -2.929   2.328  0.00  0.00    -0.063 C 
ATOM     25  C   UNL     1       5.112  -3.907   3.504  0.00  0.00    +0.066 C 
ATOM     26  N   UNL     1       6.326  -4.730   3.416  0.00  0.00    -0.298 NA
ATOM     27  C   UNL     1       6.364  -5.470   2.146  0.00  0.00    +0.066 C 
ATOM     28  C   UNL     1       6.317  -4.479   0.981  0.00  0.00    -0.063 C 
ATOM     29  H   UNL     1       4.286  -4.293   1.032  0.00  0.00    -0.081 HD
BRANCH  23  30
ATOM     30  C   UNL     1       5.033  -2.743  -0.063  0.00  0.00    -0.051 C 
BRANCH  30  32
ATOM     31  C   UNL     1       3.695  -0.685  -0.038  0.00  0.00    +0.002 C 
ATOM     32  C   UNL     1       3.716  -2.010  -0.046  0.00  0.00    -0.045 C 
BRANCH  31  36
ATOM     33  C   UNL     1      -0.017   1.379   0.010  0.00  0.00    +0.000 A 
ATOM     34  C   UNL     1       1.168   2.093   0.002  0.00  0.00    +0.001 A 
ATOM     35  C   UNL     1       2.377   1.429  -0.013  0.00  0.00    +0.008 A 
ATOM     36  C   UNL     1       2.403   0.034  -0.021  0.00  0.00    -0.025 A 
ATOM     37  C   UNL     1       1.204  -0.681  -0.013  0.00  0.00    +0.008 A 
ATOM     38  C   UNL     1       0.002  -0.004   0.002  0.00  0.00    +0.001 A 
ENDBRANCH  31  36
ENDBRANCH  30  32
ENDBRANCH  23  30
ENDBRANCH  22  26
ENDBRANCH   1  22
TORSDOF 7
