REMARK  Name = ZINC17112413
REMARK  3 active torsions:
REMARK  status: ('A' for Active; 'I' for Inactive)
REMARK    1  A    between atoms: C_6  and  C_7
REMARK    2  A    between atoms: C_7  and  C_8
REMARK    3  A    between atoms: N_15  and  C_16
REMARK                            x       y       z     vdW  Elec       q    Type
REMARK                         _______ _______ _______ _____ _____    ______ ____
ROOT
ATOM      1  C   UNL     1       0.002  -0.004   0.002  0.00  0.00    +0.132 A 
ATOM      2  C   UNL     1      -0.017   1.408   0.010  0.00  0.00    +0.296 A 
ATOM      3  O   UNL     1      -1.072   2.020   0.018  0.00  0.00    -0.264 OA
ATOM      4  N   UNL     1       1.167   2.062   0.002  0.00  0.00    -0.175 NA
ATOM      5  C   UNL     1       2.315   1.330  -0.013  0.00  0.00    +0.213 A 
ATOM      6  N   UNL     1       2.267   0.009  -0.019  0.00  0.00    -0.248 N 
ATOM      7  N   UNL     1       1.154  -0.632  -0.012  0.00  0.00    -0.170 NA
ATOM      8  N   UNL     1       3.526   1.966  -0.021  0.00  0.00    -0.311 N 
ATOM      9  H   UNL     1       3.571   3.065  -0.016  0.00  0.00    +0.149 HD
ATOM     10  H   UNL     1       3.199  -0.575  -0.031  0.00  0.00    +0.192 HD
ENDROOT
BRANCH   8  11
ATOM     11  C   UNL     1       4.765   1.183  -0.037  0.00  0.00    +0.073 C 
ATOM     12  C   UNL     1       5.142   0.797   1.394  0.00  0.00    +0.022 C 
ATOM     13  C   UNL     1       6.435  -0.021   1.378  0.00  0.00    +0.002 C 
ATOM     14  C   UNL     1       7.559   0.815   0.762  0.00  0.00    +0.000 C 
ATOM     15  C   UNL     1       7.182   1.201  -0.670  0.00  0.00    +0.002 C 
ATOM     16  C   UNL     1       5.888   2.019  -0.653  0.00  0.00    +0.022 C 
ENDBRANCH   8  11
BRANCH   1  17
ATOM     17  C   UNL     1      -1.288  -0.782   0.011  0.00  0.00    +0.098 C 
BRANCH  17  23
ATOM     18  C   UNL     1      -0.864  -2.930  -1.202  0.00  0.00    +0.005 A 
ATOM     19  C   UNL     1      -0.580  -4.282  -1.213  0.00  0.00    +0.020 A 
ATOM     20  C   UNL     1      -0.429  -4.967  -0.020  0.00  0.00    +0.041 A 
ATOM     21  C   UNL     1      -0.556  -4.295   1.183  0.00  0.00    +0.020 A 
ATOM     22  C   UNL     1      -0.834  -2.942   1.192  0.00  0.00    +0.005 A 
ATOM     23  C   UNL     1      -0.985  -2.258  -0.000  0.00  0.00    -0.041 A 
ATOM     24 CL   UNL     1      -0.079  -6.667  -0.033  0.00  0.00    -0.084 Cl
ENDBRANCH  17  23
ENDBRANCH   1  17
TORSDOF 3
