REMARK  Name = ZINC36268192
REMARK  7 active torsions:
REMARK  status: ('A' for Active; 'I' for Inactive)
REMARK    1  A    between atoms: C_1  and  O_2
REMARK    2  A    between atoms: O_2  and  C_3
REMARK    3  A    between atoms: C_8  and  N_10
REMARK    4  A    between atoms: N_10  and  C_11
REMARK    5  A    between atoms: C_14  and  S_20
REMARK    6  A    between atoms: C_16  and  N_17
REMARK    7  A    between atoms: S_20  and  N_23
REMARK                            x       y       z     vdW  Elec       q    Type
REMARK                         _______ _______ _______ _____ _____    ______ ____
ROOT
ATOM      1  C   UNL     1      -1.769  -3.329  -0.386  0.00  0.00    +0.058 A 
ATOM      2  C   UNL     1      -2.224  -3.675  -1.652  0.00  0.00    +0.027 A 
ATOM      3  C   UNL     1      -3.026  -4.787  -1.816  0.00  0.00    +0.030 A 
ATOM      4  C   UNL     1      -3.376  -5.556  -0.721  0.00  0.00    +0.107 A 
ATOM      5  C   UNL     1      -2.924  -5.215   0.541  0.00  0.00    +0.063 A 
ATOM      6  C   UNL     1      -2.117  -4.107   0.710  0.00  0.00    +0.149 A 
ENDROOT
BRANCH   6   7
ATOM      7  N   UNL     1      -1.629  -3.745   2.060  0.00  0.00    +0.058 N 
ATOM      8  O   UNL     1      -0.513  -3.303   2.201  0.00  0.00    -0.126 OA
ATOM      9  O   UNL     1      -2.347  -3.893   3.022  0.00  0.00    -0.126 OA
ENDBRANCH   6   7
BRANCH   4  10
ATOM     10  S   UNL     1      -4.399  -6.975  -0.934  0.00  0.00    +0.056 S 
ATOM     11  O   UNL     1      -5.030  -7.212   0.317  0.00  0.00    -0.153 OA
ATOM     12  O   UNL     1      -5.136  -6.768  -2.131  0.00  0.00    -0.153 OA
BRANCH  10  13
ATOM     13  N   UNL     1      -3.398  -8.264  -1.212  0.00  0.00    -0.204 NA
ATOM     14  H   UNL     1      -2.436  -8.136  -1.230  0.00  0.00    +0.144 HD
ATOM     15  H   UNL     1      -3.772  -9.147  -1.356  0.00  0.00    +0.144 HD
ENDBRANCH  10  13
ENDBRANCH   4  10
BRANCH   1  16
ATOM     16  N   UNL     1      -0.957  -2.205  -0.217  0.00  0.00    -0.339 N 
ATOM     17  H   UNL     1      -0.707  -1.916   0.674  0.00  0.00    +0.146 HD
BRANCH  16  22
ATOM     18  C   UNL     1      -0.171   0.003  -1.002  0.00  0.00    +0.119 C 
ATOM     19  C   UNL     1       1.360  -0.015  -0.763  0.00  0.00    -0.049 C 
ATOM     20  N   UNL     1       1.856  -0.948  -1.808  0.00  0.00    +0.382 N 
ATOM     21  C   UNL     1       0.861  -2.039  -1.879  0.00  0.00    -0.058 C 
ATOM     22  C   UNL     1      -0.482  -1.462  -1.387  0.00  0.00    +0.080 C 
ATOM     23  H   UNL     1       1.917  -0.473  -2.696  0.00  0.00    -0.086 HD
ATOM     24  H   UNL     1       2.758  -1.316  -1.546  0.00  0.00    -0.086 HD
BRANCH  18  26
ATOM     25  C   UNL     1      -1.154   1.766   0.289  0.00  0.00    +0.194 C 
ATOM     26  O   UNL     1      -0.865   0.371   0.192  0.00  0.00    -0.380 OA
ENDBRANCH  18  26
ENDBRANCH  16  22
ENDBRANCH   1  16
TORSDOF 6
