REMARK  Name = ZINC05861868
REMARK  5 active torsions:
REMARK  status: ('A' for Active; 'I' for Inactive)
REMARK    1  A    between atoms: C_1  and  C_2
REMARK    2  A    between atoms: C_3  and  C_15
REMARK    3  A    between atoms: C_4  and  C_10
REMARK    4  A    between atoms: N_17  and  C_18
REMARK    5  A    between atoms: C_23  and  C_24
REMARK                            x       y       z     vdW  Elec       q    Type
REMARK                         _______ _______ _______ _____ _____    ______ ____
ROOT
ATOM      1  C   UNL     1       4.512   0.396   2.769  0.00  0.00    +0.061 C 
ATOM      2  C   UNL     1       3.535   0.289   1.627  0.00  0.00    +0.017 C 
ATOM      3  C   UNL     1       2.687   1.310   1.381  0.00  0.00    +0.056 C 
ATOM      4  C   UNL     1       1.722   1.162   0.223  0.00  0.00    +0.140 C 
ATOM      5  N   UNL     1       1.788  -0.092  -0.545  0.00  0.00    -0.315 N 
ATOM      6  C   UNL     1       2.692  -1.022  -0.177  0.00  0.00    +0.135 C 
ATOM      7  S   UNL     1       2.781  -2.486  -1.061  0.00  0.00    -0.019 S 
ATOM      8  N   UNL     1       3.522  -0.838   0.857  0.00  0.00    -0.300 N 
ATOM      9  H   UNL     1       1.196  -0.246  -1.298  0.00  0.00    +0.149 HD
ATOM     10  H   UNL     1       4.151  -1.546   1.071  0.00  0.00    +0.154 HD
ENDROOT
BRANCH   4  11
ATOM     11  C   UNL     1       0.322   1.302   0.763  0.00  0.00    -0.016 A 
ATOM     12  C   UNL     1      -0.360   2.499   0.645  0.00  0.00    +0.013 A 
ATOM     13  C   UNL     1      -1.617   2.591   1.143  0.00  0.00    +0.045 A 
ATOM     14  S   UNL     1      -1.876   0.951   1.798  0.00  0.00    -0.105 S 
ATOM     15  C   UNL     1      -0.288   0.256   1.373  0.00  0.00    +0.051 A 
ENDBRANCH   4  11
BRANCH   3  16
ATOM     16  C   UNL     1       2.699   2.480   2.179  0.00  0.00    +0.248 C 
ATOM     17  O   UNL     1       3.216   3.499   1.758  0.00  0.00    -0.270 OA
ATOM     18  N   UNL     1       2.139   2.466   3.405  0.00  0.00    -0.281 N 
ATOM     19  H   UNL     1       1.813   1.633   3.780  0.00  0.00    +0.155 HD
BRANCH  18  20
ATOM     20  C   UNL     1       2.028   3.653   4.137  0.00  0.00    +0.045 A 
ATOM     21  C   UNL     1       2.933   4.686   3.929  0.00  0.00    +0.024 A 
ATOM     22  C   UNL     1       2.821   5.856   4.653  0.00  0.00    +0.002 A 
ATOM     23  C   UNL     1       1.809   6.000   5.585  0.00  0.00    +0.001 A 
ATOM     24  C   UNL     1       0.906   4.974   5.794  0.00  0.00    +0.014 A 
ATOM     25  C   UNL     1       1.010   3.803   5.069  0.00  0.00    +0.076 A 
BRANCH  25  26
ATOM     26  C   UNL     1       0.022   2.687   5.293  0.00  0.00    +0.419 C 
ATOM     27  F   UNL     1      -0.921   3.084   6.247  0.00  0.00    -0.166 F 
ATOM     28  F   UNL     1      -0.628   2.390   4.090  0.00  0.00    -0.166 F 
ATOM     29  F   UNL     1       0.698   1.551   5.751  0.00  0.00    -0.166 F 
ENDBRANCH  25  26
ENDBRANCH  18  20
ENDBRANCH   3  16
TORSDOF 4
