REMARK  Name = ZINC09952454
REMARK  5 active torsions:
REMARK  status: ('A' for Active; 'I' for Inactive)
REMARK    1  A    between atoms: C_7  and  N_29
REMARK    2  A    between atoms: C_8  and  S_15
REMARK    3  A    between atoms: S_15  and  C_16
REMARK    4  A    between atoms: N_21  and  C_22
REMARK    5  A    between atoms: C_22  and  C_23
REMARK                            x       y       z     vdW  Elec       q    Type
REMARK                         _______ _______ _______ _____ _____    ______ ____
ROOT
ATOM      1  C   UNL     1       0.631   1.183  -0.725  0.00  0.00    +0.005 C 
ATOM      2  C   UNL     1       2.122   1.529  -0.766  0.00  0.00    +0.005 C 
ATOM      3  C   UNL     1       2.701   1.378   0.648  0.00  0.00    +0.043 C 
ATOM      4  C   UNL     1       2.246   0.066   1.208  0.00  0.00    -0.004 A 
ATOM      5  C   UNL     1       1.254  -0.726   0.741  0.00  0.00    -0.026 A 
ATOM      6  C   UNL     1       1.006  -1.960   1.470  0.00  0.00    +0.031 A 
ATOM      7  C   UNL     1      -0.021  -2.977   1.148  0.00  0.00    +0.054 A 
ATOM      8  C   UNL     1      -0.070  -4.080   1.992  0.00  0.00    +0.100 A 
ATOM      9  C   UNL     1       0.796  -4.222   3.080  0.00  0.00    +0.265 A 
ATOM     10  O   UNL     1       0.701  -5.216   3.784  0.00  0.00    -0.267 OA
ATOM     11  N   UNL     1       1.738  -3.296   3.381  0.00  0.00    -0.316 N 
ATOM     12  H   UNL     1       2.331  -3.412   4.140  0.00  0.00    +0.169 HD
ATOM     13  C   UNL     1       1.826  -2.198   2.584  0.00  0.00    +0.090 A 
ATOM     14  S   UNL     1       2.888  -0.788   2.626  0.00  0.00    -0.075 S 
ATOM     15  C   UNL     1       0.453  -0.318  -0.492  0.00  0.00    +0.036 C 
ENDROOT
BRANCH   7  16
ATOM     16  N   UNL     1      -0.881  -2.837   0.070  0.00  0.00    -0.356 N 
ATOM     17  H   UNL     1      -0.683  -2.194  -0.628  0.00  0.00    +0.142 HD
ATOM     18  H   UNL     1      -1.681  -3.382   0.015  0.00  0.00    +0.142 HD
ENDBRANCH   7  16
BRANCH   8  19
ATOM     19  S   UNL     1      -1.263  -5.338   1.681  0.00  0.00    -0.054 S 
BRANCH  19  20
ATOM     20  C   UNL     1      -2.339  -5.259   3.074  0.00  0.00    +0.165 A 
ATOM     21  N   UNL     1      -2.349  -4.399   4.075  0.00  0.00    -0.133 NA
ATOM     22  N   UNL     1      -3.290  -4.521   5.072  0.00  0.00    -0.125 NA
ATOM     23  C   UNL     1      -4.177  -5.495   5.022  0.00  0.00    +0.182 A 
ATOM     24  S   UNL     1      -3.714  -6.316   3.504  0.00  0.00    -0.024 S 
ATOM     25  N   UNL     1      -5.202  -5.799   5.910  0.00  0.00    -0.320 N 
ATOM     26  H   UNL     1      -5.782  -6.558   5.739  0.00  0.00    +0.148 HD
BRANCH  25  27
ATOM     27  C   UNL     1      -5.405  -4.975   7.104  0.00  0.00    +0.135 C 
BRANCH  27  28
ATOM     28  C   UNL     1      -6.589  -5.521   7.905  0.00  0.00    +0.135 C 
ATOM     29  C   UNL     1      -6.843  -4.642   9.155  0.00  0.00    +0.035 C 
ATOM     30  C   UNL     1      -8.348  -4.928   9.416  0.00  0.00    +0.031 C 
ATOM     31  C   UNL     1      -8.900  -5.105   7.985  0.00  0.00    +0.160 C 
ATOM     32  O   UNL     1      -7.796  -5.436   7.132  0.00  0.00    -0.375 OA
ENDBRANCH  27  28
ENDBRANCH  25  27
ENDBRANCH  19  20
ENDBRANCH   8  19
TORSDOF 5
