REMARK  Name = ZINC21472052
REMARK  9 active torsions:
REMARK  status: ('A' for Active; 'I' for Inactive)
REMARK    1  A    between atoms: C_1  and  C_2
REMARK    2  A    between atoms: C_2  and  C_3
REMARK    3  A    between atoms: C_3  and  C_4
REMARK    4  A    between atoms: N_8  and  C_12
REMARK    5  A    between atoms: C_12  and  C_13
REMARK    6  A    between atoms: C_16  and  C_27
REMARK    7  A    between atoms: C_19  and  C_21
REMARK    8  A    between atoms: C_30  and  O_33
REMARK    9  A    between atoms: O_33  and  C_34
REMARK                            x       y       z     vdW  Elec       q    Type
REMARK                         _______ _______ _______ _____ _____    ______ ____
ROOT
ATOM      1  C   UNL     1      -5.156  -3.112  -2.147  0.00  0.00    +0.253 C 
ATOM      2  O   UNL     1      -4.814  -1.973  -2.383  0.00  0.00    -0.272 OA
ATOM      3  N   UNL     1      -6.359  -3.554  -2.565  0.00  0.00    -0.184 N 
ATOM      4  C   UNL     1      -7.347  -2.765  -3.318  0.00  0.00    +0.137 C 
ATOM      5  C   UNL     1      -8.514  -3.751  -3.526  0.00  0.00    +0.087 C 
ATOM      6  C   UNL     1      -8.045  -5.019  -2.850  0.00  0.00    +0.069 C 
ATOM      7  N   UNL     1      -6.868  -4.835  -2.359  0.00  0.00    -0.181 NA
ENDROOT
BRANCH   6   8
ATOM      8  C   UNL     1      -8.813  -6.275  -2.769  0.00  0.00    -0.002 A 
ATOM      9  C   UNL     1     -10.081  -6.361  -3.351  0.00  0.00    +0.010 A 
ATOM     10  C   UNL     1     -10.794  -7.538  -3.272  0.00  0.00    +0.001 A 
ATOM     11  C   UNL     1     -10.257  -8.633  -2.618  0.00  0.00    +0.000 A 
ATOM     12  C   UNL     1      -9.003  -8.556  -2.039  0.00  0.00    +0.001 A 
ATOM     13  C   UNL     1      -8.275  -7.386  -2.116  0.00  0.00    +0.010 A 
ENDBRANCH   6   8
BRANCH   4  14
ATOM     14  C   UNL     1      -6.776  -2.327  -4.643  0.00  0.00    -0.024 A 
ATOM     15  C   UNL     1      -5.971  -3.188  -5.366  0.00  0.00    +0.009 A 
ATOM     16  C   UNL     1      -5.447  -2.788  -6.580  0.00  0.00    +0.046 A 
ATOM     17  C   UNL     1      -5.729  -1.522  -7.073  0.00  0.00    +0.120 A 
ATOM     18  C   UNL     1      -6.537  -0.661  -6.346  0.00  0.00    +0.046 A 
ATOM     19  C   UNL     1      -7.063  -1.067  -5.135  0.00  0.00    +0.009 A 
BRANCH  17  20
ATOM     20  O   UNL     1      -5.214  -1.127  -8.267  0.00  0.00    -0.495 OA
ATOM     21  C   UNL     1      -5.546   0.190  -8.713  0.00  0.00    +0.277 C 
ENDBRANCH  17  20
ENDBRANCH   4  14
BRANCH   1  22
ATOM     22  C   UNL     1      -4.237  -4.033  -1.387  0.00  0.00    +0.215 C 
BRANCH  22  26
ATOM     23  C   UNL     1      -1.413  -2.063   0.004  0.00  0.00    +0.161 C 
ATOM     24  C   UNL     1      -2.822  -2.616   0.086  0.00  0.00    +0.244 C 
ATOM     25  O   UNL     1      -3.620  -2.457   0.985  0.00  0.00    -0.273 OA
ATOM     26  N   UNL     1      -3.003  -3.321  -1.048  0.00  0.00    -0.216 N 
ATOM     27  C   UNL     1      -1.915  -3.290  -1.827  0.00  0.00    +0.310 C 
ATOM     28  O   UNL     1      -1.838  -3.852  -2.902  0.00  0.00    -0.252 OA
ATOM     29  N   UNL     1      -0.913  -2.568  -1.286  0.00  0.00    -0.288 N 
ATOM     30  H   UNL     1      -0.037  -2.410  -1.670  0.00  0.00    +0.151 HD
BRANCH  23  31
ATOM     31  C   UNL     1      -1.433  -0.534   0.013  0.00  0.00    +0.031 C 
BRANCH  31  33
ATOM     32  C   UNL     1      -0.019   1.526   0.010  0.00  0.00    +0.004 C 
ATOM     33  C   UNL     1       0.002  -0.004   0.002  0.00  0.00    -0.001 C 
ENDBRANCH  31  33
ENDBRANCH  23  31
ENDBRANCH  22  26
ENDBRANCH   1  22
TORSDOF 7
