REMARK  Name = ZINC24176240
REMARK  13 active torsions:
REMARK  status: ('A' for Active; 'I' for Inactive)
REMARK    1  A    between atoms: C_1  and  C_2
REMARK    2  A    between atoms: C_2  and  O_3
REMARK    3  A    between atoms: O_3  and  C_4
REMARK    4  A    between atoms: C_4  and  C_6
REMARK    5  A    between atoms: C_6  and  C_7
REMARK    6  A    between atoms: C_10  and  S_18
REMARK    7  A    between atoms: N_11  and  C_12
REMARK    8  A    between atoms: C_12  and  C_13
REMARK    9  A    between atoms: S_18  and  C_19
REMARK   10  A    between atoms: C_19  and  C_20
REMARK   11  A    between atoms: N_22  and  C_23
REMARK   12  A    between atoms: C_24  and  C_34
REMARK   13  A    between atoms: C_29  and  C_33
REMARK                            x       y       z     vdW  Elec       q    Type
REMARK                         _______ _______ _______ _____ _____    ______ ____
ROOT
ATOM      1  S   UNL     1      -6.141   3.305   0.049  0.00  0.00    -0.077 S 
ENDROOT
BRANCH   1   5
ATOM      2  C   UNL     1      -9.768   1.870   0.059  0.00  0.00    +0.145 A 
ATOM      3  N   UNL     1      -9.038   0.791   0.049  0.00  0.00    -0.133 NA
ATOM      4  N   UNL     1      -7.791   1.101   0.040  0.00  0.00    -0.122 NA
ATOM      5  C   UNL     1      -7.657   2.407   0.052  0.00  0.00    +0.192 A 
ATOM      6  N   UNL     1      -8.915   2.939   0.061  0.00  0.00    -0.298 N 
BRANCH   2   7
ATOM      7  C   UNL     1     -11.274   1.929   0.066  0.00  0.00    +0.196 C 
BRANCH   7   8
ATOM      8  C   UNL     1     -11.783   1.957  -1.353  0.00  0.00    +0.315 C 
ATOM      9  O   UNL     1     -11.002   1.931  -2.275  0.00  0.00    -0.250 OA
BRANCH   8  10
ATOM     10  O   UNL     1     -13.102   2.011  -1.592  0.00  0.00    -0.465 OA
BRANCH  10  12
ATOM     11  C   UNL     1     -15.047   2.096  -3.055  0.00  0.00    +0.048 C 
ATOM     12  C   UNL     1     -13.520   2.035  -2.982  0.00  0.00    +0.229 C 
ENDBRANCH  10  12
ENDBRANCH   8  10
ENDBRANCH   7   8
ENDBRANCH   2   7
BRANCH   6  13
ATOM     13  C   UNL     1      -9.276   4.359   0.070  0.00  0.00    +0.199 C 
BRANCH  13  14
ATOM     14  C   UNL     1      -9.405   4.854  -1.347  0.00  0.00    +0.125 A 
ATOM     15  C   UNL     1     -10.529   4.838  -2.086  0.00  0.00    +0.046 A 
ATOM     16  C   UNL     1     -10.200   5.395  -3.344  0.00  0.00    +0.041 A 
ATOM     17  C   UNL     1      -8.893   5.710  -3.301  0.00  0.00    +0.195 A 
ATOM     18  O   UNL     1      -8.417   5.379  -2.089  0.00  0.00    -0.466 OA
ENDBRANCH  13  14
ENDBRANCH   6  13
ENDBRANCH   1   5
BRANCH   1  19
ATOM     19  C   UNL     1      -4.963   1.931   0.036  0.00  0.00    +0.173 C 
BRANCH  19  20
ATOM     20  C   UNL     1      -3.557   2.475   0.032  0.00  0.00    +0.228 C 
ATOM     21  O   UNL     1      -3.370   3.673   0.037  0.00  0.00    -0.275 OA
ATOM     22  N   UNL     1      -2.507   1.629   0.023  0.00  0.00    -0.278 N 
ATOM     23  H   UNL     1      -2.677   0.543   0.018  0.00  0.00    +0.155 HD
BRANCH  22  24
ATOM     24  C   UNL     1      -1.213   2.130   0.019  0.00  0.00    +0.090 A 
ATOM     25  C   UNL     1      -0.017   1.428   0.010  0.00  0.00    +0.084 A 
ATOM     26  C   UNL     1       1.214   2.197   0.002  0.00  0.00    -0.018 A 
ATOM     27  C   UNL     1       1.054   3.539   0.010  0.00  0.00    -0.004 A 
ATOM     28  S   UNL     1      -0.699   3.785   0.028  0.00  0.00    -0.077 S 
ATOM     29  C   UNL     1       2.133   4.578   0.004  0.00  0.00    +0.046 C 
ATOM     30  C   UNL     1       3.454   3.900  -0.390  0.00  0.00    -0.009 C 
ATOM     31  C   UNL     1       3.620   2.623   0.440  0.00  0.00    +0.008 C 
ATOM     32  C   UNL     1       2.604   1.573  -0.013  0.00  0.00    +0.037 C 
ATOM     33  C   UNL     1       4.623   4.848  -0.112  0.00  0.00    +0.008 C 
BRANCH  25  34
ATOM     34  C   UNL     1       0.002  -0.004   0.002  0.00  0.00    +0.102 C 
ATOM     35  N   UNL     1       0.018  -1.140  -0.004  0.00  0.00    -0.191 NA
ENDBRANCH  25  34
ENDBRANCH  22  24
ENDBRANCH  19  20
ENDBRANCH   1  19
TORSDOF 11
