REMARK  Name = ZINC39934598
REMARK  5 active torsions:
REMARK  status: ('A' for Active; 'I' for Inactive)
REMARK    1  A    between atoms: C_4  and  C_7
REMARK    2  A    between atoms: C_13  and  C_36
REMARK    3  A    between atoms: N_15  and  C_18
REMARK    4  A    between atoms: C_18  and  C_19
REMARK    5  A    between atoms: C_25  and  C_30
REMARK                            x       y       z     vdW  Elec       q    Type
REMARK                         _______ _______ _______ _____ _____    ______ ____
ROOT
ATOM      1  C   UNL     1       3.695  -0.684  -0.037  0.00  0.00    +0.022 A 
ATOM      2  C   UNL     1       3.920  -2.027  -0.052  0.00  0.00    +0.031 A 
ATOM      3  C   UNL     1       5.253  -2.446  -0.068  0.00  0.00    +0.066 A 
ATOM      4  C   UNL     1       6.215  -1.419  -0.060  0.00  0.00    +0.080 A 
ATOM      5  S   UNL     1       5.345  -0.006  -0.051  0.00  0.00    -0.073 S 
ATOM      6  N   UNL     1       7.564  -1.668  -0.063  0.00  0.00    -0.319 N 
ATOM      7  C   UNL     1       7.998  -2.966  -0.607  0.00  0.00    +0.177 C 
ATOM      8  N   UNL     1       7.074  -4.032  -0.233  0.00  0.00    -0.271 N 
ATOM      9  C   UNL     1       5.747  -3.845  -0.080  0.00  0.00    +0.251 C 
ATOM     10  O   UNL     1       4.985  -4.786   0.044  0.00  0.00    -0.270 OA
ATOM     11  H   UNL     1       8.201  -1.020   0.277  0.00  0.00    +0.148 HD
ENDROOT
BRANCH   1  15
ATOM     12  C   UNL     1      -0.017   1.379   0.010  0.00  0.00    +0.000 A 
ATOM     13  C   UNL     1       1.168   2.094   0.002  0.00  0.00    +0.001 A 
ATOM     14  C   UNL     1       2.377   1.430  -0.013  0.00  0.00    +0.009 A 
ATOM     15  C   UNL     1       2.404   0.034  -0.021  0.00  0.00    -0.011 A 
ATOM     16  C   UNL     1       1.204  -0.681  -0.013  0.00  0.00    +0.009 A 
ATOM     17  C   UNL     1       0.002  -0.004   0.002  0.00  0.00    +0.001 A 
ENDBRANCH   1  15
BRANCH   7  18
ATOM     18  C   UNL     1       8.063  -2.873  -2.133  0.00  0.00    +0.150 C 
ATOM     19 CL   UNL     1       6.432  -2.460  -2.780  0.00  0.00    -0.122 Cl
ENDBRANCH   7  18
BRANCH   8  20
ATOM     20  C   UNL     1       7.616  -5.375  -0.013  0.00  0.00    +0.183 C 
BRANCH  20  21
ATOM     21  C   UNL     1       8.004  -5.529   1.435  0.00  0.00    +0.141 C 
ATOM     22  N   UNL     1       7.811  -4.513   2.241  0.00  0.00    -0.160 NA
ATOM     23  C   UNL     1       8.123  -4.551   3.541  0.00  0.00    +0.271 C 
ATOM     24  O   UNL     1       7.930  -3.587   4.263  0.00  0.00    -0.268 OA
ATOM     25  C   UNL     1       8.715  -5.816   4.082  0.00  0.00    +0.068 C 
ATOM     26  C   UNL     1       9.101  -6.083   5.339  0.00  0.00    +0.008 C 
ATOM     27  C   UNL     1       9.673  -7.452   5.623  0.00  0.00    +0.106 C 
ATOM     28  S   UNL     1       9.588  -8.244   3.966  0.00  0.00    -0.093 S 
ATOM     29  C   UNL     1       8.880  -6.883   3.072  0.00  0.00    +0.112 C 
ATOM     30  N   UNL     1       8.517  -6.685   1.827  0.00  0.00    -0.226 NA
BRANCH  27  31
ATOM     31  C   UNL     1      11.099  -7.353   6.102  0.00  0.00    -0.030 A 
ATOM     32  C   UNL     1      12.059  -6.770   5.297  0.00  0.00    +0.005 A 
ATOM     33  C   UNL     1      13.367  -6.679   5.736  0.00  0.00    +0.000 A 
ATOM     34  C   UNL     1      13.714  -7.170   6.981  0.00  0.00    +0.000 A 
ATOM     35  C   UNL     1      12.753  -7.752   7.787  0.00  0.00    +0.000 A 
ATOM     36  C   UNL     1      11.444  -7.839   7.349  0.00  0.00    +0.005 A 
ENDBRANCH  27  31
ENDBRANCH  20  21
ENDBRANCH   8  20
TORSDOF 5
