REMARK  Name = ZINC02406787
REMARK  8 active torsions:
REMARK  status: ('A' for Active; 'I' for Inactive)
REMARK    1  A    between atoms: C_1  and  C_2
REMARK    2  A    between atoms: C_2  and  C_3
REMARK    3  A    between atoms: C_3  and  C_4
REMARK    4  A    between atoms: N_7  and  C_9
REMARK    5  A    between atoms: C_16  and  N_38
REMARK    6  A    between atoms: C_17  and  C_36
REMARK    7  A    between atoms: N_25  and  C_28
REMARK    8  A    between atoms: C_28  and  C_29
REMARK                            x       y       z     vdW  Elec       q    Type
REMARK                         _______ _______ _______ _____ _____    ______ ____
ROOT
ATOM      1  C   UNL     1       2.279   0.214   3.242  0.00  0.00    +0.072 A 
ATOM      2  C   UNL     1       2.945  -0.016   2.046  0.00  0.00    +0.062 A 
ATOM      3  C   UNL     1       4.280  -0.140   2.322  0.00  0.00    +0.230 A 
ATOM      4  N   UNL     1       4.435   0.010   3.655  0.00  0.00    -0.200 N 
ATOM      5  N   UNL     1       3.165   0.232   4.210  0.00  0.00    -0.168 NA
ATOM      6  O   UNL     1       5.207  -0.372   1.360  0.00  0.00    -0.423 OA
ATOM      7  C   UNL     1       4.771  -0.750   0.141  0.00  0.00    +0.201 C 
ATOM      8  C   UNL     1       3.479  -0.664  -0.254  0.00  0.00    +0.110 C 
ATOM      9  C   UNL     1       2.402  -0.129   0.650  0.00  0.00    +0.145 C 
ATOM     10  C   UNL     1       1.883   1.183   0.156  0.00  0.00    -0.001 A 
ATOM     11  C   UNL     1       2.504   2.397  -0.045  0.00  0.00    +0.007 A 
ATOM     12  C   UNL     1       1.717   3.437  -0.528  0.00  0.00    +0.000 A 
ATOM     13  C   UNL     1       0.374   3.259  -0.792  0.00  0.00    +0.002 A 
ATOM     14  C   UNL     1      -0.257   2.041  -0.596  0.00  0.00    +0.024 A 
ATOM     15  C   UNL     1       0.522   0.990  -0.108  0.00  0.00    +0.041 A 
ATOM     16  N   UNL     1       0.156  -0.314   0.178  0.00  0.00    -0.265 N 
ATOM     17  C   UNL     1       1.198  -1.045   0.628  0.00  0.00    +0.241 C 
ATOM     18  O   UNL     1       1.173  -2.213   0.953  0.00  0.00    -0.274 OA
ENDROOT
BRANCH   4  19
ATOM     19  C   UNL     1       5.646  -0.045   4.358  0.00  0.00    +0.069 A 
ATOM     20  C   UNL     1       6.646  -0.920   3.954  0.00  0.00    +0.028 A 
ATOM     21  C   UNL     1       7.840  -0.969   4.646  0.00  0.00    +0.002 A 
ATOM     22  C   UNL     1       8.036  -0.155   5.747  0.00  0.00    +0.000 A 
ATOM     23  C   UNL     1       7.041   0.713   6.155  0.00  0.00    +0.002 A 
ATOM     24  C   UNL     1       5.846   0.770   5.464  0.00  0.00    +0.028 A 
ENDBRANCH   4  19
BRANCH   7  25
ATOM     25  N   UNL     1       5.689  -1.248  -0.750  0.00  0.00    -0.328 N 
ATOM     26  H   UNL     1       6.622  -1.321  -0.495  0.00  0.00    +0.145 HD
ATOM     27  H   UNL     1       5.405  -1.528  -1.634  0.00  0.00    +0.145 HD
ENDBRANCH   7  25
BRANCH   8  28
ATOM     28  C   UNL     1       3.127  -1.096  -1.573  0.00  0.00    +0.102 C 
ATOM     29  N   UNL     1       2.847  -1.439  -2.619  0.00  0.00    -0.191 NA
ENDBRANCH   8  28
BRANCH   1  30
ATOM     30  C   UNL     1       0.793   0.411   3.401  0.00  0.00    +0.057 C 
BRANCH  30  32
ATOM     31  C   UNL     1      -1.387  -0.745   3.796  0.00  0.00    +0.004 C 
ATOM     32  C   UNL     1       0.122  -0.944   3.635  0.00  0.00    +0.003 C 
ENDBRANCH  30  32
ENDBRANCH   1  30
BRANCH  16  33
ATOM     33  C   UNL     1      -1.201  -0.840   0.012  0.00  0.00    +0.150 C 
BRANCH  33  34
ATOM     34  C   UNL     1      -1.287  -1.612  -1.279  0.00  0.00    -0.011 A 
ATOM     35  C   UNL     1      -1.087  -2.980  -1.281  0.00  0.00    +0.006 A 
ATOM     36  C   UNL     1      -1.165  -3.689  -2.465  0.00  0.00    +0.000 A 
ATOM     37  C   UNL     1      -1.443  -3.031  -3.648  0.00  0.00    +0.001 A 
ATOM     38  C   UNL     1      -1.643  -1.663  -3.648  0.00  0.00    +0.020 A 
ATOM     39  C   UNL     1      -1.570  -0.954  -2.462  0.00  0.00    +0.046 A 
ATOM     40 CL   UNL     1      -1.828   0.763  -2.461  0.00  0.00    -0.083 Cl
ENDBRANCH  33  34
ENDBRANCH  16  33
TORSDOF 7
