REMARK  Name = ZINC04259092
REMARK  4 active torsions:
REMARK  status: ('A' for Active; 'I' for Inactive)
REMARK    1  A    between atoms: C_3  and  C_37
REMARK    2  A    between atoms: C_5  and  N_7
REMARK    3  A    between atoms: N_10  and  C_11
REMARK    4  A    between atoms: N_29  and  C_30
REMARK                            x       y       z     vdW  Elec       q    Type
REMARK                         _______ _______ _______ _____ _____    ______ ____
ROOT
ATOM      1  C   UNL     1       2.257  -1.191  -3.365  0.00  0.00    +0.100 A 
ATOM      2  C   UNL     1       2.867   0.014  -3.586  0.00  0.00    +0.030 A 
ATOM      3  C   UNL     1       2.328   1.162  -2.995  0.00  0.00    +0.024 A 
ATOM      4  C   UNL     1       1.225   1.082  -2.205  0.00  0.00    +0.027 A 
ATOM      5  N   UNL     1       0.666  -0.119  -1.920  0.00  0.00    -0.310 N 
ATOM      6  C   UNL     1       1.123  -1.239  -2.532  0.00  0.00    +0.273 A 
ATOM      7  O   UNL     1       0.546  -2.301  -2.359  0.00  0.00    -0.266 OA
ATOM      8  C   UNL     1      -0.421  -0.289  -0.956  0.00  0.00    +0.130 C 
ATOM      9  C   UNL     1      -1.151   1.010  -0.668  0.00  0.00    +0.027 C 
ATOM     10  C   UNL     1      -0.141   2.127  -0.407  0.00  0.00    +0.018 C 
ATOM     11  C   UNL     1       0.642   2.381  -1.698  0.00  0.00    +0.054 C 
ATOM     12  C   UNL     1      -0.338   2.901  -2.763  0.00  0.00    +0.119 C 
ATOM     13  N   UNL     1      -1.364   1.864  -2.958  0.00  0.00    -0.284 N 
ATOM     14  C   UNL     1      -2.110   1.388  -1.788  0.00  0.00    +0.114 C 
ATOM     15  C   UNL     1      -1.613   1.363  -4.184  0.00  0.00    +0.306 C 
ATOM     16  O   UNL     1      -1.053   1.831  -5.157  0.00  0.00    -0.252 OA
ATOM     17  N   UNL     1      -2.482   0.344  -4.332  0.00  0.00    -0.269 N 
ATOM     18  H   UNL     1      -3.005   0.039  -3.575  0.00  0.00    +0.156 HD
ENDROOT
BRANCH  17  19
ATOM     19  C   UNL     1      -2.629  -0.275  -5.580  0.00  0.00    +0.035 A 
ATOM     20  C   UNL     1      -1.540  -0.387  -6.434  0.00  0.00    +0.026 A 
ATOM     21  C   UNL     1      -1.687  -1.002  -7.662  0.00  0.00    +0.040 A 
ATOM     22  C   UNL     1      -2.921  -1.498  -8.046  0.00  0.00    +0.124 A 
ATOM     23  C   UNL     1      -4.010  -1.383  -7.198  0.00  0.00    +0.040 A 
ATOM     24  C   UNL     1      -3.866  -0.773  -5.967  0.00  0.00    +0.026 A 
ATOM     25  F   UNL     1      -3.064  -2.094  -9.250  0.00  0.00    -0.205 F 
ENDBRANCH  17  19
BRANCH   1  29
ATOM     26  N   UNL     1       3.718  -4.476  -3.753  0.00  0.00    -0.269 N 
ATOM     27  C   UNL     1       3.151  -3.391  -3.188  0.00  0.00    +0.308 C 
ATOM     28  O   UNL     1       2.997  -3.344  -1.983  0.00  0.00    -0.252 OA
ATOM     29  N   UNL     1       2.755  -2.359  -3.959  0.00  0.00    -0.265 N 
ATOM     30  H   UNL     1       3.892  -4.490  -4.707  0.00  0.00    +0.156 HD
ATOM     31  H   UNL     1       2.814  -2.425  -4.925  0.00  0.00    +0.157 HD
BRANCH  26  36
ATOM     32  C   UNL     1       4.221  -7.962  -2.685  0.00  0.00    +0.003 A 
ATOM     33  C   UNL     1       4.719  -7.785  -1.410  0.00  0.00    +0.019 A 
ATOM     34  C   UNL     1       4.889  -6.496  -0.900  0.00  0.00    +0.054 A 
ATOM     35  C   UNL     1       4.559  -5.391  -1.686  0.00  0.00    +0.042 A 
ATOM     36  C   UNL     1       4.055  -5.580  -2.963  0.00  0.00    +0.036 A 
ATOM     37  C   UNL     1       3.889  -6.867  -3.461  0.00  0.00    +0.023 A 
BRANCH  34  38
ATOM     38  C   UNL     1       5.407  -6.309   0.422  0.00  0.00    +0.099 C 
ATOM     39  N   UNL     1       5.817  -6.160   1.471  0.00  0.00    -0.191 NA
ENDBRANCH  34  38
ENDBRANCH  26  36
ENDBRANCH   1  29
TORSDOF 4
