REMARK  Name = ZINC13501143
REMARK  10 active torsions:
REMARK  status: ('A' for Active; 'I' for Inactive)
REMARK    1  A    between atoms: C_1  and  C_2
REMARK    2  A    between atoms: C_2  and  C_3
REMARK    3  A    between atoms: C_3  and  C_5
REMARK    4  A    between atoms: C_3  and  N_66
REMARK    5  A    between atoms: N_9  and  C_10
REMARK    6  A    between atoms: C_10  and  C_11
REMARK    7  A    between atoms: C_17  and  C_18
REMARK    8  A    between atoms: C_17  and  N_66
REMARK    9  A    between atoms: C_22  and  C_30
REMARK   10  A    between atoms: C_31  and  N_66
REMARK                            x       y       z     vdW  Elec       q    Type
REMARK                         _______ _______ _______ _____ _____    ______ ____
ROOT
ATOM      1  N   UNL     1       2.239   7.692  -2.220  0.00  0.00    +0.391 N 
ATOM      2  H   UNL     1       3.261   7.696  -2.118  0.00  0.00    -0.080 HD
ENDROOT
BRANCH   1   3
ATOM      3  C   UNL     1       1.899   7.676  -3.658  0.00  0.00    -0.067 C 
ATOM      4  C   UNL     1       2.208   6.285  -4.250  0.00  0.00    -0.015 C 
ATOM      5  C   UNL     1       2.773   6.590  -5.660  0.00  0.00    -0.002 C 
ATOM      6  C   UNL     1       3.619   7.865  -5.422  0.00  0.00    -0.002 C 
ATOM      7  C   UNL     1       2.796   8.680  -4.403  0.00  0.00    -0.015 C 
ENDBRANCH   1   3
BRANCH   1   8
ATOM      8  C   UNL     1       1.696   6.486  -1.559  0.00  0.00    +0.003 C 
BRANCH   8   9
ATOM      9  C   UNL     1       0.190   6.509  -1.573  0.00  0.00    +0.138 A 
ATOM     10  N   UNL     1      -0.581   7.509  -1.222  0.00  0.00    -0.115 NA
ATOM     11  N   UNL     1      -1.806   7.141  -1.374  0.00  0.00    -0.023 NA
ATOM     12  N   UNL     1      -1.837   5.933  -1.818  0.00  0.00    -0.044 NA
ATOM     13  N   UNL     1      -0.626   5.506  -1.948  0.00  0.00    -0.226 N 
BRANCH  13  14
ATOM     14  C   UNL     1      -0.216   4.182  -2.422  0.00  0.00    +0.182 C 
BRANCH  14  15
ATOM     15  C   UNL     1      -0.096   3.244  -1.249  0.00  0.00    -0.026 A 
ATOM     16  C   UNL     1      -1.189   2.504  -0.841  0.00  0.00    +0.005 A 
ATOM     17  C   UNL     1      -1.079   1.644   0.235  0.00  0.00    +0.000 A 
ATOM     18  C   UNL     1       0.124   1.527   0.907  0.00  0.00    +0.000 A 
ATOM     19  C   UNL     1       1.219   2.263   0.495  0.00  0.00    +0.000 A 
ATOM     20  C   UNL     1       1.109   3.124  -0.581  0.00  0.00    +0.005 A 
ENDBRANCH  14  15
ENDBRANCH  13  14
ENDBRANCH   8   9
BRANCH   8  22
ATOM     21  C   UNL     1       3.714   6.292  -0.099  0.00  0.00    +0.002 C 
ATOM     22  C   UNL     1       2.193   6.449  -0.112  0.00  0.00    -0.011 C 
ENDBRANCH   8  22
ENDBRANCH   1   8
BRANCH   1  23
ATOM     23  C   UNL     1       1.688   8.907  -1.584  0.00  0.00    -0.036 C 
BRANCH  23  24
ATOM     24  C   UNL     1       2.548  10.085  -1.966  0.00  0.00    +0.001 A 
ATOM     25  C   UNL     1       2.145  10.923  -2.953  0.00  0.00    +0.017 A 
ATOM     26  C   UNL     1       3.003  12.057  -3.300  0.00  0.00    -0.001 A 
ATOM     27  C   UNL     1       2.640  12.957  -4.309  0.00  0.00    +0.013 A 
ATOM     28  C   UNL     1       3.463  14.005  -4.609  0.00  0.00    -0.050 A 
ATOM     29  C   UNL     1       4.656  14.187  -3.922  0.00  0.00    +0.005 A 
ATOM     30  C   UNL     1       5.033  13.313  -2.924  0.00  0.00    +0.026 A 
ATOM     31  C   UNL     1       4.211  12.238  -2.602  0.00  0.00    +0.049 A 
ATOM     32  N   UNL     1       4.564  11.349  -1.608  0.00  0.00    -0.322 N 
ATOM     33  H   UNL     1       5.397  11.475  -1.128  0.00  0.00    +0.169 HD
ATOM     34  C   UNL     1       3.766  10.313  -1.292  0.00  0.00    +0.251 A 
ATOM     35  O   UNL     1       4.107   9.550  -0.406  0.00  0.00    -0.268 OA
ATOM     36  C   UNL     1       3.072  14.974  -5.695  0.00  0.00    +0.044 C 
ENDBRANCH  23  24
ENDBRANCH   1  23
TORSDOF 8
