REMARK  Name = ZINC61116543
REMARK  3 active torsions:
REMARK  status: ('A' for Active; 'I' for Inactive)
REMARK    1  A    between atoms: C_6  and  N_7
REMARK    2  A    between atoms: C_8  and  C_10
REMARK    3  A    between atoms: C_13  and  C_15
REMARK                            x       y       z     vdW  Elec       q    Type
REMARK                         _______ _______ _______ _____ _____    ______ ____
ROOT
ATOM      1  N   UNL     1      -1.198  -0.731   0.007  0.00  0.00    -0.283 N 
ATOM      2  C   UNL     1      -2.370  -0.076   0.126  0.00  0.00    +0.221 C 
ATOM      3  O   UNL     1      -2.389   1.137   0.136  0.00  0.00    -0.275 OA
ATOM      4  H   UNL     1      -1.190  -1.697  -0.081  0.00  0.00    +0.155 HD
ENDROOT
BRANCH   1  10
ATOM      5  C   UNL     1       0.077   1.224   0.628  0.00  0.00    +0.064 A 
ATOM      6  C   UNL     1       1.268   1.928   0.631  0.00  0.00    +0.128 A 
ATOM      7  C   UNL     1       2.390   1.395   0.020  0.00  0.00    +0.079 A 
ATOM      8  C   UNL     1       2.324   0.157  -0.596  0.00  0.00    +0.163 A 
ATOM      9  C   UNL     1       1.134  -0.551  -0.601  0.00  0.00    +0.180 A 
ATOM     10  C   UNL     1       0.007  -0.017   0.012  0.00  0.00    +0.075 A 
ATOM     11  F   UNL     1       1.069  -1.760  -1.203  0.00  0.00    -0.201 F 
ATOM     12  F   UNL     1       3.421  -0.360  -1.192  0.00  0.00    -0.202 F 
ATOM     13  F   UNL     1       1.336   3.136   1.231  0.00  0.00    -0.205 F 
ENDBRANCH   1  10
BRANCH   2  14
ATOM     14  C   UNL     1      -3.657  -0.850   0.248  0.00  0.00    +0.090 C 
ATOM     15  C   UNL     1      -4.941  -0.166  -0.228  0.00  0.00    +0.029 C 
ATOM     16  C   UNL     1      -4.332  -1.307  -1.047  0.00  0.00    +0.115 C 
BRANCH  16  17
ATOM     17  C   UNL     1      -3.658  -0.948  -2.347  0.00  0.00    +0.360 C 
ATOM     18  O   UNL     1      -3.541  -1.786  -3.224  0.00  0.00    -0.246 OA
ATOM     19  O   UNL     1      -3.230   0.180  -2.520  0.00  0.00    -0.246 OA
ENDBRANCH  16  17
ENDBRANCH   2  14
TORSDOF 3
