REMARK  Name = ZINC40839535
REMARK  6 active torsions:
REMARK  status: ('A' for Active; 'I' for Inactive)
REMARK    1  A    between atoms: C_4  and  C_7
REMARK    2  A    between atoms: C_7  and  N_8
REMARK    3  A    between atoms: C_11  and  N_14
REMARK    4  A    between atoms: C_15  and  C_17
REMARK    5  A    between atoms: C_17  and  C_18
REMARK    6  A    between atoms: C_18  and  N_19
REMARK                            x       y       z     vdW  Elec       q    Type
REMARK                         _______ _______ _______ _____ _____    ______ ____
ROOT
ATOM      1  C   UNL     1       7.259  -4.666   6.207  0.00  0.00    +0.117 C 
ENDROOT
BRANCH   1   3
ATOM      2  N   UNL     1       6.135  -4.190   4.056  0.00  0.00    -0.313 N 
ATOM      3  C   UNL     1       7.119  -4.832   4.716  0.00  0.00    +0.215 C 
ATOM      4  O   UNL     1       7.891  -5.544   4.110  0.00  0.00    -0.276 OA
ATOM      5  H   UNL     1       5.516  -3.621   4.542  0.00  0.00    +0.149 HD
BRANCH   2   9
ATOM      6  N   UNL     1       5.309  -3.178   0.049  0.00  0.00    +0.382 N 
ATOM      7  C   UNL     1       4.429  -4.173   0.673  0.00  0.00    -0.077 C 
ATOM      8  C   UNL     1       4.548  -4.081   2.196  0.00  0.00    +0.003 C 
ATOM      9  C   UNL     1       5.998  -4.351   2.607  0.00  0.00    +0.069 C 
ATOM     10  C   UNL     1       6.915  -3.354   1.892  0.00  0.00    +0.003 C 
ATOM     11  C   UNL     1       6.708  -3.473   0.381  0.00  0.00    -0.077 C 
ATOM     12  H   UNL     1       5.070  -2.259   0.391  0.00  0.00    -0.081 HD
BRANCH   6  13
ATOM     13  C   UNL     1       5.134  -3.217  -1.409  0.00  0.00    -0.043 C 
BRANCH  13  17
ATOM     14  C   UNL     1       1.155  -2.021  -2.400  0.00  0.00    +0.000 A 
ATOM     15  C   UNL     1       2.160  -1.075  -2.312  0.00  0.00    +0.000 A 
ATOM     16  C   UNL     1       3.447  -1.462  -1.992  0.00  0.00    +0.002 A 
ATOM     17  C   UNL     1       3.730  -2.795  -1.758  0.00  0.00    -0.064 A 
ATOM     18  C   UNL     1       2.726  -3.740  -1.844  0.00  0.00    +0.002 A 
ATOM     19  C   UNL     1       1.438  -3.353  -2.167  0.00  0.00    +0.000 A 
ENDBRANCH  13  17
ENDBRANCH   6  13
ENDBRANCH   2   9
ENDBRANCH   1   3
BRANCH   1  20
ATOM     20  C   UNL     1       8.445  -5.496   6.704  0.00  0.00    +0.135 C 
BRANCH  20  21
ATOM     21  N   UNL     1       8.582  -5.334   8.153  0.00  0.00    -0.303 N 
ATOM     22  C   UNL     1       9.366  -4.322   8.675  0.00  0.00    +0.070 A 
ATOM     23  C   UNL     1      10.034  -3.445   7.827  0.00  0.00    +0.028 A 
ATOM     24  C   UNL     1      10.813  -2.438   8.355  0.00  0.00    +0.002 A 
ATOM     25  C   UNL     1      10.937  -2.292   9.730  0.00  0.00    +0.002 A 
ATOM     26  C   UNL     1      10.290  -3.141  10.580  0.00  0.00    +0.030 A 
ATOM     27  C   UNL     1       9.491  -4.173  10.068  0.00  0.00    +0.090 A 
ATOM     28  N   UNL     1       8.852  -5.013  10.909  0.00  0.00    -0.225 NA
ATOM     29  C   UNL     1       8.102  -5.982  10.453  0.00  0.00    +0.188 A 
ATOM     30  C   UNL     1       7.939  -6.169   8.999  0.00  0.00    +0.292 A 
ATOM     31  O   UNL     1       7.239  -7.066   8.566  0.00  0.00    -0.264 OA
ATOM     32  N   UNL     1       7.456  -6.830  11.335  0.00  0.00    -0.309 N 
ATOM     33  C   UNL     1       6.257  -7.549  10.901  0.00  0.00    +0.117 C 
ATOM     34  C   UNL     1       6.547  -9.054  10.869  0.00  0.00    +0.088 C 
ATOM     35  S   UNL     1       7.101  -9.575  12.521  0.00  0.00    -0.158 S 
ATOM     36  C   UNL     1       8.476  -8.438  12.873  0.00  0.00    +0.088 C 
ATOM     37  C   UNL     1       7.984  -7.003  12.690  0.00  0.00    +0.117 C 
ENDBRANCH  20  21
ENDBRANCH   1  20
TORSDOF 6
