REMARK  Name = ZINC37066571
REMARK  4 active torsions:
REMARK  status: ('A' for Active; 'I' for Inactive)
REMARK    1  A    between atoms: C_1  and  C_2
REMARK    2  A    between atoms: C_16  and  N_21
REMARK    3  A    between atoms: C_17  and  O_19
REMARK    4  A    between atoms: O_19  and  C_20
REMARK                            x       y       z     vdW  Elec       q    Type
REMARK                         _______ _______ _______ _____ _____    ______ ____
ROOT
ATOM      1  C   UNL     1       0.125   1.655   0.168  0.00  0.00    +0.028 C 
ATOM      2  C   UNL     1       0.000   0.133   0.071  0.00  0.00    +0.078 C 
ATOM      3  C   UNL     1       0.627  -0.357  -1.242  0.00  0.00    +0.027 C 
ATOM      4  C   UNL     1       2.078   0.118  -1.303  0.00  0.00    +0.039 C 
ATOM      5  C   UNL     1       2.809  -0.255  -0.040  0.00  0.00    -0.026 A 
ATOM      6  C   UNL     1       4.192  -0.312  -0.058  0.00  0.00    +0.005 A 
ATOM      7  C   UNL     1       4.891  -0.647   1.086  0.00  0.00    +0.000 A 
ATOM      8  C   UNL     1       4.212  -0.929   2.257  0.00  0.00    +0.002 A 
ATOM      9  C   UNL     1       2.833  -0.875   2.284  0.00  0.00    +0.024 A 
ATOM     10  C   UNL     1       2.128  -0.539   1.133  0.00  0.00    +0.039 A 
ATOM     11  N   UNL     1       0.728  -0.498   1.180  0.00  0.00    -0.282 N 
ATOM     12  C   UNL     1       0.037  -1.047   2.259  0.00  0.00    +0.130 A 
ATOM     13  C   UNL     1      -0.317  -2.390   2.235  0.00  0.00    +0.046 A 
ATOM     14  C   UNL     1      -1.004  -2.929   3.311  0.00  0.00    +0.031 A 
ATOM     15  C   UNL     1      -1.315  -2.099   4.382  0.00  0.00    +0.087 A 
ATOM     16  C   UNL     1      -0.929  -0.761   4.339  0.00  0.00    +0.238 A 
ATOM     17  N   UNL     1      -0.270  -0.283   3.297  0.00  0.00    -0.196 NA
ENDROOT
BRANCH  15  18
ATOM     18  N   UNL     1      -2.010  -2.602   5.493  0.00  0.00    -0.354 N 
ATOM     19  H   UNL     1      -2.276  -3.535   5.516  0.00  0.00    +0.142 HD
ATOM     20  H   UNL     1      -2.224  -2.018   6.237  0.00  0.00    +0.142 HD
ENDBRANCH  15  18
BRANCH  16  21
ATOM     21  O   UNL     1      -1.228   0.059   5.379  0.00  0.00    -0.478 OA
ATOM     22  C   UNL     1      -0.805   1.420   5.274  0.00  0.00    +0.279 C 
ENDBRANCH  16  21
TORSDOF 2
