REMARK  Name = ZINC41077674
REMARK  6 active torsions:
REMARK  status: ('A' for Active; 'I' for Inactive)
REMARK    1  A    between atoms: C_1  and  C_2
REMARK    2  A    between atoms: C_4  and  C_16
REMARK    3  A    between atoms: C_5  and  C_15
REMARK    4  A    between atoms: N_6  and  C_7
REMARK    5  A    between atoms: C_26  and  S_28
REMARK    6  A    between atoms: S_28  and  C_31
REMARK                            x       y       z     vdW  Elec       q    Type
REMARK                         _______ _______ _______ _____ _____    ______ ____
ROOT
ATOM      1  C   UNL     1       0.041  -3.340  -1.427  0.00  0.00    +0.026 C 
ATOM      2  C   UNL     1      -0.649  -3.368  -2.621  0.00  0.00    +0.081 C 
ATOM      3  C   UNL     1      -0.760  -4.610  -3.435  0.00  0.00    +0.153 C 
ATOM      4  N   UNL     1      -0.814  -5.807  -2.913  0.00  0.00    -0.283 NA
ATOM      5  N   UNL     1      -0.801  -4.368  -4.825  0.00  0.00    -0.150 N 
ATOM      6  C   UNL     1      -1.226  -3.124  -5.242  0.00  0.00    +0.182 C 
ATOM      7  N   UNL     1      -1.513  -2.088  -4.495  0.00  0.00    -0.152 NA
ATOM      8  C   UNL     1      -1.326  -2.164  -3.160  0.00  0.00    +0.273 C 
ATOM      9  O   UNL     1      -1.698  -1.268  -2.419  0.00  0.00    -0.268 OA
ATOM     10  S   UNL     1      -1.249  -3.312  -7.005  0.00  0.00    -0.015 S 
ATOM     11  C   UNL     1      -0.603  -4.977  -7.072  0.00  0.00    +0.235 C 
ATOM     12  N   UNL     1      -0.464  -5.270  -5.811  0.00  0.00    -0.145 NA
ATOM     13  H   UNL     1      -0.886  -6.585  -3.489  0.00  0.00    +0.188 HD
ENDROOT
BRANCH   1  17
ATOM     14  C   UNL     1       0.908   1.558  -0.546  0.00  0.00    +0.064 C 
ATOM     15  C   UNL     1       0.651   0.082  -0.384  0.00  0.00    +0.022 A 
ATOM     16  C   UNL     1       0.488  -0.794  -1.389  0.00  0.00    +0.031 A 
ATOM     17  C   UNL     1       0.264  -2.106  -0.765  0.00  0.00    -0.003 A 
ATOM     18  C   UNL     1       0.315  -1.889   0.602  0.00  0.00    +0.028 A 
ATOM     19  N   UNL     1       0.553  -0.578   0.809  0.00  0.00    -0.317 N 
ATOM     20  C   UNL     1       0.142  -2.937   1.671  0.00  0.00    +0.064 C 
BRANCH  19  21
ATOM     21  C   UNL     1       0.678   0.023   2.069  0.00  0.00    +0.049 A 
ATOM     22  C   UNL     1       1.740  -0.314   2.898  0.00  0.00    +0.046 A 
ATOM     23  C   UNL     1       1.861   0.280   4.140  0.00  0.00    +0.044 A 
ATOM     24  C   UNL     1       0.925   1.209   4.558  0.00  0.00    +0.040 A 
ATOM     25  C   UNL     1      -0.134   1.546   3.734  0.00  0.00    +0.044 A 
ATOM     26  C   UNL     1      -0.257   0.960   2.488  0.00  0.00    +0.046 A 
ATOM     27 CL   UNL     1      -1.307   2.713   4.262  0.00  0.00    -0.083 Cl
ATOM     28 CL   UNL     1       3.189  -0.140   5.176  0.00  0.00    -0.083 Cl
ENDBRANCH  19  21
ENDBRANCH   1  17
BRANCH  11  29
ATOM     29  S   UNL     1      -0.247  -5.969  -8.484  0.00  0.00    +0.019 S 
ATOM     30  O   UNL     1       0.132  -5.042  -9.492  0.00  0.00    -0.168 OA
ATOM     31  O   UNL     1       0.672  -6.948  -8.017  0.00  0.00    -0.168 OA
ATOM     32  C   UNL     1      -1.826  -6.750  -8.915  0.00  0.00    +0.202 C 
ENDBRANCH  11  29
TORSDOF 3
