REMARK  Name = ZINC39487015
REMARK  8 active torsions:
REMARK  status: ('A' for Active; 'I' for Inactive)
REMARK    1  A    between atoms: C_1  and  C_2
REMARK    2  A    between atoms: C_2  and  O_3
REMARK    3  A    between atoms: O_3  and  N_4
REMARK    4  A    between atoms: C_7  and  C_10
REMARK    5  A    between atoms: C_7  and  C_20
REMARK    6  A    between atoms: C_10  and  N_11
REMARK    7  A    between atoms: C_16  and  C_17
REMARK    8  A    between atoms: C_16  and  C_18
REMARK                            x       y       z     vdW  Elec       q    Type
REMARK                         _______ _______ _______ _____ _____    ______ ____
ROOT
ATOM      1  N   UNL     1       0.943  -1.371  -1.827  0.00  0.00    -0.188 NA
ATOM      2  C   UNL     1       2.268  -1.887  -1.458  0.00  0.00    +0.115 C 
ATOM      3  C   UNL     1       2.150  -3.360  -1.062  0.00  0.00    +0.026 C 
ATOM      4  C   UNL     1       1.582  -4.157  -2.240  0.00  0.00    -0.008 C 
ATOM      5  C   UNL     1       0.225  -3.568  -2.637  0.00  0.00    +0.026 C 
ATOM      6  C   UNL     1       0.398  -2.089  -2.987  0.00  0.00    +0.115 C 
ENDROOT
BRANCH   4   7
ATOM      7  C   UNL     1       1.406  -5.620  -1.831  0.00  0.00    -0.003 C 
ATOM      8  C   UNL     1       0.662  -6.373  -2.936  0.00  0.00    +0.004 C 
ATOM      9  C   UNL     1       0.485  -7.836  -2.526  0.00  0.00    +0.000 C 
ATOM     10  C   UNL     1      -0.321  -7.909  -1.228  0.00  0.00    +0.000 C 
ATOM     11  C   UNL     1       0.422  -7.156  -0.123  0.00  0.00    +0.000 C 
ATOM     12  C   UNL     1       0.599  -5.692  -0.533  0.00  0.00    +0.004 C 
ENDBRANCH   4   7
BRANCH   1  13
ATOM     13  O   UNL     1       0.993   0.070  -2.079  0.00  0.00    -0.297 OA
BRANCH  13  15
ATOM     14  C   UNL     1       0.346   2.329  -1.518  0.00  0.00    +0.036 C 
ATOM     15  C   UNL     1       0.221   0.847  -1.161  0.00  0.00    +0.182 C 
ENDBRANCH  13  15
ENDBRANCH   1  13
BRANCH   4  16
ATOM     16  C   UNL     1       2.544  -4.069  -3.427  0.00  0.00    +0.117 C 
BRANCH  16  17
ATOM     17  N   UNL     1       3.863  -4.562  -3.024  0.00  0.00    -0.278 N 
ATOM     18  C   UNL     1       4.718  -3.922  -2.216  0.00  0.00    +0.315 C 
ATOM     19  O   UNL     1       4.476  -2.837  -1.721  0.00  0.00    -0.252 OA
ATOM     20  N   UNL     1       5.862  -4.584  -2.000  0.00  0.00    -0.220 N 
ATOM     21  C   UNL     1       5.831  -5.854  -2.741  0.00  0.00    +0.148 C 
ATOM     22  C   UNL     1       4.457  -5.842  -3.438  0.00  0.00    +0.050 C 
ATOM     23  C   UNL     1       4.629  -5.888  -4.958  0.00  0.00    +0.033 C 
ATOM     24  C   UNL     1       3.598  -7.013  -2.959  0.00  0.00    +0.033 C 
ATOM     25 BR   UNL     1       7.258  -3.995  -0.940  0.00  0.00    +0.040 Br
ENDBRANCH  16  17
ENDBRANCH   4  16
TORSDOF 5
