REMARK  Name = ZINC08876731
REMARK  4 active torsions:
REMARK  status: ('A' for Active; 'I' for Inactive)
REMARK    1  A    between atoms: C_1  and  O_2
REMARK    2  A    between atoms: O_2  and  C_3
REMARK    3  A    between atoms: C_8  and  N_9
REMARK    4  A    between atoms: C_10  and  C_12
REMARK                            x       y       z     vdW  Elec       q    Type
REMARK                         _______ _______ _______ _____ _____    ______ ____
ROOT
ATOM      1  C   UNL     1       3.114   0.804   1.252  0.00  0.00    +0.076 C 
ATOM      2  C   UNL     1       4.436   1.423   0.724  0.00  0.00    -0.003 C 
ATOM      3  C   UNL     1       4.500   0.852  -0.712  0.00  0.00    -0.066 C 
ATOM      4  C   UNL     1       5.271   1.830  -1.612  0.00  0.00    -0.017 C 
ATOM      5  C   UNL     1       4.231   2.350  -2.631  0.00  0.00    -0.020 C 
ATOM      6  C   UNL     1       2.887   2.124  -1.897  0.00  0.00    -0.077 C 
ATOM      7  C   UNL     1       2.220   0.789   0.003  0.00  0.00    +0.052 C 
ATOM      8  C   UNL     1       1.344  -0.434  -0.015  0.00  0.00    -0.026 A 
ATOM      9  C   UNL     1       1.610  -1.785  -0.035  0.00  0.00    +0.019 A 
ATOM     10  C   UNL     1       0.567  -2.696  -0.051  0.00  0.00    +0.018 A 
ATOM     11  C   UNL     1      -0.741  -2.243  -0.047  0.00  0.00    +0.017 A 
ATOM     12  C   UNL     1      -1.010  -0.891  -0.027  0.00  0.00    +0.024 A 
ATOM     13  C   UNL     1       0.034   0.031  -0.010  0.00  0.00    +0.036 A 
ATOM     14  N   UNL     1       0.018   1.428   0.012  0.00  0.00    -0.286 N 
ATOM     15  C   UNL     1       1.258   1.950   0.021  0.00  0.00    +0.212 C 
ATOM     16  O   UNL     1       1.547   3.128   0.040  0.00  0.00    -0.277 OA
ATOM     17 BR   UNL     1       0.929  -4.551  -0.077  0.00  0.00    -0.050 Br
ATOM     18  H   UNL     1      -0.793   1.960   0.017  0.00  0.00    +0.155 HD
ATOM     19  N   UNL     1       3.115   0.862  -1.169  0.00  0.00    +0.394 N 
ATOM     20  H   UNL     1       2.941   0.062  -1.789  0.00  0.00    -0.079 HD
ENDROOT
BRANCH   1  22
ATOM     21  N   UNL     1       2.560  -1.098   2.733  0.00  0.00    -0.282 N 
ATOM     22  C   UNL     1       3.345  -0.596   1.760  0.00  0.00    +0.220 C 
ATOM     23  O   UNL     1       4.237  -1.271   1.291  0.00  0.00    -0.275 OA
ATOM     24  H   UNL     1       1.796  -0.592   3.050  0.00  0.00    +0.155 HD
BRANCH  21  30
ATOM     25  C   UNL     1       1.812  -3.187   3.701  0.00  0.00    +0.141 A 
ATOM     26  C   UNL     1       2.102  -4.426   4.249  0.00  0.00    +0.049 A 
ATOM     27  C   UNL     1       3.417  -4.832   4.386  0.00  0.00    +0.024 A 
ATOM     28  C   UNL     1       4.446  -4.003   3.976  0.00  0.00    +0.043 A 
ATOM     29  C   UNL     1       4.165  -2.768   3.423  0.00  0.00    +0.047 A 
ATOM     30  C   UNL     1       2.848  -2.352   3.288  0.00  0.00    +0.077 A 
ATOM     31 CL   UNL     1       6.095  -4.518   4.151  0.00  0.00    -0.083 Cl
BRANCH  25  33
ATOM     32  C   UNL     1      -0.490  -3.695   4.011  0.00  0.00    +0.277 C 
ATOM     33  O   UNL     1       0.520  -2.787   3.567  0.00  0.00    -0.493 OA
ENDBRANCH  25  33
ENDBRANCH  21  30
ENDBRANCH   1  22
TORSDOF 3
