REMARK  Name = ZINC12929834
REMARK  5 active torsions:
REMARK  status: ('A' for Active; 'I' for Inactive)
REMARK    1  A    between atoms: C_4  and  C_7
REMARK    2  A    between atoms: C_16  and  C_17
REMARK    3  A    between atoms: C_16  and  N_48
REMARK    4  A    between atoms: N_19  and  C_20
REMARK    5  A    between atoms: C_21  and  C_27
REMARK                            x       y       z     vdW  Elec       q    Type
REMARK                         _______ _______ _______ _____ _____    ______ ____
ROOT
ATOM      1  C   UNL     1      -0.291   1.228   0.587  0.00  0.00    +0.020 C 
ENDROOT
BRANCH   1  10
ATOM      2  C   UNL     1      -0.950   2.556  -1.327  0.00  0.00    -0.005 C 
ATOM      3  C   UNL     1      -2.069   3.437  -1.875  0.00  0.00    -0.047 A 
ATOM      4  C   UNL     1      -2.213   3.763  -3.221  0.00  0.00    +0.010 A 
ATOM      5  C   UNL     1      -3.238   4.551  -3.621  0.00  0.00    +0.045 A 
ATOM      6  S   UNL     1      -4.073   4.882  -2.076  0.00  0.00    -0.101 S 
ATOM      7  C   UNL     1      -2.998   3.951  -1.022  0.00  0.00    -0.010 A 
ATOM      8  C   UNL     1      -3.059   3.751   0.458  0.00  0.00    +0.024 C 
ATOM      9  C   UNL     1      -1.710   3.165   0.907  0.00  0.00    -0.072 C 
ATOM     10  N   UNL     1      -1.372   2.043  -0.002  0.00  0.00    +0.393 N 
ATOM     11  H   UNL     1      -2.204   1.455  -0.124  0.00  0.00    -0.080 HD
BRANCH   2  15
ATOM     12  C   UNL     1      -0.324  -0.760  -3.947  0.00  0.00    +0.000 A 
ATOM     13  C   UNL     1       0.528   0.328  -3.993  0.00  0.00    +0.000 A 
ATOM     14  C   UNL     1       0.326   1.401  -3.145  0.00  0.00    +0.002 A 
ATOM     15  C   UNL     1      -0.729   1.386  -2.252  0.00  0.00    -0.057 A 
ATOM     16  C   UNL     1      -1.578   0.296  -2.202  0.00  0.00    +0.002 A 
ATOM     17  C   UNL     1      -1.378  -0.775  -3.053  0.00  0.00    +0.000 A 
ENDBRANCH   2  15
ENDBRANCH   1  10
BRANCH   1  18
ATOM     18  C   UNL     1       0.943   2.060   0.819  0.00  0.00    +0.201 C 
ATOM     19  O   UNL     1       0.920   3.254   0.603  0.00  0.00    -0.278 OA
ATOM     20  N   UNL     1       2.074   1.479   1.266  0.00  0.00    -0.285 N 
ATOM     21  H   UNL     1       2.118   0.514   1.361  0.00  0.00    +0.155 HD
BRANCH  20  22
ATOM     22  C   UNL     1       3.184   2.266   1.592  0.00  0.00    +0.064 A 
ATOM     23  C   UNL     1       3.801   2.121   2.828  0.00  0.00    +0.077 A 
ATOM     24  C   UNL     1       4.897   2.899   3.147  0.00  0.00    +0.014 A 
ATOM     25  C   UNL     1       5.379   3.823   2.238  0.00  0.00    +0.002 A 
ATOM     26  C   UNL     1       4.768   3.971   1.007  0.00  0.00    +0.022 A 
ATOM     27  C   UNL     1       3.675   3.191   0.679  0.00  0.00    +0.063 A 
ATOM     28 CL   UNL     1       2.911   3.372  -0.870  0.00  0.00    -0.082 Cl
BRANCH  23  29
ATOM     29  C   UNL     1       3.276   1.115   3.819  0.00  0.00    +0.419 C 
ATOM     30  F   UNL     1       4.056   1.153   4.980  0.00  0.00    -0.166 F 
ATOM     31  F   UNL     1       1.950   1.423   4.139  0.00  0.00    -0.166 F 
ATOM     32  F   UNL     1       3.335  -0.166   3.259  0.00  0.00    -0.166 F 
ENDBRANCH  23  29
ENDBRANCH  20  22
ENDBRANCH   1  18
TORSDOF 5
