REMARK  Name = ZINC09367941
REMARK  8 active torsions:
REMARK  status: ('A' for Active; 'I' for Inactive)
REMARK    1  A    between atoms: C_1  and  C_2
REMARK    2  A    between atoms: C_2  and  N_3
REMARK    3  A    between atoms: C_7  and  N_16
REMARK    4  A    between atoms: C_17  and  C_19
REMARK    5  A    between atoms: C_22  and  S_25
REMARK    6  A    between atoms: S_25  and  N_28
REMARK    7  A    between atoms: C_30  and  C_37
REMARK    8  A    between atoms: C_33  and  C_36
REMARK                            x       y       z     vdW  Elec       q    Type
REMARK                         _______ _______ _______ _____ _____    ______ ____
ROOT
ATOM      1  N   UNL     1      -1.223   2.106   0.019  0.00  0.00    -0.281 N 
ATOM      2  C   UNL     1      -1.222   3.450   0.128  0.00  0.00    +0.248 C 
ATOM      3  O   UNL     1      -0.170   4.059   0.127  0.00  0.00    -0.270 OA
ATOM      4  H   UNL     1      -2.062   1.626  -0.060  0.00  0.00    +0.155 HD
ENDROOT
BRANCH   1   9
ATOM      5  N   UNL     1       3.487  -0.897  -0.128  0.00  0.00    -0.267 N 
ATOM      6  C   UNL     1       2.472   0.037   0.050  0.00  0.00    +0.045 A 
ATOM      7  C   UNL     1       2.339   1.280   0.644  0.00  0.00    +0.026 A 
ATOM      8  C   UNL     1       1.113   1.938   0.621  0.00  0.00    +0.026 A 
ATOM      9  C   UNL     1      -0.018   1.406   0.021  0.00  0.00    +0.042 A 
ATOM     10  C   UNL     1       0.085   0.139  -0.593  0.00  0.00    +0.006 A 
ATOM     11  C   UNL     1       1.332  -0.487  -0.548  0.00  0.00    +0.017 A 
ATOM     12  C   UNL     1       1.603  -1.745  -1.108  0.00  0.00    +0.047 A 
ATOM     13  C   UNL     1       0.550  -2.385  -1.740  0.00  0.00    +0.014 A 
ATOM     14  C   UNL     1      -0.700  -1.771  -1.793  0.00  0.00    +0.001 A 
ATOM     15  C   UNL     1      -0.954  -0.543  -1.241  0.00  0.00    +0.010 A 
ATOM     16  C   UNL     1       3.020  -1.976  -0.812  0.00  0.00    +0.251 C 
ATOM     17  O   UNL     1       3.666  -2.960  -1.123  0.00  0.00    -0.270 OA
BRANCH   5  19
ATOM     18  C   UNL     1       4.978  -1.320   1.764  0.00  0.00    +0.025 C 
ATOM     19  C   UNL     1       4.862  -0.742   0.352  0.00  0.00    +0.110 C 
ENDBRANCH   5  19
ENDBRANCH   1   9
BRANCH   2  20
ATOM     20  C   UNL     1      -2.500   4.182   0.250  0.00  0.00    +0.037 A 
ATOM     21  C   UNL     1      -3.710   3.485   0.246  0.00  0.00    +0.015 A 
ATOM     22  C   UNL     1      -4.899   4.175   0.366  0.00  0.00    +0.029 A 
ATOM     23  C   UNL     1      -4.895   5.554   0.477  0.00  0.00    +0.106 A 
ATOM     24  C   UNL     1      -3.700   6.250   0.476  0.00  0.00    +0.029 A 
ATOM     25  C   UNL     1      -2.503   5.573   0.363  0.00  0.00    +0.015 A 
BRANCH  23  26
ATOM     26  S   UNL     1      -6.419   6.426   0.622  0.00  0.00    +0.061 S 
ATOM     27  O   UNL     1      -7.366   5.506   1.146  0.00  0.00    -0.153 OA
ATOM     28  O   UNL     1      -6.121   7.660   1.260  0.00  0.00    -0.153 OA
BRANCH  26  29
ATOM     29  N   UNL     1      -6.918   6.796  -0.913  0.00  0.00    -0.176 NA
ATOM     30  C   UNL     1      -6.517   8.060  -1.547  0.00  0.00    +0.112 C 
ATOM     31  C   UNL     1      -5.871   7.742  -2.904  0.00  0.00    +0.002 C 
ATOM     32  C   UNL     1      -6.839   6.901  -3.739  0.00  0.00    +0.009 C 
ATOM     33  C   UNL     1      -7.121   5.580  -3.019  0.00  0.00    +0.002 C 
ATOM     34  C   UNL     1      -7.776   5.870  -1.665  0.00  0.00    +0.112 C 
ATOM     35  C   UNL     1      -8.062   4.725  -3.869  0.00  0.00    +0.009 C 
ATOM     36  C   UNL     1      -4.574   6.962  -2.686  0.00  0.00    +0.009 C 
ENDBRANCH  26  29
ENDBRANCH  23  26
ENDBRANCH   2  20
TORSDOF 5
