REMARK  Name = ZINC44854627
REMARK  6 active torsions:
REMARK  status: ('A' for Active; 'I' for Inactive)
REMARK    1  A    between atoms: C_1  and  C_2
REMARK    2  A    between atoms: C_6  and  N_9
REMARK    3  A    between atoms: C_7  and  C_8
REMARK    4  A    between atoms: C_17  and  C_32
REMARK    5  A    between atoms: C_19  and  N_31
REMARK    6  A    between atoms: N_20  and  C_24
REMARK                            x       y       z     vdW  Elec       q    Type
REMARK                         _______ _______ _______ _____ _____    ______ ____
ROOT
ATOM      1  N   UNL     1       0.069  -3.437   1.764  0.00  0.00    -0.327 N 
ATOM      2  C   UNL     1      -1.175  -3.639   2.519  0.00  0.00    +0.124 C 
ATOM      3  C   UNL     1      -1.198  -5.079   3.048  0.00  0.00    +0.127 C 
ATOM      4  N   UNL     1       0.085  -5.358   3.708  0.00  0.00    -0.297 N 
ATOM      5  C   UNL     1       1.329  -5.155   2.952  0.00  0.00    +0.127 C 
ATOM      6  C   UNL     1       1.352  -3.721   2.422  0.00  0.00    +0.124 C 
ATOM      7  C   UNL     1       0.121  -5.803   5.017  0.00  0.00    +0.220 A 
ATOM      8  N   UNL     1       1.308  -6.035   5.569  0.00  0.00    -0.213 NA
ATOM      9  C   UNL     1       1.434  -6.463   6.819  0.00  0.00    +0.091 A 
ATOM     10  C   UNL     1       0.259  -6.674   7.576  0.00  0.00    +0.086 A 
ATOM     11  C   UNL     1      -0.031  -7.100   8.866  0.00  0.00    +0.131 A 
ATOM     12  N   UNL     1      -1.372  -7.095   9.003  0.00  0.00    -0.216 N 
ATOM     13  N   UNL     1      -1.970  -6.669   7.812  0.00  0.00    -0.144 NA
ATOM     14  C   UNL     1      -1.036  -6.404   6.925  0.00  0.00    +0.189 A 
ATOM     15  N   UNL     1      -1.022  -5.967   5.651  0.00  0.00    -0.193 NA
ENDROOT
BRANCH   1  21
ATOM     16  C   UNL     1       0.071   0.291  -1.439  0.00  0.00    +0.044 C 
ATOM     17  C   UNL     1       0.032  -1.186  -1.141  0.00  0.00    -0.046 A 
ATOM     18  C   UNL     1      -0.041  -2.098  -2.178  0.00  0.00    +0.004 A 
ATOM     19  C   UNL     1      -0.077  -3.454  -1.908  0.00  0.00    +0.002 A 
ATOM     20  C   UNL     1      -0.041  -3.901  -0.602  0.00  0.00    +0.023 A 
ATOM     21  C   UNL     1       0.032  -2.988   0.441  0.00  0.00    +0.033 A 
ATOM     22  C   UNL     1       0.074  -1.627   0.167  0.00  0.00    -0.027 A 
ATOM     23  C   UNL     1       0.159  -0.632   1.296  0.00  0.00    +0.046 C 
ENDBRANCH   1  21
BRANCH  12  24
ATOM     24  C   UNL     1      -2.063  -7.463  10.164  0.00  0.00    +0.070 A 
ATOM     25  C   UNL     1      -1.572  -8.480  10.973  0.00  0.00    +0.028 A 
ATOM     26  C   UNL     1      -2.255  -8.841  12.118  0.00  0.00    +0.005 A 
ATOM     27  C   UNL     1      -3.427  -8.191  12.460  0.00  0.00    +0.038 A 
ATOM     28  C   UNL     1      -3.920  -7.177  11.656  0.00  0.00    +0.125 A 
ATOM     29  C   UNL     1      -3.236  -6.807  10.511  0.00  0.00    +0.066 A 
ATOM     30  F   UNL     1      -5.065  -6.545  11.993  0.00  0.00    -0.205 F 
ENDBRANCH  12  24
BRANCH   9  31
ATOM     31  C   UNL     1       2.769  -6.713   7.405  0.00  0.00    +0.036 A 
ATOM     32  C   UNL     1       3.086  -7.974   7.914  0.00  0.00    +0.013 A 
ATOM     33  C   UNL     1       4.333  -8.201   8.459  0.00  0.00    +0.001 A 
ATOM     34  C   UNL     1       5.270  -7.183   8.503  0.00  0.00    +0.003 A 
ATOM     35  C   UNL     1       4.964  -5.931   8.001  0.00  0.00    +0.039 A 
ATOM     36  C   UNL     1       3.720  -5.691   7.447  0.00  0.00    +0.133 A 
ATOM     37  F   UNL     1       3.424  -4.469   6.952  0.00  0.00    -0.205 F 
ENDBRANCH   9  31
BRANCH  11  38
ATOM     38  N   UNL     1       0.888  -7.464   9.832  0.00  0.00    -0.342 N 
ATOM     39  H   UNL     1       1.837  -7.446   9.631  0.00  0.00    +0.144 HD
ATOM     40  H   UNL     1       0.584  -7.737  10.712  0.00  0.00    +0.144 HD
ENDBRANCH  11  38
TORSDOF 4
