REMARK  Name = ZINC38743276
REMARK  5 active torsions:
REMARK  status: ('A' for Active; 'I' for Inactive)
REMARK    1  A    between atoms: C_1  and  O_2
REMARK    2  A    between atoms: O_2  and  C_3
REMARK    3  A    between atoms: C_6  and  C_9
REMARK    4  A    between atoms: C_11  and  C_15
REMARK    5  A    between atoms: C_23  and  C_25
REMARK                            x       y       z     vdW  Elec       q    Type
REMARK                         _______ _______ _______ _____ _____    ______ ____
ROOT
ATOM      1  C   UNL     1      -7.083  -4.879   1.310  0.00  0.00    +0.206 C 
ATOM      2  N   UNL     1      -6.860  -4.034   2.507  0.00  0.00    -0.231 NA
ATOM      3  N   UNL     1      -8.164  -3.908   3.180  0.00  0.00    -0.224 NA
ATOM      4  C   UNL     1      -8.890  -5.110   2.724  0.00  0.00    +0.240 C 
ATOM      5  N   UNL     1      -8.541  -5.131   1.265  0.00  0.00    -0.206 N 
ATOM      6  N   UNL     1      -9.633  -5.281   0.437  0.00  0.00    -0.173 NA
ATOM      7  C   UNL     1     -10.856  -5.096   0.840  0.00  0.00    +0.125 C 
ATOM      8  S   UNL     1     -10.694  -4.810   2.630  0.00  0.00    -0.063 S 
ATOM      9  H   UNL     1      -6.175  -4.449   3.120  0.00  0.00    +0.143 HD
ATOM     10  H   UNL     1      -8.055  -3.910   4.183  0.00  0.00    +0.144 HD
ENDROOT
BRANCH   7  11
ATOM     11  C   UNL     1     -12.095  -5.121   0.033  0.00  0.00    +0.011 A 
ATOM     12  C   UNL     1     -13.331  -4.893   0.640  0.00  0.00    +0.011 A 
ATOM     13  C   UNL     1     -14.484  -4.918  -0.118  0.00  0.00    +0.003 A 
ATOM     14  C   UNL     1     -14.418  -5.168  -1.477  0.00  0.00    +0.038 A 
ATOM     15  C   UNL     1     -13.194  -5.395  -2.086  0.00  0.00    +0.124 A 
ATOM     16  C   UNL     1     -12.032  -5.367  -1.339  0.00  0.00    +0.049 A 
ATOM     17  F   UNL     1     -13.137  -5.639  -3.414  0.00  0.00    -0.205 F 
ENDBRANCH   7  11
BRANCH   1  20
ATOM     18  C   UNL     1      -4.963  -2.620   0.035  0.00  0.00    +0.091 C 
ATOM     19  C   UNL     1      -5.128  -3.957   0.039  0.00  0.00    +0.034 C 
ATOM     20  C   UNL     1      -6.635  -4.138   0.048  0.00  0.00    +0.190 C 
ATOM     21  N   UNL     1      -7.139  -2.755   0.047  0.00  0.00    -0.176 NA
ATOM     22  N   UNL     1      -6.170  -1.994   0.045  0.00  0.00    -0.154 NA
BRANCH  18  26
ATOM     23  C   UNL     1      -1.200  -0.637   0.010  0.00  0.00    +0.120 A 
ATOM     24  C   UNL     1      -2.374   0.104   0.019  0.00  0.00    +0.046 A 
ATOM     25  C   UNL     1      -3.595  -0.536   0.027  0.00  0.00    +0.013 A 
ATOM     26  C   UNL     1      -3.651  -1.928   0.026  0.00  0.00    +0.002 A 
ATOM     27  C   UNL     1      -2.471  -2.670   0.016  0.00  0.00    +0.013 A 
ATOM     28  C   UNL     1      -1.252  -2.025   0.003  0.00  0.00    +0.046 A 
BRANCH  23  30
ATOM     29  C   UNL     1      -0.017   1.425   0.010  0.00  0.00    +0.277 C 
ATOM     30  O   UNL     1       0.002  -0.004   0.002  0.00  0.00    -0.495 OA
ENDBRANCH  23  30
ENDBRANCH  18  26
ENDBRANCH   1  20
TORSDOF 4
