REMARK  Name = ZINC63560698
REMARK  12 active torsions:
REMARK  status: ('A' for Active; 'I' for Inactive)
REMARK    1  A    between atoms: C_1  and  C_2
REMARK    2  A    between atoms: C_4  and  N_24
REMARK    3  A    between atoms: C_5  and  C_20
REMARK    4  A    between atoms: C_6  and  C_14
REMARK    5  A    between atoms: C_8  and  C_10
REMARK    6  A    between atoms: C_10  and  O_12
REMARK    7  A    between atoms: O_12  and  C_13
REMARK    8  A    between atoms: C_20  and  O_22
REMARK    9  A    between atoms: O_22  and  C_23
REMARK   10  A    between atoms: N_24  and  C_25
REMARK   11  A    between atoms: C_25  and  C_26
REMARK   12  A    between atoms: C_26  and  C_27
REMARK                            x       y       z     vdW  Elec       q    Type
REMARK                         _______ _______ _______ _____ _____    ______ ____
ROOT
ATOM      1  C   UNL     1      -0.033   1.502   0.088  0.00  0.00    +0.040 C 
ATOM      2  C   UNL     1      -0.004  -0.004   0.036  0.00  0.00    -0.056 C 
ATOM      3  C   UNL     1      -0.021  -0.620  -1.141  0.00  0.00    +0.023 C 
ATOM      4  C   UNL     1      -0.025  -2.089  -1.201  0.00  0.00    +0.038 C 
ATOM      5  C   UNL     1      -0.362  -2.809  -0.076  0.00  0.00    +0.066 C 
ATOM      6  C   UNL     1      -0.763  -2.081   1.181  0.00  0.00    +0.075 C 
ATOM      7  C   UNL     1       0.049  -0.791   1.317  0.00  0.00    +0.135 C 
ENDROOT
BRANCH   6   8
ATOM      8  C   UNL     1      -2.231  -1.746   1.119  0.00  0.00    -0.039 A 
ATOM      9  C   UNL     1      -2.716  -0.952   0.097  0.00  0.00    +0.004 A 
ATOM     10  C   UNL     1      -4.063  -0.644   0.041  0.00  0.00    +0.000 A 
ATOM     11  C   UNL     1      -4.924  -1.132   1.006  0.00  0.00    +0.000 A 
ATOM     12  C   UNL     1      -4.439  -1.928   2.027  0.00  0.00    +0.000 A 
ATOM     13  C   UNL     1      -3.093  -2.238   2.081  0.00  0.00    +0.004 A 
ENDBRANCH   6   8
BRANCH   7  14
ATOM     14  C   UNL     1      -0.521   0.041   2.437  0.00  0.00    +0.315 C 
ATOM     15  O   UNL     1      -1.485  -0.351   3.050  0.00  0.00    -0.250 OA
BRANCH  14  16
ATOM     16  O   UNL     1       0.042   1.218   2.753  0.00  0.00    -0.467 OA
ATOM     17  C   UNL     1      -0.551   1.954   3.825  0.00  0.00    +0.280 C 
ENDBRANCH  14  16
ENDBRANCH   7  14
BRANCH   5  18
ATOM     18  C   UNL     1      -0.333  -4.214  -0.101  0.00  0.00    +0.337 C 
ATOM     19  O   UNL     1       0.099  -4.796  -1.079  0.00  0.00    -0.245 OA
BRANCH  18  20
ATOM     20  O   UNL     1      -0.784  -4.917   0.960  0.00  0.00    -0.465 OA
ATOM     21  C   UNL     1      -0.725  -6.342   0.866  0.00  0.00    +0.280 C 
ENDBRANCH  18  20
ENDBRANCH   5  18
BRANCH   4  22
ATOM     22  N   UNL     1       0.305  -2.738  -2.369  0.00  0.00    -0.343 N 
ATOM     23  H   UNL     1       0.375  -3.705  -2.383  0.00  0.00    +0.146 HD
BRANCH  22  24
ATOM     24  C   UNL     1       0.551  -1.968  -3.591  0.00  0.00    +0.106 C 
BRANCH  24  25
ATOM     25  C   UNL     1       0.896  -2.923  -4.735  0.00  0.00    +0.052 C 
BRANCH  25  26
ATOM     26  C   UNL     1       1.149  -2.131  -5.992  0.00  0.00    -0.040 C 
ATOM     27  C   UNL     1       2.347  -1.717  -6.465  0.00  0.00    -0.001 A 
ATOM     28  C   UNL     1       3.720  -1.872  -5.969  0.00  0.00    +0.010 A 
ATOM     29  C   UNL     1       4.738  -1.333  -6.677  0.00  0.00    +0.001 A 
ATOM     30  C   UNL     1       4.516  -0.630  -7.869  0.00  0.00    +0.002 A 
ATOM     31  C   UNL     1       3.283  -0.446  -8.388  0.00  0.00    +0.026 A 
ATOM     32  C   UNL     1       2.139  -0.971  -7.726  0.00  0.00    +0.043 A 
ATOM     33  N   UNL     1       0.863  -0.925  -8.022  0.00  0.00    -0.380 N 
ATOM     34  C   UNL     1       0.116  -1.644  -6.983  0.00  0.00    +0.144 C 
ATOM     35  H   UNL     1       0.476  -0.493  -8.800  0.00  0.00    +0.160 HD
ENDBRANCH  25  26
ENDBRANCH  24  25
ENDBRANCH  22  24
ENDBRANCH   4  22
TORSDOF 9
