REMARK  Name = ZINC40008952
REMARK  18 active torsions:
REMARK  status: ('A' for Active; 'I' for Inactive)
REMARK    1  A    between atoms: C_1  and  C_2
REMARK    2  A    between atoms: C_2  and  C_3
REMARK    3  A    between atoms: C_3  and  C_4
REMARK    4  A    between atoms: C_4  and  N_5
REMARK    5  A    between atoms: N_5  and  C_6
REMARK    6  A    between atoms: N_5  and  C_10
REMARK    7  A    between atoms: C_6  and  C_7
REMARK    8  A    between atoms: C_7  and  C_8
REMARK    9  A    between atoms: C_8  and  C_9
REMARK   10  A    between atoms: C_10  and  C_11
REMARK   11  A    between atoms: C_11  and  C_12
REMARK   12  A    between atoms: C_12  and  N_13
REMARK   13  A    between atoms: C_14  and  C_31
REMARK   14  A    between atoms: C_21  and  C_30
REMARK   15  A    between atoms: C_22  and  C_29
REMARK   16  A    between atoms: C_34  and  O_39
REMARK   17  A    between atoms: C_35  and  O_37
REMARK   18  A    between atoms: O_37  and  C_38
REMARK                            x       y       z     vdW  Elec       q    Type
REMARK                         _______ _______ _______ _____ _____    ______ ____
ROOT
ATOM      1  N   UNL     1       3.113  -6.613   4.912  0.00  0.00    -0.284 N 
ATOM      2  C   UNL     1       4.552  -6.722   5.201  0.00  0.00    +0.145 C 
ATOM      3  C   UNL     1       4.649  -7.266   6.588  0.00  0.00    +0.072 A 
ATOM      4  C   UNL     1       5.812  -7.598   7.417  0.00  0.00    +0.199 A 
ATOM      5  O   UNL     1       6.954  -7.298   7.115  0.00  0.00    -0.287 OA
ATOM      6  C   UNL     1       5.467  -8.335   8.659  0.00  0.00    +0.065 A 
ATOM      7  C   UNL     1       6.469  -8.894   9.451  0.00  0.00    +0.019 A 
ATOM      8  C   UNL     1       6.134  -9.574  10.589  0.00  0.00    -0.047 A 
ATOM      9  C   UNL     1       4.803  -9.708  10.956  0.00  0.00    -0.044 A 
ATOM     10  C   UNL     1       3.800  -9.160  10.188  0.00  0.00    +0.050 A 
ATOM     11  C   UNL     1       4.116  -8.460   9.023  0.00  0.00    +0.140 A 
ATOM     12  O   UNL     1       3.116  -7.922   8.288  0.00  0.00    -0.450 OA
ATOM     13  C   UNL     1       3.378  -7.446   7.055  0.00  0.00    +0.199 A 
ATOM     14  C   UNL     1       2.436  -7.033   6.000  0.00  0.00    +0.283 C 
ATOM     15  O   UNL     1       1.225  -7.067   6.096  0.00  0.00    -0.267 OA
ATOM     16  C   UNL     1       4.449 -10.462  12.212  0.00  0.00    +0.044 C 
ATOM     17  C   UNL     1       7.215 -10.180  11.447  0.00  0.00    +0.044 C 
ENDROOT
BRANCH   2  18
ATOM     18  C   UNL     1       5.202  -5.365   5.126  0.00  0.00    -0.019 A 
ATOM     19  C   UNL     1       4.549  -4.259   5.638  0.00  0.00    +0.009 A 
ATOM     20  C   UNL     1       5.141  -3.011   5.572  0.00  0.00    +0.049 A 
ATOM     21  C   UNL     1       6.392  -2.868   4.993  0.00  0.00    +0.158 A 
ATOM     22  C   UNL     1       7.049  -3.981   4.478  0.00  0.00    +0.162 A 
ATOM     23  C   UNL     1       6.452  -5.229   4.552  0.00  0.00    +0.055 A 
BRANCH  22  24
ATOM     24  O   UNL     1       8.277  -3.845   3.909  0.00  0.00    -0.491 OA
ATOM     25  C   UNL     1       8.891  -5.031   3.402  0.00  0.00    +0.277 C 
ENDBRANCH  22  24
BRANCH  21  26
ATOM     26  O   UNL     1       6.976  -1.641   4.927  0.00  0.00    -0.503 OA
ATOM     27  H   UNL     1       7.524  -1.425   5.693  0.00  0.00    +0.292 HD
ENDBRANCH  21  26
ENDBRANCH   2  18
BRANCH   1  28
ATOM     28  C   UNL     1       2.520  -6.127   3.663  0.00  0.00    +0.107 C 
BRANCH  28  29
ATOM     29  C   UNL     1       2.317  -4.613   3.751  0.00  0.00    +0.000 C 
BRANCH  29  30
ATOM     30  C   UNL     1       1.698  -4.105   2.447  0.00  0.00    -0.077 C 
BRANCH  30  31
ATOM     31  N   UNL     1       1.389  -2.675   2.576  0.00  0.00    +0.380 N 
ATOM     32  H   UNL     1       0.804  -2.529   3.385  0.00  0.00    -0.082 HD
BRANCH  31  33
ATOM     33  C   UNL     1       2.637  -1.916   2.731  0.00  0.00    -0.079 C 
BRANCH  33  34
ATOM     34  C   UNL     1       2.311  -0.444   2.990  0.00  0.00    -0.019 C 
BRANCH  34  36
ATOM     35  C   UNL     1       3.284   1.818   3.410  0.00  0.00    +0.004 C 
ATOM     36  C   UNL     1       3.611   0.346   3.151  0.00  0.00    -0.005 C 
ENDBRANCH  34  36
ENDBRANCH  33  34
ENDBRANCH  31  33
BRANCH  31  37
ATOM     37  C   UNL     1       0.683  -2.216   1.372  0.00  0.00    -0.079 C 
BRANCH  37  38
ATOM     38  C   UNL     1      -0.688  -2.891   1.296  0.00  0.00    -0.019 C 
BRANCH  38  39
ATOM     39  C   UNL     1      -1.391  -2.471   0.004  0.00  0.00    -0.005 C 
ATOM     40  C   UNL     1      -2.762  -3.146  -0.072  0.00  0.00    +0.004 C 
ENDBRANCH  38  39
ENDBRANCH  37  38
ENDBRANCH  31  37
ENDBRANCH  30  31
ENDBRANCH  29  30
ENDBRANCH  28  29
ENDBRANCH   1  28
TORSDOF 13
