REMARK  Name = ZINC35097105
REMARK  9 active torsions:
REMARK  status: ('A' for Active; 'I' for Inactive)
REMARK    1  A    between atoms: C_1  and  C_2
REMARK    2  A    between atoms: C_2  and  C_38
REMARK    3  A    between atoms: C_7  and  C_11
REMARK    4  A    between atoms: C_11  and  N_12
REMARK    5  A    between atoms: N_12  and  C_13
REMARK    6  A    between atoms: C_13  and  C_14
REMARK    7  A    between atoms: C_14  and  N_15
REMARK    8  A    between atoms: C_21  and  C_23
REMARK    9  A    between atoms: N_29  and  C_30
REMARK                            x       y       z     vdW  Elec       q    Type
REMARK                         _______ _______ _______ _____ _____    ______ ____
ROOT
ATOM      1  N   UNL     1       1.548   1.767   3.574  0.00  0.00    -0.280 N 
ATOM      2  C   UNL     1       2.101   2.985   3.411  0.00  0.00    +0.307 C 
ATOM      3  O   UNL     1       1.553   3.969   3.871  0.00  0.00    -0.252 OA
ATOM      4  N   UNL     1       3.262   3.113   2.738  0.00  0.00    -0.269 N 
ATOM      5  H   UNL     1       3.738   2.323   2.439  0.00  0.00    +0.156 HD
ENDROOT
BRANCH   4   6
ATOM      6  C   UNL     1       3.780   4.386   2.472  0.00  0.00    +0.036 A 
ATOM      7  C   UNL     1       5.154   4.584   2.435  0.00  0.00    +0.025 A 
ATOM      8  C   UNL     1       5.663   5.841   2.172  0.00  0.00    +0.023 A 
ATOM      9  C   UNL     1       4.805   6.903   1.946  0.00  0.00    +0.059 A 
ATOM     10  C   UNL     1       3.435   6.709   1.983  0.00  0.00    +0.061 A 
ATOM     11  C   UNL     1       2.921   5.452   2.239  0.00  0.00    +0.044 A 
ATOM     12 CL   UNL     1       2.362   8.044   1.699  0.00  0.00    -0.082 Cl
ATOM     13 CL   UNL     1       5.449   8.482   1.617  0.00  0.00    -0.082 Cl
ENDBRANCH   4   6
BRANCH   1  14
ATOM     14  C   UNL     1       2.208   0.583   3.020  0.00  0.00    +0.140 C 
BRANCH  14  20
ATOM     15  C   UNL     1      -0.398   1.779   0.383  0.00  0.00    +0.012 C 
ATOM     16  C   UNL     1      -0.430   0.252   0.286  0.00  0.00    -0.025 C 
ATOM     17  C   UNL     1       0.574  -0.330  -0.730  0.00  0.00    -0.000 C 
ATOM     18  C   UNL     1       1.833   0.543  -0.813  0.00  0.00    +0.031 C 
ATOM     19  C   UNL     1       2.368   0.799   0.575  0.00  0.00    -0.025 C 
ATOM     20  C   UNL     1       1.713   0.342   1.617  0.00  0.00    -0.053 C 
ATOM     21  C   UNL     1       0.424  -0.458   1.352  0.00  0.00    +0.022 C 
ATOM     22  C   UNL     1       0.704  -1.509   0.250  0.00  0.00    +0.012 C 
ATOM     23  C   UNL     1      -1.847  -0.309   0.152  0.00  0.00    +0.012 C 
ENDBRANCH  14  20
ENDBRANCH   1  14
BRANCH   1  24
ATOM     24  C   UNL     1       0.286   1.628   4.306  0.00  0.00    +0.125 C 
BRANCH  24  25
ATOM     25  C   UNL     1       0.579   1.412   5.792  0.00  0.00    +0.103 C 
BRANCH  25  26
ATOM     26  N   UNL     1      -0.686   1.272   6.525  0.00  0.00    -0.298 NA
ATOM     27  C   UNL     1      -1.455   2.523   6.492  0.00  0.00    +0.103 C 
ATOM     28  C   UNL     1      -2.838   2.286   7.106  0.00  0.00    +0.123 C 
ATOM     29  N   UNL     1      -2.661   1.700   8.444  0.00  0.00    -0.299 N 
ATOM     30  C   UNL     1      -1.791   0.522   8.578  0.00  0.00    +0.123 C 
ATOM     31  C   UNL     1      -0.449   0.829   7.905  0.00  0.00    +0.103 C 
ATOM     32  C   UNL     1      -3.280   2.229   9.518  0.00  0.00    +0.219 C 
ATOM     33  O   UNL     1      -3.994   3.201   9.389  0.00  0.00    -0.275 OA
BRANCH  32  34
ATOM     34  C   UNL     1      -3.084   1.613  10.880  0.00  0.00    +0.075 C 
ATOM     35  C   UNL     1      -3.990   0.399  11.142  0.00  0.00    +0.013 C 
ATOM     36  C   UNL     1      -4.168   0.940  12.571  0.00  0.00    +0.001 C 
ATOM     37  C   UNL     1      -3.856   2.333  11.998  0.00  0.00    +0.013 C 
ENDBRANCH  32  34
ENDBRANCH  25  26
ENDBRANCH  24  25
ENDBRANCH   1  24
TORSDOF 7
