REMARK  Name = ZINC20611691
REMARK  6 active torsions:
REMARK  status: ('A' for Active; 'I' for Inactive)
REMARK    1  A    between atoms: C_1  and  C_2
REMARK    2  A    between atoms: C_2  and  C_3
REMARK    3  A    between atoms: C_2  and  C_4
REMARK    4  A    between atoms: C_4  and  C_5
REMARK    5  A    between atoms: N_13  and  C_16
REMARK    6  A    between atoms: C_16  and  C_17
REMARK                            x       y       z     vdW  Elec       q    Type
REMARK                         _______ _______ _______ _____ _____    ______ ____
ROOT
ATOM      1  C   UNL     1      -1.456  -1.980  -0.034  0.00  0.00    +0.068 C 
ATOM      2  C   UNL     1      -2.875  -2.587   0.017  0.00  0.00    +0.107 C 
ATOM      3  C   UNL     1      -2.847  -3.751  -1.012  0.00  0.00    +0.122 C 
ATOM      4  C   UNL     1      -3.019  -4.982  -0.152  0.00  0.00    +0.229 C 
ATOM      5  O   UNL     1      -3.051  -6.123  -0.559  0.00  0.00    -0.275 OA
ATOM      6  N   UNL     1      -3.130  -4.616   1.131  0.00  0.00    -0.237 N 
ATOM      7  C   UNL     1      -3.069  -3.281   1.346  0.00  0.00    +0.227 C 
ATOM      8  O   UNL     1      -3.153  -2.726   2.421  0.00  0.00    -0.275 OA
ATOM      9  C   UNL     1      -1.434  -3.709  -1.607  0.00  0.00    +0.136 C 
ATOM     10  N   UNL     1      -0.930  -2.347  -1.376  0.00  0.00    -0.295 NA
ATOM     11  C   UNL     1      -1.437  -4.072  -3.064  0.00  0.00    +0.003 A 
ATOM     12  C   UNL     1      -2.059  -3.542  -4.172  0.00  0.00    +0.008 A 
ATOM     13  C   UNL     1      -1.860  -4.112  -5.417  0.00  0.00    +0.000 A 
ATOM     14  C   UNL     1      -1.035  -5.214  -5.545  0.00  0.00    +0.002 A 
ATOM     15  C   UNL     1      -0.410  -5.749  -4.438  0.00  0.00    +0.023 A 
ATOM     16  C   UNL     1      -0.605  -5.181  -3.181  0.00  0.00    +0.039 A 
ATOM     17  N   UNL     1      -0.093  -5.535  -1.931  0.00  0.00    -0.283 N 
ATOM     18  C   UNL     1      -0.532  -4.720  -0.953  0.00  0.00    +0.243 C 
ATOM     19  O   UNL     1      -0.255  -4.788   0.226  0.00  0.00    -0.273 OA
ATOM     20  H   UNL     1      -1.278  -1.719  -2.084  0.00  0.00    +0.123 HD
ATOM     21  H   UNL     1       0.509  -6.281  -1.784  0.00  0.00    +0.155 HD
ENDROOT
BRANCH   1  22
ATOM     22  C   UNL     1      -1.521  -0.459   0.114  0.00  0.00    +0.022 C 
BRANCH  22  24
ATOM     23  C   UNL     1      -0.167   1.640   0.171  0.00  0.00    +0.007 C 
ATOM     24  C   UNL     1      -0.102   0.112   0.148  0.00  0.00    -0.016 C 
ATOM     25  C   UNL     1       0.619  -0.387   1.402  0.00  0.00    +0.007 C 
ENDBRANCH  22  24
ENDBRANCH   1  22
BRANCH   6  26
ATOM     26  C   UNL     1      -3.310  -5.581   2.217  0.00  0.00    +0.153 C 
BRANCH  26  27
ATOM     27  C   UNL     1      -1.969  -6.134   2.625  0.00  0.00    -0.011 A 
ATOM     28  C   UNL     1      -1.524  -7.331   2.096  0.00  0.00    +0.006 A 
ATOM     29  C   UNL     1      -0.294  -7.838   2.470  0.00  0.00    +0.000 A 
ATOM     30  C   UNL     1       0.493  -7.149   3.374  0.00  0.00    +0.001 A 
ATOM     31  C   UNL     1       0.049  -5.952   3.905  0.00  0.00    +0.020 A 
ATOM     32  C   UNL     1      -1.180  -5.441   3.526  0.00  0.00    +0.046 A 
ATOM     33 CL   UNL     1      -1.735  -3.935   4.187  0.00  0.00    -0.083 Cl
ENDBRANCH  26  27
ENDBRANCH   6  26
TORSDOF 4
