REMARK  Name = ZINC67162072
REMARK  10 active torsions:
REMARK  status: ('A' for Active; 'I' for Inactive)
REMARK    1  A    between atoms: C_1  and  C_2
REMARK    2  A    between atoms: C_2  and  C_4
REMARK    3  A    between atoms: C_2  and  N_15
REMARK    4  A    between atoms: C_16  and  C_18
REMARK    5  A    between atoms: C_18  and  N_19
REMARK    6  A    between atoms: C_20  and  O_22
REMARK    7  A    between atoms: O_22  and  C_23
REMARK    8  A    between atoms: C_23  and  C_24
REMARK    9  A    between atoms: C_23  and  C_25
REMARK   10  A    between atoms: C_23  and  C_26
REMARK                            x       y       z     vdW  Elec       q    Type
REMARK                         _______ _______ _______ _____ _____    ______ ____
ROOT
ATOM      1  C   UNL     1      -0.019   1.526   0.010  0.00  0.00    +0.033 C 
ATOM      2  C   UNL     1       0.002  -0.004   0.002  0.00  0.00    +0.100 C 
ENDROOT
BRANCH   2   3
ATOM      3  C   UNL     1       0.731  -0.503   1.223  0.00  0.00    -0.026 A 
ATOM      4  C   UNL     1       0.079  -0.558   2.441  0.00  0.00    +0.009 A 
ATOM      5  C   UNL     1       0.740  -1.016   3.566  0.00  0.00    +0.048 A 
ATOM      6  C   UNL     1       2.060  -1.421   3.473  0.00  0.00    +0.142 A 
ATOM      7  C   UNL     1       2.718  -1.365   2.245  0.00  0.00    +0.076 A 
ATOM      8  C   UNL     1       2.048  -0.911   1.121  0.00  0.00    +0.032 A 
ATOM      9  N   UNL     1       4.056  -1.776   2.165  0.00  0.00    -0.280 N 
ATOM     10  C   UNL     1       4.580  -2.501   3.177  0.00  0.00    +0.255 C 
ATOM     11  O   UNL     1       5.744  -2.841   3.144  0.00  0.00    -0.272 OA
ATOM     12  C   UNL     1       3.712  -2.886   4.348  0.00  0.00    +0.325 C 
ATOM     13  O   UNL     1       2.726  -1.875   4.568  0.00  0.00    -0.481 OA
ATOM     14  H   UNL     1       4.597  -1.543   1.394  0.00  0.00    +0.155 HD
ENDBRANCH   2   3
BRANCH   2  15
ATOM     15  N   UNL     1      -1.372  -0.511   0.012  0.00  0.00    -0.307 N 
ATOM     16  C   UNL     1      -2.051  -0.643  -1.145  0.00  0.00    +0.231 C 
ATOM     17  O   UNL     1      -1.524  -0.341  -2.194  0.00  0.00    -0.274 OA
ATOM     18  H   UNL     1      -1.794  -0.752   0.852  0.00  0.00    +0.149 HD
BRANCH  16  19
ATOM     19  C   UNL     1      -3.465  -1.164  -1.134  0.00  0.00    +0.203 C 
BRANCH  19  20
ATOM     20  N   UNL     1      -3.978  -1.213  -2.505  0.00  0.00    -0.273 N 
ATOM     21  C   UNL     1      -5.231  -1.650  -2.741  0.00  0.00    +0.401 C 
ATOM     22  O   UNL     1      -5.935  -2.004  -1.816  0.00  0.00    -0.226 OA
ATOM     23  H   UNL     1      -3.416  -0.931  -3.244  0.00  0.00    +0.153 HD
BRANCH  21  24
ATOM     24  O   UNL     1      -5.702  -1.695  -4.001  0.00  0.00    -0.445 OA
BRANCH  24  25
ATOM     25  C   UNL     1      -7.038  -2.169  -4.178  0.00  0.00    +0.107 C 
ATOM     26  C   UNL     1      -8.005  -1.266  -3.409  0.00  0.00    +0.055 C 
ATOM     27  C   UNL     1      -7.395  -2.148  -5.665  0.00  0.00    +0.055 C 
ATOM     28  C   UNL     1      -7.146  -3.600  -3.647  0.00  0.00    +0.055 C 
ENDBRANCH  24  25
ENDBRANCH  21  24
ENDBRANCH  19  20
ENDBRANCH  16  19
ENDBRANCH   2  15
TORSDOF 6
