REMARK  Name = ZINC39467532
REMARK  7 active torsions:
REMARK  status: ('A' for Active; 'I' for Inactive)
REMARK    1  A    between atoms: C_1  and  N_2
REMARK    2  A    between atoms: N_2  and  C_3
REMARK    3  A    between atoms: C_3  and  C_4
REMARK    4  A    between atoms: C_15  and  C_17
REMARK    5  A    between atoms: C_20  and  C_23
REMARK    6  A    between atoms: C_23  and  O_24
REMARK    7  A    between atoms: O_24  and  C_25
REMARK                            x       y       z     vdW  Elec       q    Type
REMARK                         _______ _______ _______ _____ _____    ______ ____
ROOT
ATOM      1  C   UNL     1      -0.018   1.461   0.010  0.00  0.00    +0.132 C 
ATOM      2  N   UNL     1       0.002  -0.004   0.002  0.00  0.00    -0.296 N 
ATOM      3  C   UNL     1       0.000  -0.672  -1.169  0.00  0.00    +0.240 C 
ATOM      4  O   UNL     1       0.017  -1.884  -1.175  0.00  0.00    -0.273 OA
ENDROOT
BRANCH   3   5
ATOM      5  C   UNL     1      -0.023   0.089  -2.470  0.00  0.00    +0.204 C 
ATOM      6  C   UNL     1      -1.438   0.499  -2.829  0.00  0.00    +0.051 C 
ATOM      7  C   UNL     1      -1.875  -0.324  -3.757  0.00  0.00    +0.161 C 
ATOM      8  O   UNL     1      -0.955  -1.262  -4.088  0.00  0.00    -0.407 OA
ATOM      9  N   UNL     1       0.362  -0.793  -3.603  0.00  0.00    -0.140 NA
ATOM     10  H   UNL     1       0.848  -0.272  -4.317  0.00  0.00    +0.168 HD
BRANCH   7  11
ATOM     11  C   UNL     1      -3.244  -0.235  -4.381  0.00  0.00    +0.304 C 
BRANCH  11  12
ATOM     12  O   UNL     1      -3.115   0.082  -5.769  0.00  0.00    -0.483 OA
BRANCH  12  13
ATOM     13  C   UNL     1      -4.265   0.199  -6.484  0.00  0.00    +0.141 A 
ATOM     14  C   UNL     1      -4.224   0.500  -7.841  0.00  0.00    +0.068 A 
ATOM     15  C   UNL     1      -5.423   0.610  -8.528  0.00  0.00    +0.062 A 
ATOM     16  C   UNL     1      -6.612   0.417  -7.847  0.00  0.00    +0.131 A 
ATOM     17  N   UNL     1      -6.615   0.133  -6.559  0.00  0.00    -0.258 NA
ATOM     18  C   UNL     1      -5.496   0.015  -5.871  0.00  0.00    +0.156 A 
ATOM     19 CL   UNL     1      -5.433   0.984 -10.224  0.00  0.00    -0.082 Cl
ENDBRANCH  12  13
ENDBRANCH  11  12
ENDBRANCH   7  11
ENDBRANCH   3   5
BRANCH   2  20
ATOM     20  C   UNL     1       0.024  -0.743   1.267  0.00  0.00    +0.181 C 
BRANCH  20  21
ATOM     21  C   UNL     1      -1.389  -1.016   1.714  0.00  0.00    +0.126 A 
ATOM     22  H   UNL     1      -1.756  -2.930   0.965  0.00  0.00    +0.167 HD
ATOM     23  N   UNL     1      -2.127  -0.190   2.395  0.00  0.00    -0.231 NA
ATOM     24  C   UNL     1      -3.343  -0.750   2.629  0.00  0.00    +0.089 A 
ATOM     25  C   UNL     1      -4.491  -0.316   3.295  0.00  0.00    +0.032 A 
ATOM     26  C   UNL     1      -5.588  -1.128   3.363  0.00  0.00    +0.040 A 
ATOM     27  C   UNL     1      -5.574  -2.387   2.776  0.00  0.00    +0.125 A 
ATOM     28  C   UNL     1      -4.450  -2.836   2.112  0.00  0.00    +0.066 A 
ATOM     29  C   UNL     1      -3.328  -2.023   2.034  0.00  0.00    +0.069 A 
ATOM     30  N   UNL     1      -2.080  -2.160   1.458  0.00  0.00    -0.340 N 
ATOM     31  F   UNL     1      -6.668  -3.176   2.854  0.00  0.00    -0.205 F 
ENDBRANCH  20  21
ENDBRANCH   2  20
TORSDOF 6
