REMARK  Name = ZINC20722887
REMARK  3 active torsions:
REMARK  status: ('A' for Active; 'I' for Inactive)
REMARK    1  A    between atoms: C_1  and  C_2
REMARK    2  A    between atoms: C_2  and  C_3
REMARK    3  A    between atoms: C_2  and  C_4
REMARK                            x       y       z     vdW  Elec       q    Type
REMARK                         _______ _______ _______ _____ _____    ______ ____
ROOT
ATOM      1  C   UNL     1       0.707  -0.490  -1.238  0.00  0.00    -0.044 A 
ATOM      2  C   UNL     1       0.211  -0.143  -2.478  0.00  0.00    +0.006 A 
ATOM      3  C   UNL     1       0.815  -0.559  -3.654  0.00  0.00    +0.024 A 
ATOM      4  C   UNL     1       1.959  -1.351  -3.538  0.00  0.00    +0.038 A 
ATOM      5  C   UNL     1       2.453  -1.696  -2.274  0.00  0.00    -0.006 A 
ATOM      6  C   UNL     1       1.849  -1.274  -1.109  0.00  0.00    +0.010 A 
ATOM      7  C   UNL     1       3.668  -2.534  -2.515  0.00  0.00    +0.111 C 
ATOM      8  C   UNL     1       4.916  -1.883  -1.925  0.00  0.00    +0.122 C 
ATOM      9  C   UNL     1       5.016  -2.137  -0.446  0.00  0.00    +0.220 C 
ATOM     10  O   UNL     1       5.439  -1.257   0.274  0.00  0.00    -0.275 OA
ATOM     11  N   UNL     1       4.649  -3.312   0.106  0.00  0.00    -0.270 N 
ATOM     12  C   UNL     1       3.983  -4.241  -0.693  0.00  0.00    +0.125 A 
ATOM     13  C   UNL     1       3.506  -3.913  -1.937  0.00  0.00    +0.032 A 
ATOM     14  C   UNL     1       2.903  -5.040  -2.473  0.00  0.00    +0.141 A 
ATOM     15  N   UNL     1       2.997  -6.011  -1.595  0.00  0.00    -0.180 NA
ATOM     16  N   UNL     1       3.665  -5.523  -0.462  0.00  0.00    -0.264 N 
ATOM     17  H   UNL     1       3.863  -6.024   0.345  0.00  0.00    +0.190 HD
ATOM     18  C   UNL     1       3.780  -2.610  -4.022  0.00  0.00    +0.233 C 
ATOM     19  O   UNL     1       4.633  -3.198  -4.653  0.00  0.00    -0.274 OA
ATOM     20  N   UNL     1       2.752  -1.899  -4.531  0.00  0.00    -0.284 N 
ATOM     21  H   UNL     1       4.845  -3.507   1.036  0.00  0.00    +0.156 HD
ATOM     22  H   UNL     1       2.589  -1.784  -5.480  0.00  0.00    +0.155 HD
ENDROOT
BRANCH   1  24
ATOM     23  C   UNL     1      -0.019   1.526   0.010  0.00  0.00    +0.012 C 
ATOM     24  C   UNL     1       0.002  -0.004   0.002  0.00  0.00    +0.013 C 
ATOM     25  C   UNL     1      -1.433  -0.534   0.013  0.00  0.00    +0.012 C 
ENDBRANCH   1  24
TORSDOF 1
