REMARK  Name = ZINC67164961
REMARK  13 active torsions:
REMARK  status: ('A' for Active; 'I' for Inactive)
REMARK    1  A    between atoms: C_1  and  C_2
REMARK    2  A    between atoms: N_7  and  C_9
REMARK    3  A    between atoms: C_9  and  C_10
REMARK    4  A    between atoms: C_15  and  C_16
REMARK    5  A    between atoms: C_16  and  N_17
REMARK    6  A    between atoms: C_18  and  C_20
REMARK    7  A    between atoms: C_20  and  C_22
REMARK    8  A    between atoms: C_20  and  N_23
REMARK    9  A    between atoms: C_24  and  O_26
REMARK   10  A    between atoms: O_26  and  C_27
REMARK   11  A    between atoms: C_27  and  C_28
REMARK   12  A    between atoms: C_27  and  C_29
REMARK   13  A    between atoms: C_27  and  C_30
REMARK                            x       y       z     vdW  Elec       q    Type
REMARK                         _______ _______ _______ _____ _____    ______ ____
ROOT
ATOM      1  C   UNL     1       3.363  -4.166   1.178  0.00  0.00    +0.139 C 
ENDROOT
BRANCH   1   7
ATOM      2  C   UNL     1       1.475  -3.961   2.808  0.00  0.00    -0.059 A 
ATOM      3  C   UNL     1       0.473  -4.516   3.582  0.00  0.00    +0.002 A 
ATOM      4  C   UNL     1       0.275  -5.884   3.579  0.00  0.00    +0.000 A 
ATOM      5  C   UNL     1       1.079  -6.697   2.801  0.00  0.00    +0.000 A 
ATOM      6  C   UNL     1       2.080  -6.141   2.026  0.00  0.00    +0.005 A 
ATOM      7  C   UNL     1       2.275  -4.772   2.027  0.00  0.00    -0.029 A 
BRANCH   2   8
ATOM      8  C   UNL     1       1.691  -2.469   2.812  0.00  0.00    -0.043 C 
BRANCH   8  14
ATOM      9  C   UNL     1       0.121   1.764   4.705  0.00  0.00    +0.005 C 
ATOM     10  C   UNL     1      -0.195   0.276   4.542  0.00  0.00    -0.031 C 
ATOM     11  C   UNL     1      -1.542   0.113   3.832  0.00  0.00    -0.001 C 
ATOM     12  C   UNL     1      -1.811  -1.377   3.604  0.00  0.00    -0.018 C 
ATOM     13  C   UNL     1      -0.656  -1.982   2.804  0.00  0.00    -0.078 C 
ATOM     14  N   UNL     1       0.598  -1.818   3.548  0.00  0.00    +0.383 N 
ATOM     15  C   UNL     1       0.901  -0.391   3.708  0.00  0.00    -0.075 C 
ATOM     16  H   UNL     1       0.507  -2.245   4.457  0.00  0.00    -0.081 HD
ENDBRANCH   8  14
ENDBRANCH   2   8
ENDBRANCH   1   7
BRANCH   1  17
ATOM     17  N   UNL     1       4.483  -3.765   2.034  0.00  0.00    -0.310 N 
ATOM     18  C   UNL     1       5.577  -3.196   1.489  0.00  0.00    +0.233 C 
ATOM     19  O   UNL     1       5.634  -3.015   0.291  0.00  0.00    -0.274 OA
ATOM     20  H   UNL     1       4.438  -3.910   2.992  0.00  0.00    +0.149 HD
BRANCH  18  21
ATOM     21  C   UNL     1       6.729  -2.784   2.369  0.00  0.00    +0.159 C 
ATOM     22  C   UNL     1       6.246  -1.753   3.392  0.00  0.00    +0.038 C 
BRANCH  21  23
ATOM     23  N   UNL     1       7.786  -2.194   1.544  0.00  0.00    -0.270 N 
ATOM     24  C   UNL     1       9.064  -2.212   1.973  0.00  0.00    +0.401 C 
ATOM     25  O   UNL     1       9.339  -2.717   3.043  0.00  0.00    -0.226 OA
ATOM     26  H   UNL     1       7.567  -1.791   0.690  0.00  0.00    +0.153 HD
BRANCH  24  27
ATOM     27  O   UNL     1      10.036  -1.671   1.215  0.00  0.00    -0.445 OA
BRANCH  27  28
ATOM     28  C   UNL     1      11.367  -1.725   1.731  0.00  0.00    +0.107 C 
ATOM     29  C   UNL     1      11.774  -3.185   1.940  0.00  0.00    +0.055 C 
ATOM     30  C   UNL     1      12.327  -1.065   0.739  0.00  0.00    +0.055 C 
ATOM     31  C   UNL     1      11.427  -0.983   3.068  0.00  0.00    +0.055 C 
ENDBRANCH  27  28
ENDBRANCH  24  27
ENDBRANCH  21  23
ENDBRANCH  18  21
ENDBRANCH   1  17
TORSDOF 8
