REMARK  Name = ZINC40824468
REMARK  12 active torsions:
REMARK  status: ('A' for Active; 'I' for Inactive)
REMARK    1  A    between atoms: C_1  and  C_2
REMARK    2  A    between atoms: C_6  and  C_7
REMARK    3  A    between atoms: N_9  and  C_10
REMARK    4  A    between atoms: C_10  and  C_11
REMARK    5  A    between atoms: C_11  and  C_12
REMARK    6  A    between atoms: C_15  and  O_20
REMARK    7  A    between atoms: C_16  and  O_18
REMARK    8  A    between atoms: O_18  and  C_19
REMARK    9  A    between atoms: O_20  and  C_21
REMARK   10  A    between atoms: N_26  and  N_27
REMARK   11  A    between atoms: N_27  and  C_28
REMARK   12  A    between atoms: C_28  and  N_30
REMARK                            x       y       z     vdW  Elec       q    Type
REMARK                         _______ _______ _______ _____ _____    ______ ____
ROOT
ATOM      1  C   UNL     1      -0.018   1.503   0.010  0.00  0.00    +0.048 C 
ATOM      2  C   UNL     1       0.002  -0.004   0.002  0.00  0.00    +0.009 A 
ATOM      3  C   UNL     1       0.009  -0.838  -1.123  0.00  0.00    +0.042 A 
ATOM      4  C   UNL     1       0.027  -2.137  -0.673  0.00  0.00    +0.115 A 
ATOM      5  O   UNL     1       0.035  -2.112   0.658  0.00  0.00    -0.454 OA
ATOM      6  C   UNL     1       0.024  -0.830   1.091  0.00  0.00    +0.193 A 
ATOM      7  C   UNL     1       0.034  -3.326  -1.600  0.00  0.00    +0.075 C 
ATOM      8  C   UNL     1      -0.491  -2.903  -2.974  0.00  0.00    +0.014 C 
ATOM      9  C   UNL     1       0.279  -1.685  -3.495  0.00  0.00    +0.058 C 
ATOM     10  C   UNL     1       0.000  -0.512  -2.566  0.00  0.00    +0.070 C 
ATOM     11  N   UNL     1      -0.229   0.686  -3.008  0.00  0.00    -0.185 NA
ENDROOT
BRANCH   6  12
ATOM     12  C   UNL     1       0.031  -0.400   2.494  0.00  0.00    +0.280 C 
ATOM     13  O   UNL     1       0.016   0.786   2.766  0.00  0.00    -0.267 OA
ATOM     14  N   UNL     1       0.053  -1.317   3.480  0.00  0.00    -0.309 N 
ATOM     15  H   UNL     1       0.065  -2.263   3.263  0.00  0.00    +0.149 HD
BRANCH  14  16
ATOM     16  C   UNL     1       0.060  -0.887   4.881  0.00  0.00    +0.109 C 
BRANCH  16  17
ATOM     17  C   UNL     1       0.086  -2.116   5.792  0.00  0.00    +0.054 C 
BRANCH  17  18
ATOM     18  C   UNL     1       0.093  -1.674   7.232  0.00  0.00    -0.042 A 
ATOM     19  C   UNL     1       1.294  -1.448   7.879  0.00  0.00    +0.007 A 
ATOM     20  C   UNL     1       1.306  -1.042   9.200  0.00  0.00    +0.049 A 
ATOM     21  C   UNL     1       0.112  -0.860   9.879  0.00  0.00    +0.161 A 
ATOM     22  C   UNL     1      -1.097  -1.087   9.229  0.00  0.00    +0.162 A 
ATOM     23  C   UNL     1      -1.101  -1.489   7.902  0.00  0.00    +0.053 A 
BRANCH  22  24
ATOM     24  O   UNL     1      -2.271  -0.909   9.891  0.00  0.00    -0.491 OA
ATOM     25  C   UNL     1      -3.473  -1.160   9.160  0.00  0.00    +0.277 C 
ENDBRANCH  22  24
BRANCH  21  26
ATOM     26  O   UNL     1       0.122  -0.461  11.179  0.00  0.00    -0.491 OA
ATOM     27  C   UNL     1       1.399  -0.248  11.783  0.00  0.00    +0.277 C 
ENDBRANCH  21  26
ENDBRANCH  17  18
ENDBRANCH  16  17
ENDBRANCH  14  16
ENDBRANCH   6  12
BRANCH  11  28
ATOM     28  N   UNL     1      -0.224   0.938  -4.386  0.00  0.00    -0.218 N 
ATOM     29  H   UNL     1      -0.050   0.216  -5.010  0.00  0.00    +0.176 HD
BRANCH  28  30
ATOM     30  C   UNL     1      -0.462   2.183  -4.844  0.00  0.00    +0.147 C 
ATOM     31  S   UNL     1      -0.456   2.490  -6.529  0.00  0.00    -0.017 S 
BRANCH  30  32
ATOM     32  N   UNL     1      -0.704   3.186  -3.977  0.00  0.00    -0.339 N 
ATOM     33  H   UNL     1      -0.707   3.011  -3.023  0.00  0.00    +0.144 HD
ATOM     34  H   UNL     1      -0.875   4.082  -4.307  0.00  0.00    +0.144 HD
ENDBRANCH  30  32
ENDBRANCH  28  30
ENDBRANCH  11  28
TORSDOF 9
