REMARK  Name = ZINC32655147
REMARK  8 active torsions:
REMARK  status: ('A' for Active; 'I' for Inactive)
REMARK    1  A    between atoms: C_1  and  O_2
REMARK    2  A    between atoms: O_2  and  C_3
REMARK    3  A    between atoms: C_7  and  C_11
REMARK    4  A    between atoms: C_8  and  O_9
REMARK    5  A    between atoms: O_9  and  C_10
REMARK    6  A    between atoms: C_18  and  S_29
REMARK    7  A    between atoms: S_29  and  C_30
REMARK    8  A    between atoms: C_30  and  C_31
REMARK                            x       y       z     vdW  Elec       q    Type
REMARK                         _______ _______ _______ _____ _____    ______ ____
ROOT
ATOM      1  C   UNL     1       3.864  -0.473  -0.694  0.00  0.00    +0.096 C 
ATOM      2  C   UNL     1       4.818  -0.395   0.460  0.00  0.00    +0.069 A 
ATOM      3  C   UNL     1       4.734  -1.315   1.511  0.00  0.00    +0.258 A 
ATOM      4  O   UNL     1       3.885  -2.192   1.503  0.00  0.00    -0.267 OA
ATOM      5  N   UNL     1       5.608  -1.213   2.535  0.00  0.00    -0.302 N 
ATOM      6  H   UNL     1       5.561  -1.927   3.371  0.00  0.00    +0.171 HD
ATOM      7  C   UNL     1       6.548  -0.228   2.535  0.00  0.00    +0.171 A 
ATOM      8  N   UNL     1       6.633   0.640   1.548  0.00  0.00    -0.208 NA
ATOM      9  C   UNL     1       5.795   0.585   0.506  0.00  0.00    +0.135 A 
ATOM     10  N   UNL     1       5.898   1.498  -0.524  0.00  0.00    -0.302 N 
ATOM     11  C   UNL     1       5.338   1.238  -1.745  0.00  0.00    +0.017 C 
ATOM     12  C   UNL     1       4.372   0.305  -1.881  0.00  0.00    +0.024 C 
ATOM     13  C   UNL     1       3.808   0.026  -3.139  0.00  0.00    +0.162 C 
ATOM     14  O   UNL     1       2.935  -0.815  -3.226  0.00  0.00    -0.292 OA
ATOM     15  C   UNL     1       4.262   0.748  -4.377  0.00  0.00    +0.080 C 
ATOM     16  C   UNL     1       5.723   1.173  -4.199  0.00  0.00    +0.014 C 
ATOM     17  C   UNL     1       5.828   2.028  -2.935  0.00  0.00    +0.051 C 
ATOM     18  H   UNL     1       6.433   2.446  -0.367  0.00  0.00    +0.153 HD
ENDROOT
BRANCH   1  23
ATOM     19  C   UNL     1       1.240   1.817   0.790  0.00  0.00    +0.162 A 
ATOM     20  C   UNL     1       0.078   1.118   0.507  0.00  0.00    +0.049 A 
ATOM     21  C   UNL     1       0.144  -0.090  -0.162  0.00  0.00    +0.004 A 
ATOM     22  C   UNL     1       1.368  -0.603  -0.549  0.00  0.00    +0.008 A 
ATOM     23  C   UNL     1       2.531   0.090  -0.270  0.00  0.00    +0.010 A 
ATOM     24  C   UNL     1       2.472   1.301   0.400  0.00  0.00    +0.166 A 
BRANCH  19  26
ATOM     25  C   UNL     1      -0.122   3.474   1.819  0.00  0.00    +0.277 C 
ATOM     26  O   UNL     1       1.177   3.006   1.448  0.00  0.00    -0.491 OA
ENDBRANCH  19  26
BRANCH  24  27
ATOM     27  O   UNL     1       3.615   1.984   0.676  0.00  0.00    -0.491 OA
ATOM     28  C   UNL     1       4.061   1.980   2.034  0.00  0.00    +0.277 C 
ENDBRANCH  24  27
ENDBRANCH   1  23
BRANCH   7  29
ATOM     29  S   UNL     1       7.676  -0.112   3.885  0.00  0.00    -0.083 S 
BRANCH  29  30
ATOM     30  C   UNL     1       8.648   1.321   3.359  0.00  0.00    +0.115 C 
BRANCH  30  31
ATOM     31  C   UNL     1       9.707   1.616   4.391  0.00  0.00    -0.002 A 
ATOM     32  C   UNL     1       9.434   2.481   5.434  0.00  0.00    +0.007 A 
ATOM     33  C   UNL     1      10.402   2.747   6.383  0.00  0.00    +0.000 A 
ATOM     34  C   UNL     1      11.649   2.157   6.285  0.00  0.00    +0.003 A 
ATOM     35  C   UNL     1      11.926   1.296   5.240  0.00  0.00    +0.038 A 
ATOM     36  C   UNL     1      10.954   1.024   4.291  0.00  0.00    +0.127 A 
ATOM     37  F   UNL     1      11.224   0.183   3.269  0.00  0.00    -0.205 F 
ENDBRANCH  30  31
ENDBRANCH  29  30
ENDBRANCH   7  29
TORSDOF 6
