REMARK  Name = ZINC11099979
REMARK  9 active torsions:
REMARK  status: ('A' for Active; 'I' for Inactive)
REMARK    1  A    between atoms: C_1  and  C_2
REMARK    2  A    between atoms: C_2  and  O_3
REMARK    3  A    between atoms: O_3  and  C_4
REMARK    4  A    between atoms: C_12  and  C_14
REMARK    5  A    between atoms: C_19  and  N_20
REMARK    6  A    between atoms: C_21  and  C_23
REMARK    7  A    between atoms: N_28  and  C_30
REMARK    8  A    between atoms: C_33  and  N_36
REMARK    9  A    between atoms: C_37  and  C_39
REMARK                            x       y       z     vdW  Elec       q    Type
REMARK                         _______ _______ _______ _____ _____    ______ ____
ROOT
ATOM      1  N   UNL     1       0.829  -2.908  -0.634  0.00  0.00    -0.285 N 
ATOM      2  C   UNL     1       0.792  -1.794  -1.392  0.00  0.00    +0.222 C 
ATOM      3  O   UNL     1       1.289  -1.796  -2.498  0.00  0.00    -0.275 OA
ATOM      4  H   UNL     1       0.481  -2.890   0.271  0.00  0.00    +0.155 HD
ENDROOT
BRANCH   1  10
ATOM      5  C   UNL     1       0.864  -5.328  -0.742  0.00  0.00    +0.058 A 
ATOM      6  C   UNL     1       1.409  -6.500  -1.271  0.00  0.00    +0.015 A 
ATOM      7  C   UNL     1       2.441  -6.429  -2.181  0.00  0.00    +0.001 A 
ATOM      8  C   UNL     1       2.938  -5.199  -2.580  0.00  0.00    +0.002 A 
ATOM      9  C   UNL     1       2.406  -4.032  -2.070  0.00  0.00    +0.024 A 
ATOM     10  C   UNL     1       1.367  -4.084  -1.151  0.00  0.00    +0.046 A 
BRANCH   5  19
ATOM     11  C   UNL     1       0.509  -7.676   4.954  0.00  0.00    +0.403 C 
ATOM     12  O   UNL     1      -0.439  -7.814   5.702  0.00  0.00    -0.226 OA
ATOM     13  N   UNL     1       0.419  -6.845   3.898  0.00  0.00    -0.264 N 
ATOM     14  C   UNL     1      -0.820  -6.098   3.637  0.00  0.00    +0.130 C 
ATOM     15  C   UNL     1      -1.285  -6.405   2.208  0.00  0.00    +0.127 C 
ATOM     16  N   UNL     1      -0.146  -6.229   1.295  0.00  0.00    -0.294 N 
ATOM     17  C   UNL     1       1.091  -6.979   1.553  0.00  0.00    +0.127 C 
ATOM     18  C   UNL     1       1.558  -6.669   2.985  0.00  0.00    +0.130 C 
ATOM     19  C   UNL     1      -0.237  -5.398   0.238  0.00  0.00    +0.248 C 
ATOM     20  O   UNL     1      -1.226  -4.706   0.091  0.00  0.00    -0.270 OA
BRANCH  11  21
ATOM     21  O   UNL     1       1.650  -8.354   5.182  0.00  0.00    -0.451 OA
BRANCH  21  23
ATOM     22  C   UNL     1       3.043  -9.911   6.434  0.00  0.00    +0.048 C 
ATOM     23  C   UNL     1       1.675  -9.232   6.339  0.00  0.00    +0.230 C 
ENDBRANCH  21  23
ENDBRANCH  11  21
ENDBRANCH   5  19
ENDBRANCH   1  10
BRANCH   2  24
ATOM     24  C   UNL     1       0.133  -0.545  -0.865  0.00  0.00    +0.102 C 
ATOM     25  C   UNL     1      -1.367  -0.789  -0.580  0.00  0.00    +0.110 C 
ATOM     26  C   UNL     1      -2.037   0.506  -0.982  0.00  0.00    +0.221 C 
ATOM     27  O   UNL     1      -3.161   0.834  -0.666  0.00  0.00    -0.275 OA
ATOM     28  N   UNL     1      -1.206   1.238  -1.745  0.00  0.00    -0.271 N 
ATOM     29  C   UNL     1       0.073   0.550  -1.953  0.00  0.00    +0.127 C 
BRANCH  28  30
ATOM     30  C   UNL     1      -1.522   2.496  -2.274  0.00  0.00    +0.036 A 
ATOM     31  C   UNL     1      -0.552   3.232  -2.941  0.00  0.00    +0.025 A 
ATOM     32  C   UNL     1      -0.864   4.469  -3.467  0.00  0.00    +0.025 A 
ATOM     33  C   UNL     1      -2.146   4.983  -3.320  0.00  0.00    +0.033 A 
ATOM     34  C   UNL     1      -3.115   4.249  -2.648  0.00  0.00    +0.025 A 
ATOM     35  C   UNL     1      -2.804   3.009  -2.127  0.00  0.00    +0.025 A 
BRANCH  33  36
ATOM     36  N   UNL     1      -2.462   6.241  -3.848  0.00  0.00    -0.286 N 
ATOM     37  C   UNL     1      -1.859   6.669  -4.975  0.00  0.00    +0.214 C 
ATOM     38  O   UNL     1      -1.121   5.926  -5.588  0.00  0.00    -0.276 OA
ATOM     39  C   UNL     1      -2.100   8.071  -5.473  0.00  0.00    +0.109 C 
ATOM     40  H   UNL     1      -3.114   6.804  -3.404  0.00  0.00    +0.155 HD
ENDBRANCH  33  36
ENDBRANCH  28  30
ENDBRANCH   2  24
TORSDOF 7
