REMARK  Name = ZINC12413671
REMARK  11 active torsions:
REMARK  status: ('A' for Active; 'I' for Inactive)
REMARK    1  A    between atoms: C_1  and  C_2
REMARK    2  A    between atoms: C_2  and  N_3
REMARK    3  A    between atoms: C_4  and  C_26
REMARK    4  A    between atoms: C_7  and  S_8
REMARK    5  A    between atoms: S_8  and  C_9
REMARK    6  A    between atoms: C_9  and  C_10
REMARK    7  A    between atoms: N_12  and  C_13
REMARK    8  A    between atoms: C_13  and  C_15
REMARK    9  A    between atoms: C_13  and  C_16
REMARK   10  A    between atoms: C_26  and  N_27
REMARK   11  A    between atoms: C_29  and  C_32
REMARK                            x       y       z     vdW  Elec       q    Type
REMARK                         _______ _______ _______ _____ _____    ______ ____
ROOT
ATOM      1  N   UNL     1      -0.749   3.044   1.275  0.00  0.00    -0.305 N 
ATOM      2  C   UNL     1      -1.709   3.860   0.743  0.00  0.00    +0.157 A 
ATOM      3  N   UNL     1      -1.341   5.090   0.968  0.00  0.00    -0.132 NA
ATOM      4  N   UNL     1      -0.223   5.107   1.601  0.00  0.00    -0.122 NA
ATOM      5  C   UNL     1       0.185   3.878   1.820  0.00  0.00    +0.192 A 
ENDROOT
BRANCH   1   7
ATOM      6  C   UNL     1      -0.013   1.086   0.008  0.00  0.00    +0.027 C 
ATOM      7  C   UNL     1      -0.729   1.579   1.267  0.00  0.00    +0.122 C 
ENDBRANCH   1   7
BRANCH   5   8
ATOM      8  S   UNL     1       1.659   3.397   2.656  0.00  0.00    -0.077 S 
BRANCH   8   9
ATOM      9  C   UNL     1       2.335   5.026   3.065  0.00  0.00    +0.173 C 
BRANCH   9  10
ATOM     10  C   UNL     1       3.636   4.858   3.806  0.00  0.00    +0.224 C 
ATOM     11  O   UNL     1       4.064   3.747   4.036  0.00  0.00    -0.275 OA
ATOM     12  N   UNL     1       4.324   5.943   4.214  0.00  0.00    -0.312 N 
ATOM     13  H   UNL     1       3.981   6.832   4.030  0.00  0.00    +0.149 HD
BRANCH  12  14
ATOM     14  C   UNL     1       5.588   5.780   4.935  0.00  0.00    +0.076 C 
ATOM     15  C   UNL     1       5.304   5.582   6.425  0.00  0.00    +0.028 C 
BRANCH  14  16
ATOM     16  C   UNL     1       6.450   7.030   4.742  0.00  0.00    -0.010 C 
ATOM     17  C   UNL     1       5.706   8.251   5.287  0.00  0.00    +0.012 C 
ATOM     18  C   UNL     1       6.568   9.501   5.094  0.00  0.00    -0.010 C 
ATOM     19  C   UNL     1       7.889   9.330   5.847  0.00  0.00    +0.007 C 
ATOM     20  C   UNL     1       8.633   8.109   5.303  0.00  0.00    -0.010 C 
ATOM     21  C   UNL     1       7.771   6.860   5.495  0.00  0.00    +0.012 C 
ATOM     22  C   UNL     1       8.917   8.308   3.812  0.00  0.00    +0.007 C 
ATOM     23  C   UNL     1       7.596   8.478   3.059  0.00  0.00    -0.010 C 
ATOM     24  C   UNL     1       6.852   9.699   3.604  0.00  0.00    +0.007 C 
ATOM     25  C   UNL     1       6.734   7.228   3.252  0.00  0.00    +0.012 C 
ENDBRANCH  14  16
ENDBRANCH  12  14
ENDBRANCH   9  10
ENDBRANCH   8   9
ENDBRANCH   5   8
BRANCH   2  26
ATOM     26  C   UNL     1      -2.961   3.418   0.030  0.00  0.00    +0.244 C 
BRANCH  26  27
ATOM     27  N   UNL     1      -4.046   3.259   1.002  0.00  0.00    -0.155 N 
ATOM     28  N   UNL     1      -4.872   4.183   1.355  0.00  0.00    -0.130 NA
ATOM     29  C   UNL     1      -5.700   3.667   2.241  0.00  0.00    +0.205 A 
ATOM     30  N   UNL     1      -5.335   2.388   2.408  0.00  0.00    -0.108 NA
ATOM     31  N   UNL     1      -4.327   2.173   1.632  0.00  0.00    -0.045 NA
BRANCH  29  32
ATOM     32  C   UNL     1      -6.817   4.367   2.924  0.00  0.00    +0.023 A 
ATOM     33  C   UNL     1      -7.073   5.709   2.650  0.00  0.00    +0.012 A 
ATOM     34  C   UNL     1      -8.116   6.353   3.284  0.00  0.00    +0.001 A 
ATOM     35  C   UNL     1      -8.901   5.671   4.196  0.00  0.00    +0.000 A 
ATOM     36  C   UNL     1      -8.649   4.340   4.475  0.00  0.00    +0.001 A 
ATOM     37  C   UNL     1      -7.611   3.685   3.843  0.00  0.00    +0.012 A 
ENDBRANCH  29  32
ENDBRANCH  26  27
ENDBRANCH   2  26
TORSDOF 9
