REMARK  Name = ZINC11478712
REMARK  9 active torsions:
REMARK  status: ('A' for Active; 'I' for Inactive)
REMARK    1  A    between atoms: C_1  and  C_2
REMARK    2  A    between atoms: C_5  and  C_17
REMARK    3  A    between atoms: N_8  and  C_10
REMARK    4  A    between atoms: C_17  and  O_19
REMARK    5  A    between atoms: O_19  and  C_20
REMARK    6  A    between atoms: C_20  and  C_22
REMARK    7  A    between atoms: C_20  and  C_23
REMARK    8  A    between atoms: N_25  and  C_26
REMARK    9  A    between atoms: C_31  and  N_32
REMARK                            x       y       z     vdW  Elec       q    Type
REMARK                         _______ _______ _______ _____ _____    ______ ____
ROOT
ATOM      1  C   UNL     1       7.174   2.451  -2.423  0.00  0.00    +0.347 C 
ATOM      2  O   UNL     1       8.204   1.806  -2.376  0.00  0.00    -0.244 OA
ENDROOT
BRANCH   1   7
ATOM      3  C   UNL     1       4.663  -1.639   1.006  0.00  0.00    +0.068 C 
ATOM      4  C   UNL     1       3.978  -0.408   0.472  0.00  0.00    +0.069 A 
ATOM      5  C   UNL     1       4.587   0.586  -0.362  0.00  0.00    +0.031 A 
ATOM      6  C   UNL     1       5.827   0.856  -0.960  0.00  0.00    +0.034 A 
ATOM      7  C   UNL     1       5.981   1.981  -1.716  0.00  0.00    +0.099 A 
ATOM      8  S   UNL     1       4.367   2.735  -1.629  0.00  0.00    -0.062 S 
ATOM      9  C   UNL     1       3.572   1.525  -0.604  0.00  0.00    +0.113 A 
ATOM     10  N   UNL     1       2.456   1.127   0.039  0.00  0.00    -0.225 N 
ATOM     11  N   UNL     1       2.741  -0.078   0.694  0.00  0.00    -0.170 NA
BRANCH  10  12
ATOM     12  C   UNL     1       1.225   1.797   0.046  0.00  0.00    +0.067 A 
ATOM     13  C   UNL     1       0.040   1.075   0.063  0.00  0.00    +0.030 A 
ATOM     14  C   UNL     1      -1.172   1.737   0.064  0.00  0.00    +0.040 A 
ATOM     15  C   UNL     1      -1.206   3.122   0.059  0.00  0.00    +0.124 A 
ATOM     16  C   UNL     1      -0.024   3.844   0.043  0.00  0.00    +0.040 A 
ATOM     17  C   UNL     1       1.189   3.186   0.037  0.00  0.00    +0.030 A 
ATOM     18  F   UNL     1      -2.392   3.768   0.066  0.00  0.00    -0.205 F 
ENDBRANCH  10  12
ENDBRANCH   1   7
BRANCH   1  19
ATOM     19  O   UNL     1       7.131   3.601  -3.127  0.00  0.00    -0.448 OA
BRANCH  19  20
ATOM     20  C   UNL     1       8.351   4.007  -3.803  0.00  0.00    +0.259 C 
ATOM     21  C   UNL     1       9.185   4.883  -2.867  0.00  0.00    +0.062 C 
BRANCH  20  22
ATOM     22  C   UNL     1       8.002   4.787  -5.044  0.00  0.00    +0.258 C 
ATOM     23  O   UNL     1       6.845   5.061  -5.283  0.00  0.00    -0.271 OA
ATOM     24  N   UNL     1       8.976   5.182  -5.888  0.00  0.00    -0.281 N 
ATOM     25  H   UNL     1       9.906   5.019  -5.665  0.00  0.00    +0.155 HD
BRANCH  24  26
ATOM     26  C   UNL     1       8.645   5.825  -7.085  0.00  0.00    +0.064 A 
ATOM     27  C   UNL     1       7.559   6.689  -7.135  0.00  0.00    +0.025 A 
ATOM     28  C   UNL     1       7.238   7.327  -8.317  0.00  0.00    +0.002 A 
ATOM     29  C   UNL     1       7.992   7.098  -9.454  0.00  0.00    +0.002 A 
ATOM     30  C   UNL     1       9.071   6.235  -9.409  0.00  0.00    +0.034 A 
ATOM     31  C   UNL     1       9.400   5.598  -8.229  0.00  0.00    +0.147 A 
BRANCH  31  32
ATOM     32  N   UNL     1      10.555   4.674  -8.182  0.00  0.00    +0.058 N 
ATOM     33  O   UNL     1      11.276   4.550  -9.156  0.00  0.00    -0.126 OA
ATOM     34  O   UNL     1      10.785   4.036  -7.170  0.00  0.00    -0.126 OA
ENDBRANCH  31  32
ENDBRANCH  24  26
ENDBRANCH  20  22
ENDBRANCH  19  20
ENDBRANCH   1  19
TORSDOF 7
