REMARK  Name = ZINC27693542
REMARK  14 active torsions:
REMARK  status: ('A' for Active; 'I' for Inactive)
REMARK    1  A    between atoms: C_1  and  C_2
REMARK    2  A    between atoms: C_2  and  C_3
REMARK    3  A    between atoms: C_2  and  N_4
REMARK    4  A    between atoms: N_4  and  C_5
REMARK    5  A    between atoms: N_4  and  C_12
REMARK    6  A    between atoms: C_5  and  C_6
REMARK    7  A    between atoms: C_12  and  C_13
REMARK    8  A    between atoms: C_13  and  C_15
REMARK    9  A    between atoms: C_13  and  O_34
REMARK   10  A    between atoms: C_15  and  N_16
REMARK   11  A    between atoms: C_24  and  C_25
REMARK   12  A    between atoms: C_25  and  C_26
REMARK   13  A    between atoms: C_29  and  O_32
REMARK   14  A    between atoms: O_32  and  C_33
REMARK                            x       y       z     vdW  Elec       q    Type
REMARK                         _______ _______ _______ _____ _____    ______ ____
ROOT
ATOM      1  N   UNL     1       1.561   4.036  -0.605  0.00  0.00    -0.325 N 
ATOM      2  C   UNL     1       0.811   5.187  -0.471  0.00  0.00    +0.069 A 
ATOM      3  C   UNL     1       1.110   6.503  -0.143  0.00  0.00    +0.028 A 
ATOM      4  C   UNL     1       0.101   7.441  -0.094  0.00  0.00    +0.002 A 
ATOM      5  C   UNL     1      -1.211   7.077  -0.366  0.00  0.00    +0.002 A 
ATOM      6  C   UNL     1      -1.522   5.789  -0.697  0.00  0.00    +0.030 A 
ATOM      7  C   UNL     1      -0.516   4.821  -0.751  0.00  0.00    +0.089 A 
ATOM      8  N   UNL     1      -0.508   3.493  -1.036  0.00  0.00    -0.232 NA
ATOM      9  C   UNL     1       0.707   3.035  -0.950  0.00  0.00    +0.115 A 
ENDROOT
BRANCH   1  10
ATOM     10  C   UNL     1       3.008   3.914  -0.411  0.00  0.00    +0.153 C 
BRANCH  10  11
ATOM     11  C   UNL     1       3.716   4.047  -1.761  0.00  0.00    +0.118 C 
BRANCH  11  12
ATOM     12  O   UNL     1       3.514   5.363  -2.278  0.00  0.00    -0.392 OA
ATOM     13  H   UNL     1       2.494   5.726  -2.476  0.00  0.00    +0.210 HD
ENDBRANCH  11  12
BRANCH  11  14
ATOM     14  C   UNL     1       5.215   3.796  -1.577  0.00  0.00    -0.045 C 
BRANCH  14  15
ATOM     15  N   UNL     1       5.869   3.756  -2.892  0.00  0.00    +0.386 N 
ATOM     16  H   UNL     1       5.214   3.201  -3.579  0.00  0.00    -0.081 HD
BRANCH  15  18
ATOM     17  C   UNL     1       7.995   3.628  -1.683  0.00  0.00    -0.014 C 
ATOM     18  C   UNL     1       7.153   3.045  -2.820  0.00  0.00    -0.074 C 
ATOM     19  C   UNL     1       6.899   1.560  -2.557  0.00  0.00    -0.014 C 
ENDBRANCH  15  18
BRANCH  15  20
ATOM     20  C   UNL     1       6.047   5.110  -3.433  0.00  0.00    -0.043 C 
BRANCH  20  21
ATOM     21  C   UNL     1       6.345   5.027  -4.908  0.00  0.00    -0.064 A 
ATOM     22  C   UNL     1       7.653   4.937  -5.344  0.00  0.00    +0.002 A 
ATOM     23  C   UNL     1       7.927   4.856  -6.697  0.00  0.00    +0.000 A 
ATOM     24  C   UNL     1       6.892   4.875  -7.613  0.00  0.00    +0.000 A 
ATOM     25  C   UNL     1       5.584   4.971  -7.177  0.00  0.00    +0.000 A 
ATOM     26  C   UNL     1       5.310   5.046  -5.824  0.00  0.00    +0.002 A 
ENDBRANCH  20  21
ENDBRANCH  15  20
ENDBRANCH  14  15
ENDBRANCH  11  14
ENDBRANCH  10  11
ENDBRANCH   1  10
BRANCH   9  27
ATOM     27  C   UNL     1       1.109   1.604  -1.197  0.00  0.00    +0.109 C 
BRANCH  27  28
ATOM     28  C   UNL     1       0.892   0.797   0.057  0.00  0.00    -0.040 A 
ATOM     29  C   UNL     1       1.889   0.724   1.012  0.00  0.00    +0.007 A 
ATOM     30  C   UNL     1       1.690  -0.010   2.165  0.00  0.00    +0.046 A 
ATOM     31  C   UNL     1       0.493  -0.683   2.360  0.00  0.00    +0.120 A 
ATOM     32  C   UNL     1      -0.504  -0.613   1.398  0.00  0.00    +0.046 A 
ATOM     33  C   UNL     1      -0.302   0.127   0.249  0.00  0.00    +0.007 A 
BRANCH  31  34
ATOM     34  O   UNL     1       0.297  -1.410   3.492  0.00  0.00    -0.495 OA
ATOM     35  C   UNL     1       1.367  -1.437   4.438  0.00  0.00    +0.277 C 
ENDBRANCH  31  34
ENDBRANCH  27  28
ENDBRANCH   9  27
TORSDOF 11
