REMARK  Name = ZINC63596514
REMARK  6 active torsions:
REMARK  status: ('A' for Active; 'I' for Inactive)
REMARK    1  A    between atoms: C_2  and  C_3
REMARK    2  A    between atoms: C_3  and  N_4
REMARK    3  A    between atoms: C_5  and  C_21
REMARK    4  A    between atoms: C_9  and  S_10
REMARK    5  A    between atoms: S_10  and  C_11
REMARK    6  A    between atoms: C_11  and  C_12
REMARK                            x       y       z     vdW  Elec       q    Type
REMARK                         _______ _______ _______ _____ _____    ______ ____
ROOT
ATOM      1  N   UNL     1      -1.383  -1.598  -1.181  0.00  0.00    -0.281 N 
ATOM      2  C   UNL     1      -1.846  -1.200  -2.521  0.00  0.00    +0.210 C 
ATOM      3  N   UNL     1      -1.695  -2.424  -3.326  0.00  0.00    -0.242 N 
ATOM      4  N   UNL     1      -1.185  -3.400  -2.461  0.00  0.00    -0.162 NA
ATOM      5  C   UNL     1      -1.008  -2.931  -1.272  0.00  0.00    +0.176 C 
ATOM      6  H   UNL     1      -1.907  -2.533  -4.267  0.00  0.00    +0.170 HD
ENDROOT
BRANCH   2   7
ATOM      7  C   UNL     1      -0.985  -0.092  -3.071  0.00  0.00    +0.010 A 
ATOM      8  C   UNL     1       0.348  -0.324  -3.374  0.00  0.00    +0.010 A 
ATOM      9  C   UNL     1       1.102   0.725  -3.877  0.00  0.00    +0.020 A 
ATOM     10  C   UNL     1       0.504   1.958  -4.060  0.00  0.00    +0.111 A 
ATOM     11  N   UNL     1      -0.767   2.142  -3.760  0.00  0.00    -0.263 NA
ATOM     12  C   UNL     1      -1.516   1.166  -3.285  0.00  0.00    +0.117 A 
ENDBRANCH   2   7
BRANCH   1  13
ATOM     13  C   UNL     1      -1.322  -0.751   0.012  0.00  0.00    +0.136 C 
BRANCH  13  15
ATOM     14  C   UNL     1       0.222   1.126   0.245  0.00  0.00    +0.005 C 
ATOM     15  C   UNL     1       0.062  -0.171   0.147  0.00  0.00    -0.016 C 
ENDBRANCH  13  15
ENDBRANCH   1  13
BRANCH   5  16
ATOM     16  S   UNL     1      -0.372  -3.871   0.075  0.00  0.00    -0.085 S 
BRANCH  16  17
ATOM     17  C   UNL     1      -0.070  -5.511  -0.638  0.00  0.00    +0.124 C 
BRANCH  17  18
ATOM     18  C   UNL     1       0.492  -6.441   0.440  0.00  0.00    +0.184 C 
ATOM     19  N   UNL     1      -0.433  -6.508   1.579  0.00  0.00    -0.363 N 
ATOM     20  C   UNL     1       0.204  -6.068   2.625  0.00  0.00    +0.060 A 
ATOM     21  C   UNL     1      -0.184  -5.897   4.032  0.00  0.00    +0.027 A 
ATOM     22  C   UNL     1       0.710  -5.405   4.913  0.00  0.00    +0.002 A 
ATOM     23  C   UNL     1       2.017  -5.043   4.545  0.00  0.00    +0.002 A 
ATOM     24  C   UNL     1       2.475  -5.159   3.282  0.00  0.00    +0.027 A 
ATOM     25  C   UNL     1       1.588  -5.684   2.235  0.00  0.00    +0.060 A 
ATOM     26  N   UNL     1       1.754  -5.902   0.962  0.00  0.00    -0.363 N 
ATOM     27  H   UNL     1       2.563  -5.739   0.452  0.00  0.00    +0.162 HD
ATOM     28  H   UNL     1      -1.350  -6.823   1.555  0.00  0.00    +0.162 HD
ENDBRANCH  17  18
ENDBRANCH  16  17
ENDBRANCH   5  16
TORSDOF 6
