REMARK  Name = ZINC01077663
REMARK  8 active torsions:
REMARK  status: ('A' for Active; 'I' for Inactive)
REMARK    1  A    between atoms: C_1  and  C_2
REMARK    2  A    between atoms: C_5  and  C_8
REMARK    3  A    between atoms: C_13  and  C_23
REMARK    4  A    between atoms: C_26  and  O_31
REMARK    5  A    between atoms: C_27  and  O_29
REMARK    6  A    between atoms: O_29  and  C_30
REMARK    7  A    between atoms: O_31  and  C_32
REMARK    8  A    between atoms: C_32  and  C_34
REMARK                            x       y       z     vdW  Elec       q    Type
REMARK                         _______ _______ _______ _____ _____    ______ ____
ROOT
ATOM      1  C   UNL     1       6.161   5.691  -3.774  0.00  0.00    +0.032 C 
ATOM      2  C   UNL     1       6.496   4.210  -3.610  0.00  0.00    +0.059 C 
ATOM      3  C   UNL     1       6.277   3.787  -2.166  0.00  0.00    +0.017 C 
ATOM      4  C   UNL     1       5.302   4.351  -1.435  0.00  0.00    +0.036 C 
ATOM      5  C   UNL     1       4.950   4.003  -0.008  0.00  0.00    +0.136 C 
ATOM      6  N   UNL     1       5.922   3.164   0.660  0.00  0.00    -0.331 N 
ATOM      7  C   UNL     1       6.170   1.863   0.226  0.00  0.00    +0.049 A 
ATOM      8  C   UNL     1       5.868   0.766   1.018  0.00  0.00    +0.025 A 
ATOM      9  C   UNL     1       6.089  -0.509   0.526  0.00  0.00    +0.002 A 
ATOM     10  C   UNL     1       6.605  -0.690  -0.744  0.00  0.00    +0.002 A 
ATOM     11  C   UNL     1       6.924   0.405  -1.531  0.00  0.00    +0.025 A 
ATOM     12  C   UNL     1       6.722   1.680  -1.032  0.00  0.00    +0.052 A 
ATOM     13  N   UNL     1       7.118   2.818  -1.726  0.00  0.00    -0.316 N 
ATOM     14  C   UNL     1       4.496   5.374  -1.987  0.00  0.00    +0.163 C 
ATOM     15  O   UNL     1       3.614   5.857  -1.305  0.00  0.00    -0.292 OA
ATOM     16  C   UNL     1       4.691   5.884  -3.384  0.00  0.00    +0.088 C 
ATOM     17  H   UNL     1       6.410   3.513   1.423  0.00  0.00    +0.147 HD
ATOM     18  H   UNL     1       8.065   2.928  -1.907  0.00  0.00    +0.152 HD
ENDROOT
BRANCH   1  23
ATOM     19  C   UNL     1       6.955   7.281  -9.273  0.00  0.00    +0.044 C 
ATOM     20  C   UNL     1       6.748   6.866  -7.839  0.00  0.00    -0.050 A 
ATOM     21  C   UNL     1       7.468   7.480  -6.831  0.00  0.00    +0.003 A 
ATOM     22  C   UNL     1       7.278   7.100  -5.516  0.00  0.00    +0.004 A 
ATOM     23  C   UNL     1       6.368   6.106  -5.208  0.00  0.00    -0.043 A 
ATOM     24  C   UNL     1       5.652   5.488  -6.216  0.00  0.00    +0.004 A 
ATOM     25  C   UNL     1       5.839   5.871  -7.532  0.00  0.00    +0.003 A 
ENDBRANCH   1  23
BRANCH   5  26
ATOM     26  C   UNL     1       3.621   3.293  -0.003  0.00  0.00    -0.019 A 
ATOM     27  C   UNL     1       3.493   2.066  -0.628  0.00  0.00    +0.009 A 
ATOM     28  C   UNL     1       2.276   1.411  -0.626  0.00  0.00    +0.050 A 
ATOM     29  C   UNL     1       1.181   1.983   0.003  0.00  0.00    +0.173 A 
ATOM     30  C   UNL     1       1.310   3.220   0.627  0.00  0.00    +0.163 A 
ATOM     31  C   UNL     1       2.534   3.869   0.627  0.00  0.00    +0.055 A 
BRANCH  30  32
ATOM     32  O   UNL     1       0.237   3.788   1.241  0.00  0.00    -0.491 OA
ATOM     33  C   UNL     1       0.443   5.059   1.861  0.00  0.00    +0.277 C 
ENDBRANCH  30  32
BRANCH  29  34
ATOM     34  O   UNL     1      -0.017   1.339   0.005  0.00  0.00    -0.422 OA
BRANCH  34  35
ATOM     35  C   UNL     1      -0.896   1.685  -0.949  0.00  0.00    +0.309 C 
ATOM     36  O   UNL     1      -0.638   2.587  -1.710  0.00  0.00    -0.251 OA
ATOM     37  C   UNL     1      -2.204   0.947  -1.071  0.00  0.00    +0.136 C 
ENDBRANCH  34  35
ENDBRANCH  29  34
ENDBRANCH   5  26
TORSDOF 5
