REMARK  Name = ZINC09144850
REMARK  5 active torsions:
REMARK  status: ('A' for Active; 'I' for Inactive)
REMARK    1  A    between atoms: C_4  and  C_7
REMARK    2  A    between atoms: C_10  and  C_36
REMARK    3  A    between atoms: N_12  and  C_13
REMARK    4  A    between atoms: C_16  and  C_19
REMARK    5  A    between atoms: N_20  and  N_21
REMARK                            x       y       z     vdW  Elec       q    Type
REMARK                         _______ _______ _______ _____ _____    ______ ____
ROOT
ATOM      1  C   UNL     1       6.895   5.863  -0.441  0.00  0.00    +0.052 A 
ATOM      2  C   UNL     1       5.646   6.478  -0.427  0.00  0.00    +0.025 A 
ATOM      3  C   UNL     1       4.504   5.717  -0.318  0.00  0.00    +0.011 A 
ATOM      4  C   UNL     1       4.599   4.325  -0.222  0.00  0.00    -0.005 A 
ATOM      5  C   UNL     1       5.856   3.711  -0.232  0.00  0.00    +0.011 A 
ATOM      6  C   UNL     1       6.994   4.477  -0.346  0.00  0.00    +0.025 A 
ENDROOT
BRANCH   1  11
ATOM      7  C   UNL     1       9.425   6.117  -0.578  0.00  0.00    +0.134 C 
ATOM      8  C   UNL     1      10.287   7.389  -0.709  0.00  0.00    +0.087 C 
ATOM      9  C   UNL     1       9.276   8.512  -0.743  0.00  0.00    +0.069 C 
ATOM     10  N   UNL     1       8.086   8.024  -0.658  0.00  0.00    -0.183 NA
ATOM     11  N   UNL     1       8.048   6.635  -0.550  0.00  0.00    -0.216 N 
BRANCH   7  15
ATOM     12  C   UNL     1      10.330   4.058   3.054  0.00  0.00    +0.000 A 
ATOM     13  C   UNL     1      10.800   3.572   1.848  0.00  0.00    +0.000 A 
ATOM     14  C   UNL     1      10.507   4.238   0.673  0.00  0.00    +0.005 A 
ATOM     15  C   UNL     1       9.745   5.391   0.703  0.00  0.00    -0.025 A 
ATOM     16  C   UNL     1       9.279   5.880   1.910  0.00  0.00    +0.005 A 
ATOM     17  C   UNL     1       9.568   5.211   3.084  0.00  0.00    +0.000 A 
ENDBRANCH   7  15
BRANCH   9  18
ATOM     18  C   UNL     1       9.600   9.946  -0.860  0.00  0.00    -0.002 A 
ATOM     19  C   UNL     1      10.932  10.359  -0.946  0.00  0.00    +0.010 A 
ATOM     20  C   UNL     1      11.228  11.702  -1.061  0.00  0.00    +0.001 A 
ATOM     21  C   UNL     1      10.210  12.639  -1.080  0.00  0.00    +0.000 A 
ATOM     22  C   UNL     1       8.889  12.237  -0.991  0.00  0.00    +0.001 A 
ATOM     23  C   UNL     1       8.578  10.898  -0.881  0.00  0.00    +0.010 A 
ENDBRANCH   9  18
ENDBRANCH   1  11
BRANCH   4  24
ATOM     24  C   UNL     1       3.380   3.508  -0.105  0.00  0.00    +0.141 C 
ATOM     25  N   UNL     1       3.470   2.215  -0.016  0.00  0.00    -0.170 NA
BRANCH  25  26
ATOM     26  N   UNL     1       2.309   1.431  -0.011  0.00  0.00    -0.184 N 
ATOM     27  C   UNL     1       1.090   2.030   0.007  0.00  0.00    +0.227 A 
ATOM     28  N   UNL     1      -0.016   1.340   0.013  0.00  0.00    -0.233 NA
ATOM     29  C   UNL     1       0.002  -0.004  -0.001  0.00  0.00    +0.103 A 
ATOM     30  C   UNL     1      -1.045  -1.034   0.001  0.00  0.00    +0.026 A 
ATOM     31  C   UNL     1      -2.440  -0.988   0.018  0.00  0.00    +0.012 A 
ATOM     32  C   UNL     1      -3.160  -2.150   0.013  0.00  0.00    +0.001 A 
ATOM     33  C   UNL     1      -2.513  -3.378  -0.008  0.00  0.00    +0.002 A 
ATOM     34  C   UNL     1      -1.138  -3.446  -0.025  0.00  0.00    +0.026 A 
ATOM     35  C   UNL     1      -0.384  -2.275  -0.021  0.00  0.00    +0.049 A 
ATOM     36  N   UNL     1       0.974  -2.040  -0.034  0.00  0.00    -0.349 N 
ATOM     37  H   UNL     1       1.657  -2.728  -0.049  0.00  0.00    +0.166 HD
ATOM     38  C   UNL     1       1.221  -0.680  -0.022  0.00  0.00    +0.133 A 
ATOM     39  C   UNL     1       2.409   0.084  -0.027  0.00  0.00    +0.298 A 
ATOM     40  O   UNL     1       3.501  -0.460  -0.046  0.00  0.00    -0.263 OA
ENDBRANCH  25  26
ENDBRANCH   4  24
TORSDOF 5
