REMARK  Name = ZINC40475423
REMARK  3 active torsions:
REMARK  status: ('A' for Active; 'I' for Inactive)
REMARK    1  A    between atoms: C_4  and  O_32
REMARK    2  A    between atoms: C_5  and  C_7
REMARK    3  A    between atoms: N_22  and  C_25
REMARK                            x       y       z     vdW  Elec       q    Type
REMARK                         _______ _______ _______ _____ _____    ______ ____
ROOT
ATOM      1  C   UNL     1       1.227  -2.187  -0.022  0.00  0.00    +0.075 C 
ATOM      2  C   UNL     1       0.472  -2.655  -1.209  0.00  0.00    +0.032 A 
ATOM      3  C   UNL     1      -0.478  -3.626  -1.286  0.00  0.00    +0.110 A 
ATOM      4  N   UNL     1      -0.948  -3.852  -2.516  0.00  0.00    -0.225 NA
ATOM      5  C   UNL     1      -0.539  -3.158  -3.556  0.00  0.00    +0.147 A 
ATOM      6  S   UNL     1      -1.043  -3.306  -5.237  0.00  0.00    -0.023 SA
ATOM      7  S   UNL     1       0.584  -2.094  -2.890  0.00  0.00    -0.063 S 
ATOM      8  S   UNL     1      -1.033  -4.480   0.165  0.00  0.00    -0.091 S 
ATOM      9  C   UNL     1       0.258  -4.124   1.399  0.00  0.00    +0.152 C 
ATOM     10  C   UNL     1       0.716  -2.666   1.284  0.00  0.00    +0.110 C 
ATOM     11  C   UNL     1      -0.373  -1.901   1.969  0.00  0.00    +0.232 C 
ATOM     12  O   UNL     1      -0.701  -0.752   1.761  0.00  0.00    -0.274 OA
ATOM     13  N   UNL     1      -0.917  -2.755   2.869  0.00  0.00    -0.209 N 
ATOM     14  C   UNL     1      -0.481  -4.027   2.745  0.00  0.00    +0.240 C 
ATOM     15  O   UNL     1      -0.648  -4.926   3.541  0.00  0.00    -0.274 OA
ENDROOT
BRANCH  13  16
ATOM     16  C   UNL     1      -1.841  -2.352   3.844  0.00  0.00    +0.044 A 
ATOM     17  C   UNL     1      -2.243  -1.025   3.916  0.00  0.00    +0.025 A 
ATOM     18  C   UNL     1      -3.152  -0.632   4.877  0.00  0.00    +0.017 A 
ATOM     19  C   UNL     1      -3.664  -1.559   5.768  0.00  0.00    +0.018 A 
ATOM     20  C   UNL     1      -3.265  -2.882   5.699  0.00  0.00    +0.017 A 
ATOM     21  C   UNL     1      -2.360  -3.281   4.735  0.00  0.00    +0.025 A 
ATOM     22 BR   UNL     1      -4.909  -1.016   7.084  0.00  0.00    -0.050 Br
ENDBRANCH  13  16
BRANCH   1  27
ATOM     23  C   UNL     1       0.058   1.382  -0.418  0.00  0.00    +0.001 A 
ATOM     24  C   UNL     1       1.170   2.088   0.002  0.00  0.00    +0.004 A 
ATOM     25  C   UNL     1       2.303   1.414   0.414  0.00  0.00    +0.046 A 
ATOM     26  C   UNL     1       2.324   0.027   0.408  0.00  0.00    +0.121 A 
ATOM     27  C   UNL     1       1.207  -0.680  -0.013  0.00  0.00    +0.003 A 
ATOM     28  C   UNL     1       0.077  -0.001  -0.425  0.00  0.00    +0.008 A 
BRANCH  26  29
ATOM     29  O   UNL     1       3.438  -0.639   0.813  0.00  0.00    -0.506 OA
ATOM     30  H   UNL     1       3.453  -0.840   1.759  0.00  0.00    +0.292 HD
ENDBRANCH  26  29
ENDBRANCH   1  27
TORSDOF 3
