REMARK  Name = ZINC36202997
REMARK  10 active torsions:
REMARK  status: ('A' for Active; 'I' for Inactive)
REMARK    1  A    between atoms: C_4  and  C_7
REMARK    2  A    between atoms: C_7  and  C_8
REMARK    3  A    between atoms: C_7  and  C_14
REMARK    4  A    between atoms: C_7  and  O_36
REMARK    5  A    between atoms: C_17  and  C_19
REMARK    6  A    between atoms: C_19  and  N_20
REMARK    7  A    between atoms: N_20  and  C_21
REMARK    8  A    between atoms: N_20  and  C_29
REMARK    9  A    between atoms: C_21  and  C_22
REMARK   10  A    between atoms: C_29  and  C_30
REMARK                            x       y       z     vdW  Elec       q    Type
REMARK                         _______ _______ _______ _____ _____    ______ ____
ROOT
ATOM      1  C   UNL     1       3.769  -0.435  -1.589  0.00  0.00    +0.146 A 
ATOM      2  C   UNL     1       5.112  -0.387  -1.551  0.00  0.00    +0.048 A 
ATOM      3  C   UNL     1       5.581  -1.126  -2.661  0.00  0.00    +0.043 A 
ATOM      4  C   UNL     1       4.495  -1.581  -3.312  0.00  0.00    +0.089 A 
ATOM      5  O   UNL     1       3.401  -1.165  -2.655  0.00  0.00    -0.463 OA
ENDROOT
BRANCH   1   6
ATOM      6  C   UNL     1       2.835   0.215  -0.601  0.00  0.00    +0.174 C 
BRANCH   6  10
ATOM      7  C   UNL     1      -0.821   1.244  -2.557  0.00  0.00    +0.000 A 
ATOM      8  C   UNL     1      -0.501  -0.084  -2.343  0.00  0.00    +0.000 A 
ATOM      9  C   UNL     1       0.682  -0.417  -1.710  0.00  0.00    +0.007 A 
ATOM     10  C   UNL     1       1.546   0.578  -1.292  0.00  0.00    -0.004 A 
ATOM     11  C   UNL     1       1.227   1.906  -1.507  0.00  0.00    +0.007 A 
ATOM     12  C   UNL     1       0.043   2.239  -2.138  0.00  0.00    +0.000 A 
ENDBRANCH   6  10
BRANCH   6  13
ATOM     13  C   UNL     1       2.548  -0.745   0.525  0.00  0.00    -0.004 A 
ATOM     14  C   UNL     1       2.384  -2.091   0.261  0.00  0.00    +0.007 A 
ATOM     15  C   UNL     1       2.121  -2.972   1.293  0.00  0.00    +0.000 A 
ATOM     16  C   UNL     1       2.023  -2.505   2.591  0.00  0.00    +0.000 A 
ATOM     17  C   UNL     1       2.189  -1.159   2.856  0.00  0.00    +0.000 A 
ATOM     18  C   UNL     1       2.456  -0.279   1.823  0.00  0.00    +0.007 A 
ENDBRANCH   6  13
BRANCH   6  19
ATOM     19  O   UNL     1       3.443   1.397  -0.076  0.00  0.00    -0.372 OA
ATOM     20  H   UNL     1       4.279   1.238   0.383  0.00  0.00    +0.212 HD
ENDBRANCH   6  19
ENDBRANCH   1   6
BRANCH   4  21
ATOM     21  C   UNL     1       4.506  -2.422  -4.563  0.00  0.00    -0.003 C 
BRANCH  21  22
ATOM     22  N   UNL     1       4.529  -3.845  -4.197  0.00  0.00    +0.389 N 
ATOM     23  H   UNL     1       5.323  -4.026  -3.602  0.00  0.00    -0.081 HD
BRANCH  22  24
ATOM     24  C   UNL     1       4.631  -4.662  -5.413  0.00  0.00    -0.042 C 
BRANCH  24  25
ATOM     25  C   UNL     1       4.754  -6.115  -5.033  0.00  0.00    -0.061 A 
ATOM     26  C   UNL     1       5.990  -6.641  -4.707  0.00  0.00    +0.002 A 
ATOM     27  C   UNL     1       6.104  -7.974  -4.358  0.00  0.00    +0.003 A 
ATOM     28  C   UNL     1       4.983  -8.782  -4.336  0.00  0.00    +0.038 A 
ATOM     29  C   UNL     1       3.745  -8.256  -4.663  0.00  0.00    +0.124 A 
ATOM     30  C   UNL     1       3.631  -6.919  -5.006  0.00  0.00    +0.040 A 
ATOM     31  F   UNL     1       2.648  -9.045  -4.643  0.00  0.00    -0.205 F 
ENDBRANCH  24  25
ENDBRANCH  22  24
BRANCH  22  32
ATOM     32  C   UNL     1       3.292  -4.186  -3.480  0.00  0.00    -0.046 C 
BRANCH  32  33
ATOM     33  C   UNL     1       2.100  -4.056  -4.430  0.00  0.00    +0.102 C 
ATOM     34  C   UNL     1       0.795  -4.494  -3.717  0.00  0.00    +0.032 C 
ATOM     35  C   UNL     1      -0.265  -3.710  -4.538  0.00  0.00    +0.030 C 
ATOM     36  C   UNL     1       0.488  -2.410  -4.891  0.00  0.00    +0.160 C 
ATOM     37  O   UNL     1       1.893  -2.680  -4.785  0.00  0.00    -0.378 OA
ENDBRANCH  32  33
ENDBRANCH  22  32
ENDBRANCH  21  22
ENDBRANCH   4  21
TORSDOF 10
