REMARK  Name = ZINC33807214
REMARK  8 active torsions:
REMARK  status: ('A' for Active; 'I' for Inactive)
REMARK    1  A    between atoms: C_1  and  C_2
REMARK    2  A    between atoms: C_5  and  C_8
REMARK    3  A    between atoms: C_8  and  N_9
REMARK    4  A    between atoms: C_13  and  C_14
REMARK    5  A    between atoms: C_15  and  N_26
REMARK    6  A    between atoms: C_20  and  C_25
REMARK    7  A    between atoms: N_26  and  C_27
REMARK    8  A    between atoms: C_30  and  C_33
REMARK                            x       y       z     vdW  Elec       q    Type
REMARK                         _______ _______ _______ _____ _____    ______ ____
ROOT
ATOM      1  C   UNL     1      -2.029   3.913  -2.455  0.00  0.00    +0.081 A 
ATOM      2  C   UNL     1      -1.463   3.605  -1.195  0.00  0.00    +0.134 A 
ATOM      3  N   UNL     1      -1.420   4.536  -0.253  0.00  0.00    -0.214 NA
ATOM      4  C   UNL     1      -1.890   5.766  -0.463  0.00  0.00    +0.142 A 
ATOM      5  C   UNL     1      -1.811   6.714   0.573  0.00  0.00    +0.047 A 
ATOM      6  C   UNL     1      -2.293   7.973   0.369  0.00  0.00    +0.008 A 
ATOM      7  C   UNL     1      -2.859   8.305  -0.869  0.00  0.00    -0.034 A 
ATOM      8  C   UNL     1      -2.926   7.381  -1.854  0.00  0.00    +0.099 A 
ATOM      9  N   UNL     1      -2.447   6.120  -1.660  0.00  0.00    -0.267 N 
ATOM     10  C   UNL     1      -2.529   5.221  -2.665  0.00  0.00    +0.267 A 
ATOM     11  O   UNL     1      -3.025   5.530  -3.735  0.00  0.00    -0.267 OA
ATOM     12  C   UNL     1      -3.394   9.695  -1.104  0.00  0.00    +0.045 C 
ENDROOT
BRANCH   1  17
ATOM     13  N   UNL     1      -5.641   2.171  -3.988  0.00  0.00    -0.251 N 
ATOM     14  C   UNL     1      -4.608   2.738  -3.389  0.00  0.00    +0.259 C 
ATOM     15  O   UNL     1      -4.765   3.466  -2.424  0.00  0.00    -0.269 OA
ATOM     16  C   UNL     1      -3.307   2.479  -3.906  0.00  0.00    +0.077 C 
ATOM     17  C   UNL     1      -2.095   2.939  -3.478  0.00  0.00    +0.037 C 
ATOM     18  S   UNL     1      -3.691   1.381  -5.263  0.00  0.00    -0.061 S 
ATOM     19  C   UNL     1      -5.465   1.358  -5.053  0.00  0.00    +0.121 C 
ATOM     20  S   UNL     1      -6.644   0.520  -5.970  0.00  0.00    -0.027 S 
BRANCH  13  21
ATOM     21  C   UNL     1      -6.994   2.421  -3.485  0.00  0.00    +0.150 C 
BRANCH  21  26
ATOM     22  C   UNL     1      -8.327  -1.532   0.513  0.00  0.00    +0.044 C 
ATOM     23  C   UNL     1      -7.979  -0.501  -0.530  0.00  0.00    -0.050 A 
ATOM     24  C   UNL     1      -7.371   0.683  -0.155  0.00  0.00    +0.003 A 
ATOM     25  C   UNL     1      -7.052   1.629  -1.112  0.00  0.00    +0.005 A 
ATOM     26  C   UNL     1      -7.341   1.390  -2.443  0.00  0.00    -0.030 A 
ATOM     27  C   UNL     1      -7.954   0.209  -2.816  0.00  0.00    +0.005 A 
ATOM     28  C   UNL     1      -8.268  -0.739  -1.860  0.00  0.00    +0.003 A 
ENDBRANCH  21  26
ENDBRANCH  13  21
ENDBRANCH   1  17
BRANCH   2  29
ATOM     29  N   UNL     1      -0.966   2.344  -0.948  0.00  0.00    -0.326 N 
ATOM     30  H   UNL     1      -1.008   1.573  -1.732  0.00  0.00    +0.148 HD
BRANCH  29  31
ATOM     31  C   UNL     1      -0.381   2.031   0.358  0.00  0.00    +0.072 C 
ATOM     32  C   UNL     1       1.090   2.454   0.373  0.00  0.00    +0.022 C 
ATOM     33  C   UNL     1       1.701   2.127   1.737  0.00  0.00    +0.005 C 
ATOM     34  C   UNL     1       1.601   0.622   1.992  0.00  0.00    -0.014 C 
ATOM     35  C   UNL     1       0.131   0.198   1.977  0.00  0.00    +0.005 C 
ATOM     36  C   UNL     1      -0.480   0.526   0.613  0.00  0.00    +0.022 C 
ATOM     37  C   UNL     1       2.212   0.294   3.356  0.00  0.00    +0.007 C 
ENDBRANCH  29  31
ENDBRANCH   2  29
TORSDOF 5
