REMARK  Name = ZINC08920804
REMARK  9 active torsions:
REMARK  status: ('A' for Active; 'I' for Inactive)
REMARK    1  A    between atoms: C_1  and  C_2
REMARK    2  A    between atoms: C_2  and  C_3
REMARK    3  A    between atoms: C_3  and  C_4
REMARK    4  A    between atoms: C_3  and  C_5
REMARK    5  A    between atoms: C_3  and  C_6
REMARK    6  A    between atoms: C_15  and  O_35
REMARK    7  A    between atoms: C_17  and  C_20
REMARK    8  A    between atoms: C_23  and  C_25
REMARK    9  A    between atoms: C_28  and  N_32
REMARK                            x       y       z     vdW  Elec       q    Type
REMARK                         _______ _______ _______ _____ _____    ______ ____
ROOT
ATOM      1  C   UNL     1      -0.726   1.578   1.271  0.00  0.00    -0.000 C 
ATOM      2  C   UNL     1      -0.013   1.086   0.008  0.00  0.00    +0.009 C 
ATOM      3  C   UNL     1      -0.749   1.591  -1.234  0.00  0.00    +0.037 C 
ATOM      4  C   UNL     1      -2.222   1.218  -1.118  0.00  0.00    -0.023 A 
ATOM      5  C   UNL     1      -2.762   0.890   0.079  0.00  0.00    -0.004 A 
ATOM      6  S   UNL     1      -4.465   0.537  -0.270  0.00  0.00    -0.078 S 
ATOM      7  C   UNL     1      -4.455   0.819  -1.957  0.00  0.00    +0.080 A 
ATOM      8  C   UNL     1      -3.135   1.188  -2.247  0.00  0.00    +0.068 A 
ATOM      9  C   UNL     1      -2.817   1.514  -3.661  0.00  0.00    +0.220 C 
ATOM     10  N   UNL     1      -3.702   1.204  -4.569  0.00  0.00    -0.220 NA
ATOM     11  C   UNL     1      -4.952   0.504  -4.303  0.00  0.00    +0.260 C 
ATOM     12  N   UNL     1      -5.425   0.738  -2.926  0.00  0.00    -0.311 N 
ATOM     13  C   UNL     1      -2.064   0.840   1.402  0.00  0.00    +0.046 C 
ATOM     14  H   UNL     1      -6.368   0.830  -2.717  0.00  0.00    +0.149 HD
ENDROOT
BRANCH  11  15
ATOM     15  C   UNL     1      -4.740  -0.975  -4.506  0.00  0.00    +0.148 A 
ATOM     16  C   UNL     1      -3.840  -1.532  -5.338  0.00  0.00    +0.049 A 
ATOM     17  C   UNL     1      -3.974  -2.930  -5.216  0.00  0.00    +0.050 A 
ATOM     18  C   UNL     1      -4.966  -3.150  -4.312  0.00  0.00    +0.137 A 
ATOM     19  O   UNL     1      -5.421  -1.955  -3.890  0.00  0.00    -0.456 OA
BRANCH  18  20
ATOM     20  C   UNL     1      -5.460  -4.471  -3.870  0.00  0.00    +0.036 A 
ATOM     21  C   UNL     1      -5.582  -4.755  -2.509  0.00  0.00    +0.015 A 
ATOM     22  C   UNL     1      -6.043  -5.990  -2.103  0.00  0.00    +0.033 A 
ATOM     23  C   UNL     1      -6.384  -6.948  -3.042  0.00  0.00    +0.128 A 
ATOM     24  C   UNL     1      -6.266  -6.674  -4.393  0.00  0.00    +0.053 A 
ATOM     25  C   UNL     1      -5.811  -5.440  -4.813  0.00  0.00    +0.054 A 
ATOM     26 CL   UNL     1      -5.670  -5.095  -6.509  0.00  0.00    -0.083 Cl
BRANCH  23  27
ATOM     27  N   UNL     1      -6.878  -8.271  -2.599  0.00  0.00    +0.056 N 
ATOM     28  O   UNL     1      -6.983  -8.515  -1.410  0.00  0.00    -0.126 OA
ATOM     29  O   UNL     1      -7.179  -9.116  -3.423  0.00  0.00    -0.126 OA
ENDBRANCH  23  27
ENDBRANCH  18  20
ENDBRANCH  11  15
BRANCH   1  30
ATOM     30  C   UNL     1       0.141   1.285   2.497  0.00  0.00    -0.032 C 
ATOM     31  C   UNL     1       0.381  -0.223   2.603  0.00  0.00    +0.011 C 
ATOM     32  C   UNL     1       1.483   2.006   2.357  0.00  0.00    +0.011 C 
BRANCH  30  34
ATOM     33  C   UNL     1       0.292   1.484   4.983  0.00  0.00    +0.004 C 
ATOM     34  C   UNL     1      -0.574   1.777   3.757  0.00  0.00    +0.003 C 
ENDBRANCH  30  34
ENDBRANCH   1  30
BRANCH   9  35
ATOM     35  O   UNL     1      -1.649   2.111  -3.996  0.00  0.00    -0.492 OA
ATOM     36  H   UNL     1      -1.550   2.276  -4.944  0.00  0.00    +0.294 HD
ENDBRANCH   9  35
TORSDOF 6
