REMARK  Name = ZINC12434311
REMARK  4 active torsions:
REMARK  status: ('A' for Active; 'I' for Inactive)
REMARK    1  A    between atoms: C_8  and  C_10
REMARK    2  A    between atoms: C_11  and  C_16
REMARK    3  A    between atoms: C_16  and  N_43
REMARK    4  A    between atoms: C_17  and  N_43
REMARK                            x       y       z     vdW  Elec       q    Type
REMARK                         _______ _______ _______ _____ _____    ______ ____
ROOT
ATOM      1  C   UNL     1       4.761   2.457  -0.030  0.00  0.00    +0.129 A 
ATOM      2  C   UNL     1       5.570   1.499   0.616  0.00  0.00    -0.016 A 
ATOM      3  C   UNL     1       6.860   1.806   0.358  0.00  0.00    +0.107 A 
ATOM      4  N   UNL     1       6.880   2.916  -0.411  0.00  0.00    -0.284 N 
ATOM      5  H   UNL     1       7.698   3.377  -0.754  0.00  0.00    +0.188 HD
ATOM      6  N   UNL     1       5.556   3.310  -0.644  0.00  0.00    -0.171 NA
ENDROOT
BRANCH   1  14
ATOM      7  C   UNL     1      -1.249   3.138   0.030  0.00  0.00    +0.001 A 
ATOM      8  C   UNL     1      -1.215   1.750   0.017  0.00  0.00    +0.004 A 
ATOM      9  C   UNL     1      -0.013   1.076   0.008  0.00  0.00    +0.047 A 
ATOM     10  C   UNL     1       1.180   1.788   0.000  0.00  0.00    +0.136 A 
ATOM     11  C   UNL     1       1.139   3.194   0.008  0.00  0.00    +0.021 A 
ATOM     12  C   UNL     1      -0.088   3.859   0.023  0.00  0.00    +0.011 A 
ATOM     13  C   UNL     1       2.538   3.630  -0.003  0.00  0.00    +0.060 A 
ATOM     14  C   UNL     1       3.283   2.500  -0.016  0.00  0.00    +0.156 A 
ATOM     15  O   UNL     1       2.477   1.420  -0.014  0.00  0.00    -0.453 OA
ENDBRANCH   1  14
BRANCH   2  16
ATOM     16  C   UNL     1       5.082   0.338   1.443  0.00  0.00    -0.042 C 
BRANCH  16  17
ATOM     17  N   UNL     1       4.663  -0.754   0.544  0.00  0.00    +0.386 N 
ATOM     18  H   UNL     1       5.463  -1.046  -0.029  0.00  0.00    -0.085 HD
ATOM     19  H   UNL     1       3.908  -0.419  -0.066  0.00  0.00    -0.085 HD
BRANCH  17  20
ATOM     20  C   UNL     1       4.180  -1.906   1.329  0.00  0.00    -0.040 C 
ATOM     21  C   UNL     1       4.303  -3.200   0.497  0.00  0.00    -0.007 C 
ATOM     22  C   UNL     1       2.913  -3.294  -0.173  0.00  0.00    +0.034 C 
ATOM     23  C   UNL     1       1.974  -2.558   0.758  0.00  0.00    -0.046 A 
ATOM     24  C   UNL     1       2.702  -1.760   1.621  0.00  0.00    -0.058 A 
ATOM     25  C   UNL     1       2.046  -0.990   2.567  0.00  0.00    +0.002 A 
ATOM     26  C   UNL     1       0.667  -1.018   2.651  0.00  0.00    +0.000 A 
ATOM     27  C   UNL     1      -0.060  -1.815   1.788  0.00  0.00    +0.000 A 
ATOM     28  C   UNL     1       0.592  -2.583   0.844  0.00  0.00    +0.004 A 
ENDBRANCH  17  20
ENDBRANCH  16  17
ENDBRANCH   2  16
TORSDOF 4
