REMARK  Name = ZINC02118849
REMARK  10 active torsions:
REMARK  status: ('A' for Active; 'I' for Inactive)
REMARK    1  A    between atoms: C_1  and  O_2
REMARK    2  A    between atoms: O_2  and  C_3
REMARK    3  A    between atoms: C_8  and  C_9
REMARK    4  A    between atoms: N_28  and  C_31
REMARK    5  A    between atoms: C_31  and  C_32
REMARK    6  A    between atoms: C_32  and  C_33
REMARK    7  A    between atoms: C_36  and  O_41
REMARK    8  A    between atoms: C_37  and  O_39
REMARK    9  A    between atoms: O_39  and  C_40
REMARK   10  A    between atoms: O_41  and  C_42
REMARK                            x       y       z     vdW  Elec       q    Type
REMARK                         _______ _______ _______ _____ _____    ______ ____
ROOT
ATOM      1  C   UNL     1       2.456   3.933   0.000  0.00  0.00    +0.157 C 
ATOM      2  C   UNL     1       2.784   4.400   1.400  0.00  0.00    +0.046 A 
ATOM      3  C   UNL     1       3.994   4.234   1.977  0.00  0.00    -0.015 A 
ATOM      4  C   UNL     1       3.914   4.812   3.303  0.00  0.00    +0.003 A 
ATOM      5  C   UNL     1       4.842   4.933   4.341  0.00  0.00    +0.010 A 
ATOM      6  C   UNL     1       4.412   5.551   5.489  0.00  0.00    +0.001 A 
ATOM      7  C   UNL     1       3.121   6.036   5.625  0.00  0.00    +0.002 A 
ATOM      8  C   UNL     1       2.182   5.929   4.613  0.00  0.00    +0.026 A 
ATOM      9  C   UNL     1       2.591   5.307   3.436  0.00  0.00    +0.047 A 
ATOM     10  N   UNL     1       1.939   5.040   2.267  0.00  0.00    -0.356 N 
ATOM     11  H   UNL     1       1.015   5.269   2.078  0.00  0.00    +0.166 HD
ATOM     12  C   UNL     1       5.172   3.559   1.321  0.00  0.00    +0.069 C 
ATOM     13  C   UNL     1       4.929   3.499  -0.194  0.00  0.00    +0.167 C 
ATOM     14  N   UNL     1       3.559   3.054  -0.444  0.00  0.00    -0.276 N 
ATOM     15  C   UNL     1       3.265   1.900  -1.046  0.00  0.00    +0.234 C 
ATOM     16  O   UNL     1       2.095   1.593  -1.141  0.00  0.00    -0.274 OA
ATOM     17  C   UNL     1       4.279   0.960  -1.610  0.00  0.00    +0.203 C 
ATOM     18  N   UNL     1       5.635   1.462  -1.457  0.00  0.00    -0.291 N 
ATOM     19  C   UNL     1       5.937   2.596  -0.828  0.00  0.00    +0.237 C 
ATOM     20  O   UNL     1       7.105   2.917  -0.766  0.00  0.00    -0.274 OA
ENDROOT
BRANCH   1  26
ATOM     21  C   UNL     1       0.320   3.207  -1.095  0.00  0.00    +0.125 A 
ATOM     22  C   UNL     1      -0.873   2.498  -1.085  0.00  0.00    +0.046 A 
ATOM     23  C   UNL     1      -1.218   1.746   0.021  0.00  0.00    +0.004 A 
ATOM     24  C   UNL     1      -0.382   1.709   1.122  0.00  0.00    +0.001 A 
ATOM     25  C   UNL     1       0.807   2.415   1.114  0.00  0.00    +0.009 A 
ATOM     26  C   UNL     1       1.160   3.164   0.008  0.00  0.00    +0.020 A 
BRANCH  21  28
ATOM     27  C   UNL     1      -0.248   3.942  -3.284  0.00  0.00    +0.277 C 
ATOM     28  O   UNL     1       0.665   3.943  -2.184  0.00  0.00    -0.495 OA
ENDBRANCH  21  28
ENDBRANCH   1  26
BRANCH  18  29
ATOM     29  C   UNL     1       6.731   0.675  -2.027  0.00  0.00    +0.113 C 
BRANCH  29  30
ATOM     30  C   UNL     1       7.240  -0.321  -0.983  0.00  0.00    +0.054 C 
BRANCH  30  31
ATOM     31  C   UNL     1       8.368  -1.130  -1.569  0.00  0.00    -0.042 A 
ATOM     32  C   UNL     1       8.097  -2.317  -2.225  0.00  0.00    +0.007 A 
ATOM     33  C   UNL     1       9.128  -3.060  -2.769  0.00  0.00    +0.049 A 
ATOM     34  C   UNL     1      10.437  -2.622  -2.648  0.00  0.00    +0.161 A 
ATOM     35  C   UNL     1      10.710  -1.431  -1.983  0.00  0.00    +0.162 A 
ATOM     36  C   UNL     1       9.671  -0.688  -1.445  0.00  0.00    +0.053 A 
BRANCH  35  37
ATOM     37  O   UNL     1      11.993  -0.996  -1.862  0.00  0.00    -0.491 OA
ATOM     38  C   UNL     1      12.198   0.235  -1.167  0.00  0.00    +0.277 C 
ENDBRANCH  35  37
BRANCH  34  39
ATOM     39  O   UNL     1      11.452  -3.355  -3.179  0.00  0.00    -0.491 OA
ATOM     40  C   UNL     1      11.097  -4.567  -3.847  0.00  0.00    +0.277 C 
ENDBRANCH  34  39
ENDBRANCH  30  31
ENDBRANCH  29  30
ENDBRANCH  18  29
TORSDOF 7
