REMARK  Name = ZINC05819389
REMARK  4 active torsions:
REMARK  status: ('A' for Active; 'I' for Inactive)
REMARK    1  A    between atoms: C_6  and  C_7
REMARK    2  A    between atoms: C_10  and  C_21
REMARK    3  A    between atoms: C_16  and  N_20
REMARK    4  A    between atoms: C_17  and  C_18
REMARK                            x       y       z     vdW  Elec       q    Type
REMARK                         _______ _______ _______ _____ _____    ______ ____
ROOT
ATOM      1  C   UNL     1      -1.282  -0.793   0.011  0.00  0.00    +0.102 C 
ATOM      2  C   UNL     1      -1.349  -1.669  -1.214  0.00  0.00    +0.058 A 
ATOM      3  C   UNL     1      -1.555  -1.333  -2.497  0.00  0.00    +0.146 A 
ATOM      4  N   UNL     1      -1.526  -2.470  -3.229  0.00  0.00    -0.269 N 
ATOM      5  H   UNL     1      -1.645  -2.533  -4.189  0.00  0.00    +0.189 HD
ATOM      6  N   UNL     1      -1.294  -3.545  -2.356  0.00  0.00    -0.135 NA
ATOM      7  C   UNL     1      -1.188  -3.070  -1.149  0.00  0.00    +0.245 A 
ATOM      8  O   UNL     1      -0.966  -3.716   0.028  0.00  0.00    -0.421 OA
ATOM      9  C   UNL     1      -1.170  -3.022   1.165  0.00  0.00    +0.201 C 
ATOM     10  C   UNL     1      -1.325  -1.682   1.228  0.00  0.00    +0.098 C 
ENDROOT
BRANCH   1  16
ATOM     11  C   UNL     1      -0.017   1.382   0.010  0.00  0.00    +0.024 A 
ATOM     12  C   UNL     1       1.181   2.072   0.002  0.00  0.00    +0.111 A 
ATOM     13  N   UNL     1       2.331   1.427  -0.013  0.00  0.00    -0.263 NA
ATOM     14  C   UNL     1       2.387   0.109  -0.021  0.00  0.00    +0.111 A 
ATOM     15  C   UNL     1       1.230  -0.647  -0.013  0.00  0.00    +0.024 A 
ATOM     16  C   UNL     1       0.002  -0.004   0.002  0.00  0.00    -0.032 A 
ENDBRANCH   1  16
BRANCH   3  17
ATOM     17  C   UNL     1      -1.778   0.060  -3.026  0.00  0.00    +0.434 C 
ATOM     18  F   UNL     1      -1.954   0.009  -4.413  0.00  0.00    -0.164 F 
ATOM     19  F   UNL     1      -2.918   0.609  -2.431  0.00  0.00    -0.164 F 
ATOM     20  F   UNL     1      -0.666   0.856  -2.727  0.00  0.00    -0.164 F 
ENDBRANCH   3  17
BRANCH   9  21
ATOM     21  N   UNL     1      -1.224  -3.726   2.342  0.00  0.00    -0.328 N 
ATOM     22  H   UNL     1      -1.116  -4.690   2.336  0.00  0.00    +0.145 HD
ATOM     23  H   UNL     1      -1.369  -3.260   3.180  0.00  0.00    +0.145 HD
ENDBRANCH   9  21
BRANCH  10  24
ATOM     24  C   UNL     1      -1.540  -1.077   2.508  0.00  0.00    +0.101 C 
ATOM     25  N   UNL     1      -1.710  -0.598   3.523  0.00  0.00    -0.191 NA
ENDBRANCH  10  24
TORSDOF 4
