REMARK  Name = ZINC66983235
REMARK  8 active torsions:
REMARK  status: ('A' for Active; 'I' for Inactive)
REMARK    1  A    between atoms: C_1  and  C_2
REMARK    2  A    between atoms: C_12  and  C_14
REMARK    3  A    between atoms: N_16  and  C_17
REMARK    4  A    between atoms: C_17  and  C_18
REMARK    5  A    between atoms: C_18  and  C_19
REMARK    6  A    between atoms: C_19  and  O_20
REMARK    7  A    between atoms: O_20  and  C_21
REMARK    8  A    between atoms: C_21  and  C_22
REMARK                            x       y       z     vdW  Elec       q    Type
REMARK                         _______ _______ _______ _____ _____    ______ ____
ROOT
ATOM      1  C   UNL     1      -1.461   1.504   0.951  0.00  0.00    +0.045 C 
ATOM      2  C   UNL     1      -1.296   0.025   0.719  0.00  0.00    -0.029 A 
ATOM      3  C   UNL     1      -2.084  -0.620  -0.214  0.00  0.00    +0.008 A 
ATOM      4  C   UNL     1      -1.932  -1.977  -0.426  0.00  0.00    +0.039 A 
ATOM      5  C   UNL     1      -0.992  -2.692   0.296  0.00  0.00    +0.128 A 
ATOM      6  C   UNL     1      -0.198  -2.052   1.235  0.00  0.00    +0.009 A 
ATOM      7  C   UNL     1      -0.346  -0.689   1.441  0.00  0.00    +0.045 A 
ATOM      8  N   UNL     1       0.452  -0.014   2.372  0.00  0.00    -0.263 N 
ATOM      9  C   UNL     1       1.236  -0.797   3.336  0.00  0.00    +0.114 C 
ATOM     10  C   UNL     1       1.906  -1.947   2.572  0.00  0.00    +0.024 C 
ATOM     11  C   UNL     1       0.812  -2.860   2.008  0.00  0.00    +0.041 C 
ATOM     12  C   UNL     1       0.500   1.333   2.383  0.00  0.00    +0.306 C 
ATOM     13  O   UNL     1       0.356   1.954   1.351  0.00  0.00    -0.265 OA
ATOM     14  F   UNL     1      -0.849  -4.019   0.085  0.00  0.00    -0.205 F 
ENDROOT
BRANCH  12  15
ATOM     15  C   UNL     1       0.730   2.062   3.667  0.00  0.00    +0.300 C 
ATOM     16  O   UNL     1       0.775   1.448   4.713  0.00  0.00    -0.265 OA
ATOM     17  N   UNL     1       0.887   3.400   3.663  0.00  0.00    -0.307 N 
ATOM     18  H   UNL     1       0.851   3.890   2.827  0.00  0.00    +0.149 HD
BRANCH  17  19
ATOM     19  C   UNL     1       1.113   4.114   4.922  0.00  0.00    +0.107 C 
BRANCH  19  20
ATOM     20  C   UNL     1       1.258   5.611   4.641  0.00  0.00    +0.047 C 
BRANCH  20  21
ATOM     21  C   UNL     1       1.493   6.357   5.955  0.00  0.00    +0.162 C 
BRANCH  21  22
ATOM     22  O   UNL     1       1.629   7.755   5.692  0.00  0.00    -0.372 OA
BRANCH  22  23
ATOM     23  C   UNL     1       1.853   8.547   6.860  0.00  0.00    +0.234 C 
BRANCH  23  24
ATOM     24  C   UNL     1       1.980   9.997   6.467  0.00  0.00    +0.130 A 
ATOM     25  C   UNL     1       0.970  10.882   6.388  0.00  0.00    +0.047 A 
ATOM     26  C   UNL     1       1.536  12.114   5.987  0.00  0.00    +0.041 A 
ATOM     27  C   UNL     1       2.857  11.908   5.844  0.00  0.00    +0.195 A 
ATOM     28  O   UNL     1       3.122  10.626   6.142  0.00  0.00    -0.465 OA
ENDBRANCH  23  24
ENDBRANCH  22  23
ENDBRANCH  21  22
ENDBRANCH  20  21
ENDBRANCH  19  20
ENDBRANCH  17  19
ENDBRANCH  12  15
TORSDOF 7
