REMARK  Name = ZINC60155573
REMARK  14 active torsions:
REMARK  status: ('A' for Active; 'I' for Inactive)
REMARK    1  A    between atoms: C_1  and  C_2
REMARK    2  A    between atoms: C_5  and  C_8
REMARK    3  A    between atoms: C_8  and  C_10
REMARK    4  A    between atoms: C_8  and  N_32
REMARK    5  A    between atoms: C_10  and  N_11
REMARK    6  A    between atoms: C_12  and  C_14
REMARK    7  A    between atoms: C_16  and  O_30
REMARK    8  A    between atoms: C_17  and  O_23
REMARK    9  A    between atoms: C_19  and  N_20
REMARK   10  A    between atoms: O_23  and  C_24
REMARK   11  A    between atoms: C_24  and  C_25
REMARK   12  A    between atoms: O_30  and  C_31
REMARK   13  A    between atoms: N_32  and  C_33
REMARK   14  A    between atoms: N_32  and  C_34
REMARK                            x       y       z     vdW  Elec       q    Type
REMARK                         _______ _______ _______ _____ _____    ______ ____
ROOT
ATOM      1  C   UNL     1      -1.713  -7.737  -0.632  0.00  0.00    +0.070 A 
ATOM      2  C   UNL     1      -1.411  -8.138  -1.937  0.00  0.00    +0.064 A 
ATOM      3  C   UNL     1      -0.941  -9.415  -2.172  0.00  0.00    +0.162 A 
ATOM      4  C   UNL     1      -0.769 -10.301  -1.109  0.00  0.00    +0.165 A 
ATOM      5  C   UNL     1      -1.069  -9.902   0.186  0.00  0.00    +0.083 A 
ATOM      6  C   UNL     1      -1.534  -8.627   0.428  0.00  0.00    +0.142 A 
ENDROOT
BRANCH   1   8
ATOM      7  N   UNL     1      -1.569  -5.308  -0.891  0.00  0.00    -0.313 N 
ATOM      8  C   UNL     1      -2.216  -6.373  -0.376  0.00  0.00    +0.246 C 
ATOM      9  O   UNL     1      -3.213  -6.210   0.301  0.00  0.00    -0.270 OA
ATOM     10  H   UNL     1      -0.774  -5.439  -1.430  0.00  0.00    +0.149 HD
BRANCH   7  11
ATOM     11  C   UNL     1      -2.068  -3.955  -0.636  0.00  0.00    +0.094 C 
BRANCH  11  12
ATOM     12  C   UNL     1      -1.242  -2.947  -1.438  0.00  0.00    -0.021 C 
BRANCH  12  17
ATOM     13  C   UNL     1      -1.940  -3.950  -7.086  0.00  0.00    +0.044 C 
ATOM     14  C   UNL     1      -1.758  -3.689  -5.613  0.00  0.00    -0.050 A 
ATOM     15  C   UNL     1      -0.628  -4.149  -4.964  0.00  0.00    +0.003 A 
ATOM     16  C   UNL     1      -0.461  -3.909  -3.613  0.00  0.00    +0.002 A 
ATOM     17  C   UNL     1      -1.423  -3.208  -2.911  0.00  0.00    -0.059 A 
ATOM     18  C   UNL     1      -2.553  -2.747  -3.560  0.00  0.00    +0.002 A 
ATOM     19  C   UNL     1      -2.718  -2.983  -4.912  0.00  0.00    +0.003 A 
ENDBRANCH  12  17
BRANCH  12  20
ATOM     20  N   UNL     1      -1.691  -1.584  -1.123  0.00  0.00    +0.382 N 
ATOM     21  C   UNL     1      -1.468  -1.313   0.304  0.00  0.00    -0.096 C 
ATOM     22  C   UNL     1      -0.930  -0.620  -1.929  0.00  0.00    -0.096 C 
ATOM     23  H   UNL     1      -2.674  -1.497  -1.333  0.00  0.00    -0.082 HD
ENDBRANCH  12  20
ENDBRANCH  11  12
ENDBRANCH   7  11
ENDBRANCH   1   8
BRANCH   6  24
ATOM     24  N   UNL     1      -1.847  -8.204   1.812  0.00  0.00    +0.057 N 
ATOM     25  O   UNL     1      -1.808  -9.008   2.713  0.00  0.00    -0.126 OA
ATOM     26  O   UNL     1      -2.141  -7.054   2.040  0.00  0.00    -0.126 OA
ENDBRANCH   6  24
BRANCH   3  27
ATOM     27  O   UNL     1      -0.646  -9.808  -3.440  0.00  0.00    -0.491 OA
ATOM     28  C   UNL     1      -0.847  -8.849  -4.480  0.00  0.00    +0.277 C 
ENDBRANCH   3  27
BRANCH   4  29
ATOM     29  O   UNL     1      -0.306 -11.556  -1.341  0.00  0.00    -0.482 OA
BRANCH  29  30
ATOM     30  C   UNL     1      -0.154 -12.412  -0.207  0.00  0.00    +0.285 C 
BRANCH  30  31
ATOM     31  C   UNL     1       0.365 -13.754  -0.656  0.00  0.00    +0.086 A 
ATOM     32  C   UNL     1       0.624 -14.013  -1.964  0.00  0.00    +0.073 A 
ATOM     33  S   UNL     1       1.191 -15.703  -1.857  0.00  0.00    -0.083 S 
ATOM     34  C   UNL     1       1.040 -15.893  -0.192  0.00  0.00    +0.156 A 
ATOM     35  N   UNL     1       0.594 -14.727   0.203  0.00  0.00    -0.249 NA
ENDBRANCH  30  31
ENDBRANCH  29  30
ENDBRANCH   4  29
TORSDOF 10
