REMARK  Name = ZINC13089153
REMARK  8 active torsions:
REMARK  status: ('A' for Active; 'I' for Inactive)
REMARK    1  A    between atoms: C_3  and  S_11
REMARK    2  A    between atoms: C_6  and  C_7
REMARK    3  A    between atoms: C_8  and  C_9
REMARK    4  A    between atoms: S_11  and  O_14
REMARK    5  A    between atoms: O_14  and  C_15
REMARK    6  A    between atoms: C_18  and  S_24
REMARK    7  A    between atoms: C_20  and  N_21
REMARK    8  A    between atoms: S_24  and  N_27
REMARK                            x       y       z     vdW  Elec       q    Type
REMARK                         _______ _______ _______ _____ _____    ______ ____
ROOT
ATOM      1  C   UNL     1       1.179   1.786   0.000  0.00  0.00    +0.187 A 
ATOM      2  C   UNL     1      -0.013   1.076   0.008  0.00  0.00    +0.053 A 
ATOM      3  C   UNL     1      -1.218   1.751   0.017  0.00  0.00    +0.032 A 
ATOM      4  C   UNL     1      -1.237   3.133   0.030  0.00  0.00    +0.108 A 
ATOM      5  C   UNL     1      -0.051   3.844   0.022  0.00  0.00    +0.065 A 
ATOM      6  C   UNL     1       1.157   3.173   0.008  0.00  0.00    +0.172 A 
ENDROOT
BRANCH   6   7
ATOM      7  N   UNL     1       2.426   3.934   0.000  0.00  0.00    +0.060 N 
ATOM      8  O   UNL     1       2.406   5.152   0.006  0.00  0.00    -0.126 OA
ATOM      9  O   UNL     1       3.491   3.343  -0.013  0.00  0.00    -0.126 OA
ENDBRANCH   6   7
BRANCH   4  10
ATOM     10  S   UNL     1      -2.776   3.991   0.048  0.00  0.00    +0.061 S 
ATOM     11  O   UNL     1      -3.732   3.099   0.604  0.00  0.00    -0.153 OA
ATOM     12  O   UNL     1      -2.519   5.274   0.603  0.00  0.00    -0.153 OA
BRANCH  10  13
ATOM     13  N   UNL     1      -3.218   4.238  -1.528  0.00  0.00    -0.177 NA
ATOM     14  C   UNL     1      -2.871   5.412  -2.342  0.00  0.00    +0.109 C 
ATOM     15  C   UNL     1      -3.518   5.215  -3.730  0.00  0.00    +0.018 C 
ATOM     16  C   UNL     1      -4.669   4.217  -3.436  0.00  0.00    +0.018 C 
ATOM     17  C   UNL     1      -4.031   3.319  -2.346  0.00  0.00    +0.109 C 
ENDBRANCH  10  13
ENDBRANCH   4  10
BRANCH   1  18
ATOM     18  O   UNL     1       2.366   1.125  -0.014  0.00  0.00    -0.340 OA
BRANCH  18  19
ATOM     19  S   UNL     1       2.894   0.830  -1.410  0.00  0.00    +0.151 S 
ATOM     20  O   UNL     1       4.011  -0.033  -1.248  0.00  0.00    -0.131 OA
ATOM     21  O   UNL     1       1.769   0.479  -2.204  0.00  0.00    -0.131 OA
BRANCH  19  24
ATOM     22  C   UNL     1       5.337   3.872  -2.362  0.00  0.00    +0.010 A 
ATOM     23  C   UNL     1       4.842   2.688  -1.856  0.00  0.00    +0.031 A 
ATOM     24  C   UNL     1       3.517   2.344  -2.062  0.00  0.00    +0.128 A 
ATOM     25  C   UNL     1       2.681   3.179  -2.782  0.00  0.00    +0.031 A 
ATOM     26  C   UNL     1       3.160   4.368  -3.291  0.00  0.00    +0.010 A 
ATOM     27  C   UNL     1       4.497   4.724  -3.086  0.00  0.00    -0.025 A 
BRANCH  27  28
ATOM     28  C   UNL     1       5.017   5.988  -3.631  0.00  0.00    +0.015 C 
ATOM     29  C   UNL     1       4.204   6.808  -4.329  0.00  0.00    +0.096 C 
BRANCH  29  30
ATOM     30  C   UNL     1       4.721   8.064  -4.869  0.00  0.00    +0.380 C 
ATOM     31  O   UNL     1       5.884   8.370  -4.690  0.00  0.00    -0.241 OA
ATOM     32  O   UNL     1       3.908   8.884  -5.567  0.00  0.00    -0.241 OA
ENDBRANCH  29  30
ENDBRANCH  27  28
ENDBRANCH  19  24
ENDBRANCH  18  19
ENDBRANCH   1  18
TORSDOF 8
