REMARK  Name = ZINC43654237
REMARK  6 active torsions:
REMARK  status: ('A' for Active; 'I' for Inactive)
REMARK    1  A    between atoms: C_1  and  C_2
REMARK    2  A    between atoms: C_2  and  C_3
REMARK    3  A    between atoms: C_7  and  N_23
REMARK    4  A    between atoms: C_9  and  C_12
REMARK    5  A    between atoms: C_12  and  C_13
REMARK    6  A    between atoms: C_18  and  N_19
REMARK                            x       y       z     vdW  Elec       q    Type
REMARK                         _______ _______ _______ _____ _____    ______ ____
ROOT
ATOM      1  C   UNL     1      -1.145  -0.694   0.086  0.00  0.00    -0.011 C 
ATOM      2  C   UNL     1      -1.733  -0.306   1.445  0.00  0.00    +0.002 C 
ATOM      3  C   UNL     1      -3.205  -0.719   1.500  0.00  0.00    -0.016 C 
ATOM      4  C   UNL     1      -3.317  -2.233   1.309  0.00  0.00    -0.072 C 
ATOM      5  C   UNL     1      -2.729  -2.621  -0.050  0.00  0.00    -0.021 C 
ATOM      6  C   UNL     1      -1.257  -2.208  -0.105  0.00  0.00    +0.005 C 
ENDROOT
BRANCH   4   7
ATOM      7  N   UNL     1      -2.576  -2.918   2.376  0.00  0.00    +0.380 N 
ATOM      8  H   UNL     1      -2.964  -2.662   3.272  0.00  0.00    -0.090 HD
ATOM      9  H   UNL     1      -2.650  -3.916   2.250  0.00  0.00    -0.090 HD
ATOM     10  H   UNL     1      -1.605  -2.645   2.340  0.00  0.00    -0.090 HD
ENDBRANCH   4   7
BRANCH   1  12
ATOM     11  C   UNL     1       0.432   1.244   0.097  0.00  0.00    +0.004 C 
ATOM     12  C   UNL     1       0.328  -0.281   0.031  0.00  0.00    +0.000 C 
ENDBRANCH   1  12
BRANCH   5  13
ATOM     13  C   UNL     1      -2.842  -4.135  -0.241  0.00  0.00    +0.039 C 
BRANCH  13  14
ATOM     14  C   UNL     1      -2.399  -4.499  -1.634  0.00  0.00    -0.014 A 
ATOM     15  C   UNL     1      -1.125  -4.990  -1.848  0.00  0.00    +0.044 A 
ATOM     16  C   UNL     1      -0.718  -5.325  -3.129  0.00  0.00    +0.124 A 
ATOM     17  C   UNL     1      -1.589  -5.168  -4.194  0.00  0.00    +0.040 A 
ATOM     18  C   UNL     1      -2.863  -4.677  -3.978  0.00  0.00    +0.036 A 
ATOM     19  C   UNL     1      -3.269  -4.348  -2.697  0.00  0.00    +0.130 A 
ATOM     20  F   UNL     1       0.527  -5.804  -3.339  0.00  0.00    -0.205 F 
BRANCH  19  21
ATOM     21  N   UNL     1      -4.636  -3.828  -2.466  0.00  0.00    +0.057 N 
ATOM     22  O   UNL     1      -5.430  -3.790  -3.377  0.00  0.00    -0.126 OA
ATOM     23  O   UNL     1      -4.957  -3.442  -1.367  0.00  0.00    -0.126 OA
ENDBRANCH  19  21
ENDBRANCH  13  14
ENDBRANCH   5  13
TORSDOF 5
