REMARK  Name = ZINC13647141
REMARK  10 active torsions:
REMARK  status: ('A' for Active; 'I' for Inactive)
REMARK    1  A    between atoms: C_1  and  C_2
REMARK    2  A    between atoms: C_2  and  O_3
REMARK    3  A    between atoms: O_3  and  C_4
REMARK    4  A    between atoms: C_8  and  N_10
REMARK    5  A    between atoms: C_11  and  C_13
REMARK    6  A    between atoms: C_13  and  N_14
REMARK    7  A    between atoms: N_14  and  C_15
REMARK    8  A    between atoms: N_14  and  S_24
REMARK    9  A    between atoms: C_18  and  N_21
REMARK   10  A    between atoms: S_24  and  C_27
REMARK                            x       y       z     vdW  Elec       q    Type
REMARK                         _______ _______ _______ _____ _____    ______ ____
ROOT
ATOM      1  N   UNL     1       2.380   7.969   0.305  0.00  0.00    -0.194 N 
ENDROOT
BRANCH   1   2
ATOM      2  C   UNL     1       3.100   8.102   1.495  0.00  0.00    +0.052 A 
ATOM      3  C   UNL     1       4.200   8.948   1.551  0.00  0.00    +0.027 A 
ATOM      4  C   UNL     1       4.907   9.081   2.730  0.00  0.00    +0.034 A 
ATOM      5  C   UNL     1       4.526   8.366   3.851  0.00  0.00    +0.126 A 
ATOM      6  C   UNL     1       3.434   7.519   3.797  0.00  0.00    +0.034 A 
ATOM      7  C   UNL     1       2.720   7.385   2.622  0.00  0.00    +0.027 A 
BRANCH   5   8
ATOM      8  N   UNL     1       5.289   8.507   5.111  0.00  0.00    +0.056 N 
ATOM      9  O   UNL     1       4.955   7.878   6.099  0.00  0.00    -0.126 OA
ATOM     10  O   UNL     1       6.250   9.253   5.161  0.00  0.00    -0.126 OA
ENDBRANCH   5   8
ENDBRANCH   1   2
BRANCH   1  11
ATOM     11  S   UNL     1       3.121   8.253  -1.148  0.00  0.00    +0.075 S 
ATOM     12  O   UNL     1       4.504   7.985  -0.958  0.00  0.00    -0.150 OA
ATOM     13  O   UNL     1       2.345   7.590  -2.136  0.00  0.00    -0.150 OA
BRANCH  11  14
ATOM     14  C   UNL     1       2.983   9.979  -1.474  0.00  0.00    +0.109 A 
ATOM     15  C   UNL     1       1.829  10.486  -2.041  0.00  0.00    +0.029 A 
ATOM     16  C   UNL     1       1.719  11.841  -2.291  0.00  0.00    +0.002 A 
ATOM     17  C   UNL     1       2.767  12.688  -1.985  0.00  0.00    +0.000 A 
ATOM     18  C   UNL     1       3.924  12.181  -1.424  0.00  0.00    +0.002 A 
ATOM     19  C   UNL     1       4.032  10.826  -1.168  0.00  0.00    +0.029 A 
ENDBRANCH  11  14
ENDBRANCH   1  11
BRANCH   1  20
ATOM     20  C   UNL     1       0.968   7.577   0.343  0.00  0.00    +0.227 C 
BRANCH  20  22
ATOM     21  N   UNL     1      -0.345   5.484   0.448  0.00  0.00    -0.284 N 
ATOM     22  C   UNL     1       0.865   6.075   0.405  0.00  0.00    +0.236 C 
ATOM     23  O   UNL     1       1.872   5.398   0.416  0.00  0.00    -0.274 OA
ATOM     24  H   UNL     1      -1.150   6.020   0.367  0.00  0.00    +0.155 HD
BRANCH  21  29
ATOM     25  C   UNL     1       0.409   1.891   0.192  0.00  0.00    +0.122 A 
ATOM     26  C   UNL     1      -0.637   1.352   0.929  0.00  0.00    +0.046 A 
ATOM     27  C   UNL     1      -1.577   2.184   1.506  0.00  0.00    +0.005 A 
ATOM     28  C   UNL     1      -1.483   3.553   1.348  0.00  0.00    +0.023 A 
ATOM     29  C   UNL     1      -0.441   4.097   0.608  0.00  0.00    +0.037 A 
ATOM     30  C   UNL     1       0.504   3.263   0.027  0.00  0.00    +0.069 A 
BRANCH  25  31
ATOM     31  O   UNL     1       1.337   1.072  -0.370  0.00  0.00    -0.492 OA
BRANCH  31  33
ATOM     32  C   UNL     1       2.305  -1.086  -0.865  0.00  0.00    +0.048 C 
ATOM     33  C   UNL     1       1.174  -0.332  -0.162  0.00  0.00    +0.225 C 
ENDBRANCH  31  33
ENDBRANCH  25  31
ENDBRANCH  21  29
ENDBRANCH  20  22
ENDBRANCH   1  20
TORSDOF 9
