REMARK  Name = ZINC40336479
REMARK  5 active torsions:
REMARK  status: ('A' for Active; 'I' for Inactive)
REMARK    1  A    between atoms: C_4  and  C_7
REMARK    2  A    between atoms: N_15  and  C_27
REMARK    3  A    between atoms: C_16  and  C_18
REMARK    4  A    between atoms: C_21  and  N_24
REMARK    5  A    between atoms: C_27  and  C_28
REMARK                            x       y       z     vdW  Elec       q    Type
REMARK                         _______ _______ _______ _____ _____    ______ ____
ROOT
ATOM      1  C   UNL     1       3.699  -0.689  -0.037  0.00  0.00    +0.099 A 
ATOM      2  C   UNL     1       3.978  -1.905   0.596  0.00  0.00    +0.035 A 
ATOM      3  C   UNL     1       5.299  -2.186   0.306  0.00  0.00    +0.126 A 
ATOM      4  N   UNL     1       5.746  -1.153  -0.469  0.00  0.00    -0.272 N 
ATOM      5  H   UNL     1       6.644  -1.074  -0.828  0.00  0.00    +0.189 HD
ATOM      6  N   UNL     1       4.798  -0.305  -0.656  0.00  0.00    -0.173 NA
ATOM      7  C   UNL     1       5.657  -3.458   0.944  0.00  0.00    +0.266 C 
ATOM      8  O   UNL     1       6.752  -3.983   0.880  0.00  0.00    -0.268 OA
ATOM      9  N   UNL     1       4.602  -3.960   1.611  0.00  0.00    -0.281 N 
ATOM     10  C   UNL     1       3.472  -3.036   1.449  0.00  0.00    +0.142 C 
ENDROOT
BRANCH   1  14
ATOM     11  C   UNL     1      -0.017   1.379   0.010  0.00  0.00    +0.000 A 
ATOM     12  C   UNL     1       1.169   2.092   0.002  0.00  0.00    +0.001 A 
ATOM     13  C   UNL     1       2.377   1.425  -0.013  0.00  0.00    +0.010 A 
ATOM     14  C   UNL     1       2.402   0.033  -0.021  0.00  0.00    +0.002 A 
ATOM     15  C   UNL     1       1.205  -0.680  -0.013  0.00  0.00    +0.010 A 
ATOM     16  C   UNL     1       0.002  -0.004   0.002  0.00  0.00    +0.001 A 
ENDBRANCH   1  14
BRANCH  10  17
ATOM     17  C   UNL     1       2.327  -3.733   0.761  0.00  0.00    -0.022 A 
ATOM     18  C   UNL     1       2.579  -4.660  -0.233  0.00  0.00    +0.008 A 
ATOM     19  C   UNL     1       1.528  -5.299  -0.864  0.00  0.00    +0.033 A 
ATOM     20  C   UNL     1       0.226  -5.012  -0.501  0.00  0.00    +0.126 A 
ATOM     21  C   UNL     1      -0.026  -4.086   0.494  0.00  0.00    +0.033 A 
ATOM     22  C   UNL     1       1.025  -3.450   1.128  0.00  0.00    +0.008 A 
BRANCH  20  23
ATOM     23  N   UNL     1      -0.899  -5.696  -1.177  0.00  0.00    +0.056 N 
ATOM     24  O   UNL     1      -0.679  -6.506  -2.047  0.00  0.00    -0.126 OA
ATOM     25  O   UNL     1      -2.038  -5.445  -0.859  0.00  0.00    -0.126 OA
ENDBRANCH  20  23
ENDBRANCH  10  17
BRANCH   9  26
ATOM     26  C   UNL     1       4.584  -5.214   2.369  0.00  0.00    +0.144 C 
BRANCH  26  27
ATOM     27  C   UNL     1       4.982  -4.944   3.797  0.00  0.00    -0.026 A 
ATOM     28  C   UNL     1       6.314  -5.004   4.164  0.00  0.00    +0.009 A 
ATOM     29  C   UNL     1       6.685  -4.757   5.473  0.00  0.00    +0.050 A 
ATOM     30  C   UNL     1       5.721  -4.448   6.420  0.00  0.00    +0.166 A 
ATOM     31  C   UNL     1       4.380  -4.388   6.050  0.00  0.00    +0.167 A 
ATOM     32  C   UNL     1       4.017  -4.631   4.735  0.00  0.00    +0.054 A 
ATOM     33  O   UNL     1       3.638  -4.070   7.150  0.00  0.00    -0.453 OA
ATOM     34  C   UNL     1       4.490  -4.337   8.279  0.00  0.00    +0.466 C 
ATOM     35  O   UNL     1       5.819  -4.168   7.752  0.00  0.00    -0.453 OA
ENDBRANCH  26  27
ENDBRANCH   9  26
TORSDOF 5
