REMARK  Name = ZINC13218779
REMARK  6 active torsions:
REMARK  status: ('A' for Active; 'I' for Inactive)
REMARK    1  A    between atoms: C_6  and  N_7
REMARK    2  A    between atoms: C_8  and  C_26
REMARK    3  A    between atoms: C_11  and  S_12
REMARK    4  A    between atoms: S_12  and  C_13
REMARK    5  A    between atoms: C_13  and  C_14
REMARK    6  A    between atoms: C_21  and  C_23
REMARK                            x       y       z     vdW  Elec       q    Type
REMARK                         _______ _______ _______ _____ _____    ______ ____
ROOT
ATOM      1  N   UNL     1       2.520  -2.094   5.329  0.00  0.00    -0.282 N 
ATOM      2  C   UNL     1       1.825  -1.118   6.038  0.00  0.00    +0.156 A 
ATOM      3  C   UNL     1       0.521  -1.174   5.592  0.00  0.00    +0.147 A 
ATOM      4  N   UNL     1       0.442  -2.129   4.669  0.00  0.00    -0.229 NA
ATOM      5  C   UNL     1       1.623  -2.689   4.498  0.00  0.00    +0.175 A 
ENDROOT
BRANCH   1  11
ATOM      6  C   UNL     1       4.375  -2.921   6.639  0.00  0.00    +0.029 A 
ATOM      7  C   UNL     1       5.716  -3.230   6.754  0.00  0.00    +0.040 A 
ATOM      8  C   UNL     1       6.571  -3.014   5.686  0.00  0.00    +0.124 A 
ATOM      9  C   UNL     1       6.082  -2.493   4.500  0.00  0.00    +0.040 A 
ATOM     10  C   UNL     1       4.741  -2.187   4.380  0.00  0.00    +0.029 A 
ATOM     11  C   UNL     1       3.882  -2.403   5.449  0.00  0.00    +0.049 A 
ATOM     12  F   UNL     1       7.884  -3.312   5.802  0.00  0.00    -0.205 F 
ENDBRANCH   1  11
BRANCH   2  13
ATOM     13  C   UNL     1       2.351  -0.243   7.020  0.00  0.00    +0.405 C 
ATOM     14  O   UNL     1       1.625   0.568   7.564  0.00  0.00    -0.239 OA
ATOM     15  O   UNL     1       3.657  -0.309   7.352  0.00  0.00    -0.239 OA
ENDBRANCH   2  13
BRANCH   5  16
ATOM     16  S   UNL     1       1.982  -3.998   3.375  0.00  0.00    -0.078 S 
BRANCH  16  17
ATOM     17  C   UNL     1       0.343  -4.245   2.647  0.00  0.00    +0.173 C 
BRANCH  17  18
ATOM     18  C   UNL     1       0.409  -5.351   1.625  0.00  0.00    +0.226 C 
ATOM     19  O   UNL     1       1.460  -5.917   1.411  0.00  0.00    -0.275 OA
ATOM     20  N   UNL     1      -0.701  -5.712   0.951  0.00  0.00    -0.289 N 
ATOM     21  C   UNL     1      -2.006  -5.130   1.291  0.00  0.00    +0.108 C 
ATOM     22  C   UNL     1      -2.629  -4.542   0.021  0.00  0.00    +0.019 C 
ATOM     23  C   UNL     1      -2.685  -5.621  -1.063  0.00  0.00    +0.004 C 
ATOM     24  C   UNL     1      -1.266  -6.088  -1.393  0.00  0.00    +0.032 C 
ATOM     25  C   UNL     1      -0.626  -6.690  -0.143  0.00  0.00    +0.162 C 
BRANCH  25  26
ATOM     26  C   UNL     1       0.816  -7.023  -0.427  0.00  0.00    +0.231 C 
ATOM     27  O   UNL     1       1.580  -6.152  -0.784  0.00  0.00    -0.274 OA
ATOM     28  N   UNL     1       1.256  -8.289  -0.283  0.00  0.00    -0.328 N 
ATOM     29  H   UNL     1       0.645  -8.986   0.002  0.00  0.00    +0.145 HD
ATOM     30  H   UNL     1       2.185  -8.503  -0.466  0.00  0.00    +0.145 HD
ENDBRANCH  25  26
ENDBRANCH  17  18
ENDBRANCH  16  17
ENDBRANCH   5  16
TORSDOF 6
