REMARK  Name = ZINC20733219
REMARK  14 active torsions:
REMARK  status: ('A' for Active; 'I' for Inactive)
REMARK    1  A    between atoms: C_1  and  C_2
REMARK    2  A    between atoms: C_7  and  N_8
REMARK    3  A    between atoms: N_8  and  C_9
REMARK    4  A    between atoms: C_9  and  N_11
REMARK    5  A    between atoms: N_11  and  C_12
REMARK    6  A    between atoms: N_11  and  C_23
REMARK    7  A    between atoms: C_12  and  C_13
REMARK    8  A    between atoms: C_13  and  C_14
REMARK    9  A    between atoms: C_14  and  N_15
REMARK   10  A    between atoms: N_15  and  C_16
REMARK   11  A    between atoms: N_15  and  C_17
REMARK   12  A    between atoms: C_23  and  C_24
REMARK   13  A    between atoms: N_28  and  C_29
REMARK   14  A    between atoms: C_29  and  C_30
REMARK                            x       y       z     vdW  Elec       q    Type
REMARK                         _______ _______ _______ _____ _____    ______ ____
ROOT
ATOM      1  N   UNL     1       0.689   2.087   0.120  0.00  0.00    -0.307 N 
ENDROOT
BRANCH   1   2
ATOM      2  C   UNL     1      -0.341   1.226   0.236  0.00  0.00    +0.137 C 
ATOM      3  S   UNL     1      -0.060  -0.461   0.150  0.00  0.00    -0.018 S 
BRANCH   2   4
ATOM      4  N   UNL     1      -1.593   1.692   0.414  0.00  0.00    -0.297 N 
ATOM      5  H   UNL     1      -2.047   1.680   1.415  0.00  0.00    +0.154 HD
BRANCH   4  12
ATOM      6  C   UNL     1      -4.136   2.866   0.912  0.00  0.00    +0.045 C 
ATOM      7  C   UNL     1      -3.560   2.773  -0.477  0.00  0.00    -0.029 A 
ATOM      8  C   UNL     1      -4.269   3.267  -1.555  0.00  0.00    +0.005 A 
ATOM      9  C   UNL     1      -3.741   3.183  -2.829  0.00  0.00    +0.000 A 
ATOM     10  C   UNL     1      -2.500   2.605  -3.030  0.00  0.00    +0.002 A 
ATOM     11  C   UNL     1      -1.784   2.114  -1.957  0.00  0.00    +0.023 A 
ATOM     12  C   UNL     1      -2.314   2.193  -0.675  0.00  0.00    +0.036 A 
ENDBRANCH   4  12
ENDBRANCH   2   4
ENDBRANCH   1   2
BRANCH   1  13
ATOM     13  C   UNL     1       0.437   3.530   0.083  0.00  0.00    +0.105 C 
BRANCH  13  14
ATOM     14  C   UNL     1       0.464   4.088   1.508  0.00  0.00    +0.000 C 
BRANCH  14  15
ATOM     15  C   UNL     1       0.201   5.595   1.470  0.00  0.00    -0.077 C 
BRANCH  15  16
ATOM     16  N   UNL     1       0.227   6.131   2.837  0.00  0.00    +0.380 N 
ATOM     17  C   UNL     1      -0.889   5.601   3.632  0.00  0.00    -0.096 C 
ATOM     18  H   UNL     1       1.165   5.804   3.310  0.00  0.00    -0.082 HD
BRANCH  16  19
ATOM     19  C   UNL     1       0.215   7.600   2.827  0.00  0.00    -0.069 C 
ATOM     20  C   UNL     1       1.444   8.115   2.074  0.00  0.00    -0.015 C 
ATOM     21  C   UNL     1       1.432   9.645   2.064  0.00  0.00    -0.002 C 
ATOM     22  C   UNL     1       1.460  10.165   3.502  0.00  0.00    -0.000 C 
ATOM     23  C   UNL     1       0.231   9.650   4.255  0.00  0.00    -0.002 C 
ATOM     24  C   UNL     1       0.243   8.120   4.265  0.00  0.00    -0.015 C 
ENDBRANCH  16  19
ENDBRANCH  15  16
ENDBRANCH  14  15
ENDBRANCH  13  14
ENDBRANCH   1  13
BRANCH   1  25
ATOM     25  C   UNL     1       2.061   1.581   0.030  0.00  0.00    +0.160 C 
BRANCH  25  26
ATOM     26  C   UNL     1       2.458   1.461  -1.419  0.00  0.00    +0.036 A 
ATOM     27  C   UNL     1       1.894   2.121  -2.451  0.00  0.00    +0.024 A 
ATOM     28  C   UNL     1       2.562   1.720  -3.624  0.00  0.00    +0.019 A 
ATOM     29  C   UNL     1       3.509   0.829  -3.265  0.00  0.00    +0.086 A 
ATOM     30  N   UNL     1       3.454   0.671  -1.912  0.00  0.00    -0.345 N 
BRANCH  30  31
ATOM     31  C   UNL     1       4.319  -0.206  -1.119  0.00  0.00    +0.156 C 
BRANCH  31  32
ATOM     32  C   UNL     1       3.689  -1.571  -1.013  0.00  0.00    -0.028 A 
ATOM     33  C   UNL     1       2.775  -1.833  -0.010  0.00  0.00    +0.007 A 
ATOM     34  C   UNL     1       2.192  -3.083   0.084  0.00  0.00    +0.020 A 
ATOM     35  C   UNL     1       2.533  -4.075  -0.818  0.00  0.00    +0.041 A 
ATOM     36  C   UNL     1       3.452  -3.813  -1.818  0.00  0.00    +0.020 A 
ATOM     37  C   UNL     1       4.030  -2.562  -1.915  0.00  0.00    +0.007 A 
ATOM     38 CL   UNL     1       1.806  -5.647  -0.696  0.00  0.00    -0.084 Cl
ENDBRANCH  31  32
ENDBRANCH  30  31
ENDBRANCH  25  26
ENDBRANCH   1  25
TORSDOF 12
