REMARK  Name = ZINC38547382
REMARK  5 active torsions:
REMARK  status: ('A' for Active; 'I' for Inactive)
REMARK    1  A    between atoms: C_5  and  C_7
REMARK    2  A    between atoms: C_7  and  C_9
REMARK    3  A    between atoms: C_7  and  N_26
REMARK    4  A    between atoms: C_13  and  N_14
REMARK    5  A    between atoms: C_15  and  C_17
REMARK                            x       y       z     vdW  Elec       q    Type
REMARK                         _______ _______ _______ _____ _____    ______ ____
ROOT
ATOM      1  C   UNL     1       1.394  -2.583   1.440  0.00  0.00    +0.009 A 
ATOM      2  C   UNL     1       2.636  -3.017   1.903  0.00  0.00    -0.030 A 
ATOM      3  C   UNL     1       2.717  -3.334   3.223  0.00  0.00    -0.005 A 
ATOM      4  S   UNL     1       1.080  -3.033   3.835  0.00  0.00    -0.078 S 
ATOM      5  C   UNL     1       0.345  -2.489   2.300  0.00  0.00    +0.078 A 
ATOM      6  C   UNL     1       3.915  -3.822   3.971  0.00  0.00    +0.043 C 
ATOM      7  C   UNL     1       4.972  -4.270   2.950  0.00  0.00    +0.005 C 
ATOM      8  C   UNL     1       5.115  -3.182   1.882  0.00  0.00    +0.005 C 
ATOM      9  C   UNL     1       3.863  -3.143   1.005  0.00  0.00    +0.036 C 
ENDROOT
BRANCH   5  10
ATOM     10  N   UNL     1      -0.965  -2.078   2.049  0.00  0.00    -0.273 N 
ATOM     11  C   UNL     1      -1.895  -2.160   3.021  0.00  0.00    +0.284 C 
ATOM     12  O   UNL     1      -1.593  -2.594   4.117  0.00  0.00    -0.266 OA
ATOM     13  H   UNL     1      -1.206  -1.732   1.175  0.00  0.00    +0.156 HD
BRANCH  11  14
ATOM     14  C   UNL     1      -3.271  -1.728   2.757  0.00  0.00    +0.189 A 
ATOM     15  C   UNL     1      -4.305  -1.753   3.649  0.00  0.00    +0.054 A 
ATOM     16  C   UNL     1      -5.431  -1.252   2.977  0.00  0.00    +0.042 A 
ATOM     17  C   UNL     1      -5.040  -0.947   1.720  0.00  0.00    +0.196 A 
ATOM     18  O   UNL     1      -3.737  -1.231   1.593  0.00  0.00    -0.458 OA
ENDBRANCH  11  14
ENDBRANCH   5  10
BRANCH   1  19
ATOM     19  C   UNL     1       1.216  -2.212  -0.010  0.00  0.00    +0.138 C 
BRANCH  19  20
ATOM     20  N   UNL     1       0.017  -2.866  -0.539  0.00  0.00    -0.320 N 
ATOM     21  C   UNL     1      -0.108  -3.088  -1.905  0.00  0.00    +0.097 A 
ATOM     22  C   UNL     1       0.911  -2.691  -2.765  0.00  0.00    +0.041 A 
ATOM     23  C   UNL     1       0.772  -2.918  -4.122  0.00  0.00    +0.005 A 
ATOM     24  C   UNL     1      -0.385  -3.537  -4.576  0.00  0.00    +0.018 A 
ATOM     25  C   UNL     1      -1.356  -3.905  -3.667  0.00  0.00    +0.084 A 
ATOM     26  N   UNL     1      -1.195  -3.681  -2.377  0.00  0.00    -0.350 N 
ATOM     27  H   UNL     1      -0.689  -3.145   0.065  0.00  0.00    +0.148 HD
ATOM     28  H   UNL     1      -1.891  -3.953  -1.758  0.00  0.00    +0.166 HD
ENDBRANCH  19  20
BRANCH  19  33
ATOM     29  C   UNL     1      -0.324   1.214  -0.391  0.00  0.00    +0.001 A 
ATOM     30  C   UNL     1       0.794   2.026  -0.356  0.00  0.00    +0.003 A 
ATOM     31  C   UNL     1       2.049   1.469  -0.209  0.00  0.00    +0.039 A 
ATOM     32  C   UNL     1       2.188   0.096  -0.096  0.00  0.00    +0.129 A 
ATOM     33  C   UNL     1       1.068  -0.717  -0.132  0.00  0.00    +0.012 A 
ATOM     34  C   UNL     1      -0.188  -0.157  -0.279  0.00  0.00    +0.008 A 
ATOM     35  F   UNL     1       3.415  -0.451   0.047  0.00  0.00    -0.205 F 
ENDBRANCH  19  33
ENDBRANCH   1  19
TORSDOF 5
