REMARK  Name = ZINC20856028
REMARK  7 active torsions:
REMARK  status: ('A' for Active; 'I' for Inactive)
REMARK    1  A    between atoms: C_10  and  C_12
REMARK    2  A    between atoms: C_18  and  C_20
REMARK    3  A    between atoms: C_20  and  O_22
REMARK    4  A    between atoms: O_22  and  C_23
REMARK    5  A    between atoms: C_23  and  C_24
REMARK    6  A    between atoms: N_26  and  C_27
REMARK    7  A    between atoms: C_29  and  N_34
REMARK                            x       y       z     vdW  Elec       q    Type
REMARK                         _______ _______ _______ _____ _____    ______ ____
ROOT
ATOM      1  C   UNL     1      -6.016   2.813  -1.318  0.00  0.00    +0.311 C 
ATOM      2  O   UNL     1      -5.245   3.382  -2.054  0.00  0.00    -0.251 OA
ENDROOT
BRANCH   1   8
ATOM      3  C   UNL     1      -3.985   2.276  -0.001  0.00  0.00    +0.089 C 
ATOM      4  C   UNL     1      -3.466   1.567   1.251  0.00  0.00    +0.013 C 
ATOM      5  C   UNL     1      -4.114   2.183   2.493  0.00  0.00    +0.001 C 
ATOM      6  C   UNL     1      -5.633   2.021   2.409  0.00  0.00    +0.001 C 
ATOM      7  C   UNL     1      -6.153   2.730   1.157  0.00  0.00    +0.015 C 
ATOM      8  C   UNL     1      -5.505   2.114  -0.085  0.00  0.00    +0.110 C 
BRANCH   3  18
ATOM      9  C   UNL     1      -0.711   7.959  -0.306  0.00  0.00    +0.000 A 
ATOM     10  C   UNL     1      -2.079   7.876  -0.130  0.00  0.00    +0.002 A 
ATOM     11  C   UNL     1      -2.694   6.645  -0.044  0.00  0.00    +0.024 A 
ATOM     12  C   UNL     1      -1.942   5.473  -0.147  0.00  0.00    +0.039 A 
ATOM     13  C   UNL     1      -0.571   5.568  -0.324  0.00  0.00    -0.024 A 
ATOM     14  C   UNL     1       0.042   6.804  -0.403  0.00  0.00    +0.005 A 
ATOM     15  C   UNL     1       0.003   4.170  -0.398  0.00  0.00    +0.056 C 
ATOM     16  C   UNL     1      -1.214   3.244  -0.241  0.00  0.00    +0.118 C 
ATOM     17  N   UNL     1      -2.363   4.141  -0.093  0.00  0.00    -0.271 N 
ATOM     18  C   UNL     1      -3.640   3.741   0.072  0.00  0.00    +0.224 C 
ATOM     19  O   UNL     1      -4.510   4.560   0.279  0.00  0.00    -0.275 OA
ENDBRANCH   3  18
ENDBRANCH   1   8
BRANCH   1  20
ATOM     20  O   UNL     1      -7.329   2.803  -1.599  0.00  0.00    -0.455 OA
BRANCH  20  21
ATOM     21  C   UNL     1      -7.751   3.496  -2.803  0.00  0.00    +0.328 C 
BRANCH  21  22
ATOM     22  C   UNL     1      -9.246   3.378  -2.953  0.00  0.00    +0.255 C 
ATOM     23  O   UNL     1      -9.892   2.770  -2.126  0.00  0.00    -0.272 OA
ATOM     24  N   UNL     1      -9.864   3.949  -4.005  0.00  0.00    -0.280 N 
ATOM     25  H   UNL     1      -9.272   4.428  -4.798  0.00  0.00    +0.155 HD
BRANCH  24  26
ATOM     26  C   UNL     1     -11.262   3.932  -4.089  0.00  0.00    +0.071 A 
ATOM     27  C   UNL     1     -12.027   3.786  -2.940  0.00  0.00    +0.059 A 
ATOM     28  C   UNL     1     -13.405   3.771  -3.026  0.00  0.00    +0.128 A 
ATOM     29  C   UNL     1     -14.025   3.900  -4.255  0.00  0.00    +0.035 A 
ATOM     30  C   UNL     1     -13.269   4.046  -5.403  0.00  0.00    +0.042 A 
ATOM     31  C   UNL     1     -11.888   4.068  -5.324  0.00  0.00    +0.145 A 
ATOM     32  F   UNL     1     -11.148   4.215  -6.445  0.00  0.00    -0.204 F 
BRANCH  28  33
ATOM     33  N   UNL     1     -14.220   3.614  -1.800  0.00  0.00    +0.056 N 
ATOM     34  O   UNL     1     -13.675   3.500  -0.717  0.00  0.00    -0.126 OA
ATOM     35  O   UNL     1     -15.436   3.600  -1.874  0.00  0.00    -0.126 OA
ENDBRANCH  28  33
ENDBRANCH  24  26
ENDBRANCH  21  22
ENDBRANCH  20  21
ENDBRANCH   1  20
TORSDOF 7
