REMARK  Name = ZINC59516421
REMARK  4 active torsions:
REMARK  status: ('A' for Active; 'I' for Inactive)
REMARK    1  A    between atoms: C_1  and  C_2
REMARK    2  A    between atoms: C_15  and  C_18
REMARK    3  A    between atoms: C_21  and  N_24
REMARK    4  A    between atoms: C_25  and  C_26
REMARK                            x       y       z     vdW  Elec       q    Type
REMARK                         _______ _______ _______ _____ _____    ______ ____
ROOT
ATOM      1  C   UNL     1       0.797  -6.201   0.932  0.00  0.00    -0.027 A 
ATOM      2  C   UNL     1       2.037  -6.091   0.328  0.00  0.00    +0.007 A 
ATOM      3  C   UNL     1       2.800  -7.218   0.100  0.00  0.00    +0.028 A 
ATOM      4  C   UNL     1       2.318  -8.472   0.482  0.00  0.00    +0.064 A 
ATOM      5  C   UNL     1       1.066  -8.576   1.093  0.00  0.00    +0.028 A 
ATOM      6  C   UNL     1       0.316  -7.440   1.318  0.00  0.00    +0.007 A 
ENDROOT
BRANCH   1  19
ATOM      7  C   UNL     1       0.002   1.511   0.038  0.00  0.00    +0.044 C 
ATOM      8  C   UNL     1       0.021   0.004   0.024  0.00  0.00    -0.050 A 
ATOM      9  C   UNL     1       0.031  -0.674  -1.181  0.00  0.00    +0.005 A 
ATOM     10  C   UNL     1       0.041  -2.054  -1.191  0.00  0.00    +0.023 A 
ATOM     11  C   UNL     1       0.044  -2.761   0.007  0.00  0.00    +0.031 A 
ATOM     12  C   UNL     1       0.047  -2.082   1.217  0.00  0.00    -0.019 A 
ATOM     13  C   UNL     1       0.034  -0.695   1.214  0.00  0.00    +0.009 A 
ATOM     14  C   UNL     1       0.091  -2.804   2.521  0.00  0.00    +0.049 C 
ATOM     15  C   UNL     1      -1.252  -2.818   3.207  0.00  0.00    -0.023 C 
ATOM     16  C   UNL     1      -1.430  -3.956   3.831  0.00  0.00    -0.030 C 
ATOM     17  C   UNL     1      -0.236  -4.866   3.646  0.00  0.00    +0.033 C 
ATOM     18  C   UNL     1       0.495  -4.274   2.418  0.00  0.00    +0.029 C 
ATOM     19  C   UNL     1      -0.030  -4.966   1.177  0.00  0.00    +0.105 C 
ATOM     20  N   UNL     1       0.035  -4.150  -0.018  0.00  0.00    -0.336 N 
ATOM     21  H   UNL     1       0.050  -4.595  -0.880  0.00  0.00    +0.147 HD
ENDBRANCH   1  19
BRANCH   4  22
ATOM     22  N   UNL     1       3.069  -9.594   0.260  0.00  0.00    -0.255 NA
ATOM     23  C   UNL     1       3.196 -10.491   1.199  0.00  0.00    +0.120 C 
BRANCH  23  24
ATOM     24  C   UNL     1       4.002 -11.694   0.960  0.00  0.00    +0.001 A 
ATOM     25  C   UNL     1       4.239 -12.605   1.984  0.00  0.00    +0.010 A 
ATOM     26  C   UNL     1       5.001 -13.742   1.754  0.00  0.00    +0.001 A 
ATOM     27  C   UNL     1       5.542 -14.010   0.534  0.00  0.00    +0.008 A 
ATOM     28  C   UNL     1       5.343 -13.134  -0.547  0.00  0.00    -0.017 A 
ATOM     29  C   UNL     1       4.567 -11.965  -0.362  0.00  0.00    -0.009 A 
ATOM     30  C   UNL     1       4.361 -11.093  -1.438  0.00  0.00    +0.009 A 
ATOM     31  C   UNL     1       4.906 -11.383  -2.653  0.00  0.00    +0.001 A 
ATOM     32  C   UNL     1       5.665 -12.536  -2.841  0.00  0.00    +0.001 A 
ATOM     33  C   UNL     1       5.896 -13.398  -1.812  0.00  0.00    +0.008 A 
ENDBRANCH  23  24
ENDBRANCH   4  22
TORSDOF 3
