REMARK  Name = ZINC15885772
REMARK  11 active torsions:
REMARK  status: ('A' for Active; 'I' for Inactive)
REMARK    1  A    between atoms: C_1  and  C_2
REMARK    2  A    between atoms: C_2  and  C_3
REMARK    3  A    between atoms: C_2  and  C_4
REMARK    4  A    between atoms: C_7  and  N_10
REMARK    5  A    between atoms: N_10  and  C_11
REMARK    6  A    between atoms: C_11  and  N_13
REMARK    7  A    between atoms: N_13  and  N_14
REMARK    8  A    between atoms: C_15  and  C_17
REMARK    9  A    between atoms: C_18  and  C_19
REMARK   10  A    between atoms: N_24  and  C_25
REMARK   11  A    between atoms: C_32  and  C_34
REMARK                            x       y       z     vdW  Elec       q    Type
REMARK                         _______ _______ _______ _____ _____    ______ ____
ROOT
ATOM      1  N   UNL     1      -0.042   1.019  -0.015  0.00  0.00    -0.232 N 
ATOM      2  C   UNL     1       1.101   1.732  -0.041  0.00  0.00    +0.253 C 
ATOM      3  O   UNL     1       1.083   2.900  -0.385  0.00  0.00    -0.269 OA
ATOM      4  H   UNL     1      -0.028   0.088   0.259  0.00  0.00    +0.173 HD
ENDROOT
BRANCH   1   5
ATOM      5  N   UNL     1      -1.251   1.620  -0.390  0.00  0.00    -0.245 N 
ATOM      6  H   UNL     1      -1.266   2.550  -0.665  0.00  0.00    +0.172 HD
BRANCH   5   7
ATOM      7  C   UNL     1      -2.394   0.905  -0.370  0.00  0.00    +0.151 C 
ATOM      8  S   UNL     1      -3.871   1.639  -0.828  0.00  0.00    -0.017 S 
BRANCH   7   9
ATOM      9  N   UNL     1      -2.373  -0.388   0.011  0.00  0.00    -0.296 N 
ATOM     10  H   UNL     1      -1.529  -0.821   0.211  0.00  0.00    +0.154 HD
BRANCH   9  14
ATOM     11  C   UNL     1      -5.937  -2.522   0.331  0.00  0.00    -0.045 A 
ATOM     12  C   UNL     1      -5.705  -1.728  -0.778  0.00  0.00    +0.006 A 
ATOM     13  C   UNL     1      -4.524  -1.019  -0.887  0.00  0.00    +0.023 A 
ATOM     14  C   UNL     1      -3.570  -1.104   0.119  0.00  0.00    +0.033 A 
ATOM     15  C   UNL     1      -3.804  -1.906   1.228  0.00  0.00    +0.023 A 
ATOM     16  C   UNL     1      -4.989  -2.608   1.333  0.00  0.00    +0.006 A 
BRANCH  11  18
ATOM     17  C   UNL     1      -6.919  -4.789   0.537  0.00  0.00    +0.012 C 
ATOM     18  C   UNL     1      -7.226  -3.293   0.446  0.00  0.00    +0.013 C 
ATOM     19  C   UNL     1      -7.975  -2.849   1.704  0.00  0.00    +0.012 C 
ENDBRANCH  11  18
ENDBRANCH   9  14
ENDBRANCH   7   9
ENDBRANCH   5   7
ENDBRANCH   1   5
BRANCH   2  20
ATOM     20  C   UNL     1       2.324   1.123   0.333  0.00  0.00    +0.071 C 
ATOM     21  C   UNL     1       3.472   1.838   0.307  0.00  0.00    +0.033 C 
BRANCH  21  22
ATOM     22  C   UNL     1       4.738   1.208   0.694  0.00  0.00    +0.073 A 
ATOM     23  C   UNL     1       5.913   1.925   0.672  0.00  0.00    +0.076 A 
ATOM     24  S   UNL     1       7.073   0.681   1.222  0.00  0.00    -0.059 S 
ATOM     25  C   UNL     1       5.900  -0.651   1.424  0.00  0.00    +0.172 A 
ATOM     26  N   UNL     1       4.770  -0.069   1.079  0.00  0.00    -0.225 NA
ATOM     27  N   UNL     1       6.121  -1.958   1.843  0.00  0.00    -0.216 N 
ATOM     28  C   UNL     1       5.089  -2.821   1.931  0.00  0.00    +0.223 C 
ATOM     29  O   UNL     1       3.968  -2.457   1.645  0.00  0.00    -0.275 OA
ATOM     30  C   UNL     1       5.329  -4.238   2.385  0.00  0.00    +0.110 C 
BRANCH  27  31
ATOM     31  C   UNL     1       7.416  -2.378   2.174  0.00  0.00    +0.078 A 
ATOM     32  C   UNL     1       7.877  -2.253   3.477  0.00  0.00    +0.027 A 
ATOM     33  C   UNL     1       9.154  -2.668   3.801  0.00  0.00    +0.002 A 
ATOM     34  C   UNL     1       9.975  -3.210   2.828  0.00  0.00    +0.003 A 
ATOM     35  C   UNL     1       9.521  -3.337   1.528  0.00  0.00    +0.040 A 
ATOM     36  C   UNL     1       8.241  -2.927   1.198  0.00  0.00    +0.145 A 
ATOM     37  F   UNL     1       7.795  -3.056  -0.070  0.00  0.00    -0.204 F 
ENDBRANCH  27  31
ENDBRANCH  21  22
ENDBRANCH   2  20
TORSDOF 8
