REMARK  Name = ZINC30982616
REMARK  6 active torsions:
REMARK  status: ('A' for Active; 'I' for Inactive)
REMARK    1  A    between atoms: C_1  and  C_2
REMARK    2  A    between atoms: C_7  and  N_8
REMARK    3  A    between atoms: C_14  and  C_16
REMARK    4  A    between atoms: N_19  and  C_22
REMARK    5  A    between atoms: C_22  and  C_23
REMARK    6  A    between atoms: C_25  and  C_28
REMARK                            x       y       z     vdW  Elec       q    Type
REMARK                         _______ _______ _______ _____ _____    ______ ____
ROOT
ATOM      1  C   UNL     1       4.701   8.030   1.390  0.00  0.00    +0.072 C 
ATOM      2  C   UNL     1       3.387   7.963   2.172  0.00  0.00    -0.006 C 
ATOM      3  C   UNL     1       3.542   8.730   3.488  0.00  0.00    -0.077 C 
ATOM      4  N   UNL     1       3.892  10.127   3.203  0.00  0.00    +0.386 N 
ATOM      5  C   UNL     1       5.174  10.219   2.494  0.00  0.00    -0.077 C 
ATOM      6  C   UNL     1       5.068   9.497   1.149  0.00  0.00    -0.006 C 
ATOM      7  H   UNL     1       3.114  10.540   2.544  0.00  0.00    -0.081 HD
ENDROOT
BRANCH   1  14
ATOM      8  N   UNL     1       5.854   3.500  -0.394  0.00  0.00    -0.327 N 
ATOM      9  C   UNL     1       5.601   4.361  -1.557  0.00  0.00    +0.124 C 
ATOM     10  C   UNL     1       4.405   5.272  -1.264  0.00  0.00    +0.126 C 
ATOM     11  N   UNL     1       4.660   5.987  -0.004  0.00  0.00    -0.298 N 
ATOM     12  C   UNL     1       5.054   5.202   1.175  0.00  0.00    +0.126 C 
ATOM     13  C   UNL     1       6.225   4.293   0.785  0.00  0.00    +0.124 C 
ATOM     14  C   UNL     1       4.536   7.327   0.067  0.00  0.00    +0.219 C 
ATOM     15  O   UNL     1       4.292   7.968  -0.933  0.00  0.00    -0.275 OA
BRANCH   8  22
ATOM     16  C   UNL     1       5.096   0.758  -0.367  0.00  0.00    +0.045 C 
ATOM     17  C   UNL     1       6.505   1.194  -0.680  0.00  0.00    -0.029 A 
ATOM     18  C   UNL     1       7.472   0.250  -0.965  0.00  0.00    +0.006 A 
ATOM     19  C   UNL     1       8.766   0.647  -1.247  0.00  0.00    +0.020 A 
ATOM     20  C   UNL     1       9.094   1.992  -1.254  0.00  0.00    +0.043 A 
ATOM     21  C   UNL     1       8.130   2.941  -0.970  0.00  0.00    +0.043 A 
ATOM     22  C   UNL     1       6.831   2.544  -0.681  0.00  0.00    +0.034 A 
ATOM     23 CL   UNL     1      10.719   2.487  -1.614  0.00  0.00    -0.083 Cl
ENDBRANCH   8  22
ENDBRANCH   1  14
BRANCH   4  24
ATOM     24  C   UNL     1       3.913  10.926   4.435  0.00  0.00    +0.022 C 
BRANCH  24  25
ATOM     25  C   UNL     1       2.520  11.009   5.005  0.00  0.00    +0.211 A 
ATOM     26  N   UNL     1       1.980  10.179   5.861  0.00  0.00    -0.193 NA
ATOM     27  C   UNL     1       0.731  10.647   6.082  0.00  0.00    +0.202 A 
ATOM     28  N   UNL     1       0.588  11.724   5.354  0.00  0.00    -0.056 NA
ATOM     29  O   UNL     1       1.607  11.947   4.735  0.00  0.00    -0.340 OA
BRANCH  27  30
ATOM     30  C   UNL     1      -0.288  10.051   6.982  0.00  0.00    +0.023 A 
ATOM     31  C   UNL     1       0.005   8.891   7.696  0.00  0.00    +0.014 A 
ATOM     32  C   UNL     1      -0.943   8.342   8.535  0.00  0.00    +0.039 A 
ATOM     33  C   UNL     1      -2.188   8.938   8.661  0.00  0.00    +0.123 A 
ATOM     34  C   UNL     1      -2.485  10.089   7.949  0.00  0.00    +0.039 A 
ATOM     35  C   UNL     1      -1.541  10.647   7.111  0.00  0.00    +0.014 A 
ATOM     36  F   UNL     1      -3.115   8.395   9.480  0.00  0.00    -0.205 F 
ENDBRANCH  27  30
ENDBRANCH  24  25
ENDBRANCH   4  24
TORSDOF 5
