REMARK  Name = ZINC21257864
REMARK  7 active torsions:
REMARK  status: ('A' for Active; 'I' for Inactive)
REMARK    1  A    between atoms: C_1  and  C_2
REMARK    2  A    between atoms: C_2  and  O_3
REMARK    3  A    between atoms: O_3  and  C_4
REMARK    4  A    between atoms: C_7  and  C_10
REMARK    5  A    between atoms: C_15  and  C_21
REMARK    6  A    between atoms: C_24  and  O_28
REMARK    7  A    between atoms: O_28  and  C_29
REMARK                            x       y       z     vdW  Elec       q    Type
REMARK                         _______ _______ _______ _____ _____    ______ ____
ROOT
ATOM      1  C   UNL     1       3.641   1.517   0.251  0.00  0.00    +0.032 C 
ATOM      2  C   UNL     1       2.420   0.952  -0.478  0.00  0.00    +0.059 C 
ATOM      3  C   UNL     1       1.174   1.656  -0.000  0.00  0.00    +0.018 C 
ATOM      4  C   UNL     1       1.220   2.941   0.410  0.00  0.00    +0.020 C 
ATOM      5  C   UNL     1      -0.042   3.628   0.875  0.00  0.00    +0.063 C 
ATOM      6  C   UNL     1      -1.230   3.116   0.059  0.00  0.00    +0.109 C 
ATOM      7  C   UNL     1      -1.191   1.610   0.017  0.00  0.00    +0.218 C 
ATOM      8  O   UNL     1      -2.225   0.979  -0.005  0.00  0.00    -0.275 OA
ATOM      9  N   UNL     1      -0.011   0.966   0.007  0.00  0.00    -0.289 N 
ATOM     10  C   UNL     1       2.425   3.663   0.418  0.00  0.00    +0.162 C 
ATOM     11  O   UNL     1       2.425   4.822   0.783  0.00  0.00    -0.292 OA
ATOM     12  C   UNL     1       3.716   3.024  -0.017  0.00  0.00    +0.088 C 
ATOM     13  H   UNL     1      -0.007  -0.134   0.006  0.00  0.00    +0.155 HD
ENDROOT
BRANCH   5  14
ATOM     14  C   UNL     1      -0.268   3.328   2.335  0.00  0.00    -0.038 A 
ATOM     15  C   UNL     1      -0.319   4.362   3.252  0.00  0.00    +0.008 A 
ATOM     16  C   UNL     1      -0.527   4.090   4.590  0.00  0.00    +0.047 A 
ATOM     17  C   UNL     1      -0.685   2.779   5.014  0.00  0.00    +0.134 A 
ATOM     18  C   UNL     1      -0.634   1.743   4.092  0.00  0.00    +0.060 A 
ATOM     19  C   UNL     1      -0.431   2.021   2.753  0.00  0.00    +0.023 A 
ATOM     20 BR   UNL     1      -0.850  -0.046   4.666  0.00  0.00    -0.047 Br
BRANCH  17  21
ATOM     21  O   UNL     1      -0.890   2.509   6.331  0.00  0.00    -0.494 OA
ATOM     22  C   UNL     1      -0.931   3.625   7.223  0.00  0.00    +0.277 C 
ENDBRANCH  17  21
ENDBRANCH   5  14
BRANCH   1  26
ATOM     23  C   UNL     1       7.185  -0.378  -1.202  0.00  0.00    +0.121 A 
ATOM     24  C   UNL     1       6.855  -0.460   0.143  0.00  0.00    +0.046 A 
ATOM     25  C   UNL     1       5.708   0.154   0.611  0.00  0.00    +0.007 A 
ATOM     26  C   UNL     1       4.891   0.849  -0.261  0.00  0.00    -0.043 A 
ATOM     27  C   UNL     1       5.215   0.927  -1.603  0.00  0.00    +0.007 A 
ATOM     28  C   UNL     1       6.363   0.320  -2.074  0.00  0.00    +0.046 A 
BRANCH  23  29
ATOM     29  O   UNL     1       8.312  -0.980  -1.664  0.00  0.00    -0.492 OA
BRANCH  29  31
ATOM     30  C   UNL     1       9.888  -1.591  -3.390  0.00  0.00    +0.048 C 
ATOM     31  C   UNL     1       8.589  -0.854  -3.060  0.00  0.00    +0.225 C 
ENDBRANCH  29  31
ENDBRANCH  23  29
ENDBRANCH   1  26
TORSDOF 5
