REMARK  Name = ZINC05569113
REMARK  2 active torsions:
REMARK  status: ('A' for Active; 'I' for Inactive)
REMARK    1  A    between atoms: C_3  and  C_10
REMARK    2  A    between atoms: C_5  and  N_7
REMARK                            x       y       z     vdW  Elec       q    Type
REMARK                         _______ _______ _______ _____ _____    ______ ____
ROOT
ATOM      1  C   UNL     1       2.352   5.277   0.453  0.00  0.00    +0.105 C 
ATOM      2  C   UNL     1       1.468   6.313  -0.247  0.00  0.00    +0.029 C 
ATOM      3  C   UNL     1       1.597   7.646   0.546  0.00  0.00    +0.033 C 
ATOM      4  C   UNL     1       0.619   7.470   1.691  0.00  0.00    -0.030 C 
ATOM      5  C   UNL     1      -0.277   6.561   1.394  0.00  0.00    -0.023 C 
ATOM      6  C   UNL     1      -0.018   6.002   0.015  0.00  0.00    +0.049 C 
ATOM      7  C   UNL     1      -0.330   4.541  -0.050  0.00  0.00    -0.017 A 
ATOM      8  C   UNL     1      -1.661   4.145  -0.075  0.00  0.00    +0.044 A 
ATOM      9  C   UNL     1      -1.993   2.805  -0.143  0.00  0.00    +0.124 A 
ATOM     10  C   UNL     1      -1.000   1.841  -0.177  0.00  0.00    +0.040 A 
ATOM     11  C   UNL     1       0.326   2.224  -0.151  0.00  0.00    +0.026 A 
ATOM     12  C   UNL     1       0.660   3.571  -0.086  0.00  0.00    +0.032 A 
ATOM     13  N   UNL     1       2.010   3.943  -0.053  0.00  0.00    -0.336 N 
ATOM     14  F   UNL     1      -3.292   2.435  -0.173  0.00  0.00    -0.205 F 
ATOM     15  H   UNL     1       2.701   3.335  -0.358  0.00  0.00    +0.147 HD
ENDROOT
BRANCH   1  18
ATOM     16  C   UNL     1       2.661   6.205   4.100  0.00  0.00    +0.003 A 
ATOM     17  C   UNL     1       2.884   6.154   2.736  0.00  0.00    +0.005 A 
ATOM     18  C   UNL     1       2.112   5.328   1.940  0.00  0.00    -0.025 A 
ATOM     19  C   UNL     1       1.125   4.545   2.509  0.00  0.00    +0.038 A 
ATOM     20  C   UNL     1       0.906   4.592   3.873  0.00  0.00    +0.127 A 
ATOM     21  C   UNL     1       1.674   5.422   4.668  0.00  0.00    +0.033 A 
BRANCH  20  22
ATOM     22  N   UNL     1      -0.151   3.754   4.482  0.00  0.00    +0.056 N 
ATOM     23  O   UNL     1      -0.827   3.022   3.782  0.00  0.00    -0.126 OA
ATOM     24  O   UNL     1      -0.344   3.796   5.684  0.00  0.00    -0.126 OA
ENDBRANCH  20  22
ENDBRANCH   1  18
TORSDOF 2
