REMARK  Name = ZINC39966280
REMARK  9 active torsions:
REMARK  status: ('A' for Active; 'I' for Inactive)
REMARK    1  A    between atoms: C_1  and  C_2
REMARK    2  A    between atoms: C_2  and  C_3
REMARK    3  A    between atoms: C_10  and  N_14
REMARK    4  A    between atoms: C_11  and  C_12
REMARK    5  A    between atoms: C_15  and  C_17
REMARK    6  A    between atoms: C_17  and  S_18
REMARK    7  A    between atoms: S_18  and  C_19
REMARK    8  A    between atoms: C_22  and  C_25
REMARK    9  A    between atoms: N_23  and  C_24
REMARK                            x       y       z     vdW  Elec       q    Type
REMARK                         _______ _______ _______ _____ _____    ______ ____
ROOT
ATOM      1  C   UNL     1       0.904  -1.651  -9.808  0.00  0.00    +0.173 C 
ENDROOT
BRANCH   1   3
ATOM      2  N   UNL     1       1.291  -2.083  -7.403  0.00  0.00    -0.278 N 
ATOM      3  C   UNL     1       0.617  -1.400  -8.350  0.00  0.00    +0.228 C 
ATOM      4  O   UNL     1      -0.220  -0.583  -8.028  0.00  0.00    -0.275 OA
ATOM      5  H   UNL     1       1.960  -2.736  -7.660  0.00  0.00    +0.155 HD
BRANCH   2  12
ATOM      6  C   UNL     1       0.358  -0.757  -1.245  0.00  0.00    -0.006 C 
ATOM      7  C   UNL     1       0.685  -2.253  -1.224  0.00  0.00    +0.008 C 
ATOM      8  C   UNL     1       1.688  -2.582  -2.332  0.00  0.00    +0.037 C 
ATOM      9  C   UNL     1       1.158  -2.032  -3.648  0.00  0.00    -0.018 A 
ATOM     10  C   UNL     1       0.196  -1.084  -3.676  0.00  0.00    -0.004 A 
ATOM     11  S   UNL     1      -0.080  -0.776  -5.396  0.00  0.00    -0.077 S 
ATOM     12  C   UNL     1       1.027  -1.851  -6.060  0.00  0.00    +0.090 A 
ATOM     13  C   UNL     1       1.615  -2.454  -4.960  0.00  0.00    +0.084 A 
ATOM     14  C   UNL     1      -0.473  -0.445  -2.498  0.00  0.00    +0.046 C 
BRANCH   6  16
ATOM     15  C   UNL     1      -0.667   1.123   0.043  0.00  0.00    +0.004 C 
ATOM     16  C   UNL     1      -0.444  -0.390   0.006  0.00  0.00    +0.000 C 
ENDBRANCH   6  16
BRANCH  13  17
ATOM     17  C   UNL     1       2.632  -3.450  -5.111  0.00  0.00    +0.102 C 
ATOM     18  N   UNL     1       3.439  -4.241  -5.231  0.00  0.00    -0.191 NA
ENDBRANCH  13  17
ENDBRANCH   2  12
ENDBRANCH   1   3
BRANCH   1  19
ATOM     19  S   UNL     1      -0.155  -0.586 -10.825  0.00  0.00    -0.077 S 
BRANCH  19  20
ATOM     20  C   UNL     1       0.294  -0.994 -12.479  0.00  0.00    +0.192 A 
ATOM     21  N   UNL     1       1.192  -1.877 -12.847  0.00  0.00    -0.122 NA
ATOM     22  N   UNL     1       1.268  -1.923 -14.129  0.00  0.00    -0.128 NA
ATOM     23  C   UNL     1       0.423  -1.069 -14.659  0.00  0.00    +0.165 A 
ATOM     24  N   UNL     1      -0.232  -0.452 -13.620  0.00  0.00    -0.305 N 
ATOM     25  C   UNL     1      -1.273   0.575 -13.714  0.00  0.00    +0.153 C 
BRANCH  23  26
ATOM     26  C   UNL     1       0.210  -0.824 -16.102  0.00  0.00    +0.030 A 
ATOM     27  C   UNL     1       0.183   0.453 -16.583  0.00  0.00    +0.057 A 
ATOM     28  S   UNL     1      -0.093   0.181 -18.326  0.00  0.00    -0.101 S 
ATOM     29  C   UNL     1      -0.144  -1.592 -18.293  0.00  0.00    -0.006 A 
ATOM     30  C   UNL     1       0.041  -1.907 -16.988  0.00  0.00    -0.026 A 
ATOM     31  C   UNL     1       0.047  -3.352 -16.496  0.00  0.00    +0.036 C 
ATOM     32  C   UNL     1       0.481  -4.282 -17.622  0.00  0.00    +0.005 C 
ATOM     33  C   UNL     1      -0.726  -4.748 -18.433  0.00  0.00    +0.001 C 
ATOM     34  C   UNL     1      -1.402  -3.554 -19.100  0.00  0.00    +0.005 C 
ATOM     35  C   UNL     1      -0.333  -2.521 -19.449  0.00  0.00    +0.043 C 
ENDBRANCH  23  26
ENDBRANCH  19  20
ENDBRANCH   1  19
TORSDOF 7
