REMARK  Name = ZINC11163357
REMARK  8 active torsions:
REMARK  status: ('A' for Active; 'I' for Inactive)
REMARK    1  A    between atoms: C_1  and  C_2
REMARK    2  A    between atoms: C_2  and  N_3
REMARK    3  A    between atoms: N_14  and  N_15
REMARK    4  A    between atoms: C_16  and  C_18
REMARK    5  A    between atoms: C_18  and  C_19
REMARK    6  A    between atoms: C_19  and  C_20
REMARK    7  A    between atoms: C_21  and  C_32
REMARK    8  A    between atoms: C_25  and  C_31
REMARK                            x       y       z     vdW  Elec       q    Type
REMARK                         _______ _______ _______ _____ _____    ______ ____
ROOT
ATOM      1  N   UNL     1      -2.581   1.270   4.870  0.00  0.00    -0.234 N 
ATOM      2  C   UNL     1      -1.415   0.964   4.268  0.00  0.00    +0.229 C 
ATOM      3  O   UNL     1      -0.364   1.269   4.790  0.00  0.00    -0.274 OA
ATOM      4  H   UNL     1      -3.421   1.026   4.452  0.00  0.00    +0.173 HD
ENDROOT
BRANCH   1  16
ATOM      5  N   UNL     1      -3.727   2.906   7.911  0.00  0.00    -0.280 N 
ATOM      6  C   UNL     1      -4.872   3.239   8.550  0.00  0.00    +0.263 A 
ATOM      7  O   UNL     1      -4.852   3.822   9.618  0.00  0.00    -0.267 OA
ATOM      8  C   UNL     1      -6.141   2.865   7.910  0.00  0.00    +0.065 A 
ATOM      9  C   UNL     1      -7.374   3.157   8.491  0.00  0.00    +0.015 A 
ATOM     10  C   UNL     1      -8.525   2.786   7.852  0.00  0.00    +0.001 A 
ATOM     11  C   UNL     1      -8.477   2.121   6.634  0.00  0.00    +0.002 A 
ATOM     12  C   UNL     1      -7.282   1.821   6.042  0.00  0.00    +0.028 A 
ATOM     13  C   UNL     1      -6.089   2.188   6.670  0.00  0.00    +0.080 A 
ATOM     14  N   UNL     1      -4.883   1.911   6.121  0.00  0.00    -0.214 NA
ATOM     15  C   UNL     1      -3.766   2.255   6.712  0.00  0.00    +0.216 A 
ATOM     16  N   UNL     1      -2.579   1.943   6.099  0.00  0.00    -0.234 N 
ATOM     17  H   UNL     1      -1.738   2.187   6.516  0.00  0.00    +0.173 HD
BRANCH   5  19
ATOM     18  C   UNL     1      -2.006   4.639   8.030  0.00  0.00    +0.027 C 
ATOM     19  C   UNL     1      -2.435   3.250   8.508  0.00  0.00    +0.125 C 
ENDBRANCH   5  19
ENDBRANCH   1  16
BRANCH   2  20
ATOM     20  C   UNL     1      -1.417   0.240   2.945  0.00  0.00    +0.102 C 
BRANCH  20  21
ATOM     21  C   UNL     1       0.025   0.016   2.485  0.00  0.00    +0.052 C 
BRANCH  21  22
ATOM     22  C   UNL     1       0.023  -0.707   1.162  0.00  0.00    +0.041 A 
ATOM     23  C   UNL     1       0.002  -0.004   0.002  0.00  0.00    -0.030 A 
ATOM     24  C   UNL     1      -0.006  -0.750  -1.260  0.00  0.00    +0.021 A 
ATOM     25  C   UNL     1      -0.021  -0.087  -2.490  0.00  0.00    +0.012 A 
ATOM     26  C   UNL     1      -0.021  -0.809  -3.650  0.00  0.00    +0.004 A 
ATOM     27  C   UNL     1      -0.002  -2.196  -3.616  0.00  0.00    -0.047 A 
ATOM     28  C   UNL     1       0.018  -2.870  -2.412  0.00  0.00    +0.050 A 
ATOM     29  C   UNL     1       0.020  -2.155  -1.221  0.00  0.00    +0.140 A 
ATOM     30  O   UNL     1       0.040  -2.795  -0.032  0.00  0.00    -0.422 OA
ATOM     31  C   UNL     1       0.042  -2.119   1.127  0.00  0.00    +0.341 A 
ATOM     32  O   UNL     1       0.059  -2.738   2.175  0.00  0.00    -0.245 OA
ATOM     33  C   UNL     1      -0.004  -2.975  -4.906  0.00  0.00    +0.044 C 
ATOM     34  C   UNL     1      -0.018   1.503   0.010  0.00  0.00    +0.045 C 
ENDBRANCH  21  22
ENDBRANCH  20  21
ENDBRANCH   2  20
TORSDOF 5
