REMARK  Name = ZINC14016796
REMARK  13 active torsions:
REMARK  status: ('A' for Active; 'I' for Inactive)
REMARK    1  A    between atoms: C_1  and  C_2
REMARK    2  A    between atoms: C_2  and  O_3
REMARK    3  A    between atoms: O_3  and  C_4
REMARK    4  A    between atoms: C_4  and  C_6
REMARK    5  A    between atoms: C_7  and  C_36
REMARK    6  A    between atoms: C_8  and  C_31
REMARK    7  A    between atoms: C_10  and  N_11
REMARK    8  A    between atoms: C_12  and  C_14
REMARK    9  A    between atoms: N_19  and  S_21
REMARK   10  A    between atoms: S_21  and  C_24
REMARK   11  A    between atoms: C_31  and  O_33
REMARK   12  A    between atoms: O_33  and  C_34
REMARK   13  A    between atoms: C_34  and  C_35
REMARK                            x       y       z     vdW  Elec       q    Type
REMARK                         _______ _______ _______ _____ _____    ______ ____
ROOT
ATOM      1  N   UNL     1       3.745  -2.409  -1.512  0.00  0.00    -0.279 N 
ATOM      2  C   UNL     1       5.045  -2.714  -1.698  0.00  0.00    +0.222 C 
ATOM      3  O   UNL     1       5.417  -3.161  -2.762  0.00  0.00    -0.275 OA
ATOM      4  H   UNL     1       3.448  -2.051  -0.661  0.00  0.00    +0.155 HD
ENDROOT
BRANCH   1   9
ATOM      5  C   UNL     1       1.461  -2.352  -2.538  0.00  0.00    +0.091 A 
ATOM      6  C   UNL     1       0.757  -2.629  -3.699  0.00  0.00    -0.014 A 
ATOM      7  C   UNL     1       1.457  -3.136  -4.761  0.00  0.00    +0.102 A 
ATOM      8  S   UNL     1       3.121  -3.226  -4.127  0.00  0.00    -0.066 S 
ATOM      9  C   UNL     1       2.837  -2.605  -2.534  0.00  0.00    +0.087 A 
ATOM     10  C   UNL     1      -0.727  -2.382  -3.790  0.00  0.00    +0.046 C 
BRANCH   5  11
ATOM     11  C   UNL     1       0.787  -1.807  -1.354  0.00  0.00    +0.342 C 
ATOM     12  O   UNL     1       0.323  -2.559  -0.518  0.00  0.00    -0.245 OA
BRANCH  11  13
ATOM     13  O   UNL     1       0.682  -0.472  -1.193  0.00  0.00    -0.461 OA
BRANCH  13  15
ATOM     14  C   UNL     1      -0.019   1.526   0.010  0.00  0.00    +0.048 C 
ATOM     15  C   UNL     1       0.002  -0.004   0.002  0.00  0.00    +0.229 C 
ENDBRANCH  13  15
ENDBRANCH  11  13
ENDBRANCH   5  11
BRANCH   7  16
ATOM     16  C   UNL     1       0.963  -3.510  -6.086  0.00  0.00    +0.346 C 
ATOM     17  O   UNL     1      -0.216  -3.383  -6.353  0.00  0.00    -0.244 OA
BRANCH  16  18
ATOM     18  O   UNL     1       1.816  -3.998  -7.011  0.00  0.00    -0.461 OA
BRANCH  18  19
ATOM     19  C   UNL     1       1.265  -4.343  -8.283  0.00  0.00    +0.229 C 
ATOM     20  C   UNL     1       2.375  -4.873  -9.193  0.00  0.00    +0.048 C 
ENDBRANCH  18  19
ENDBRANCH  16  18
ENDBRANCH   7  16
ENDBRANCH   1   9
BRANCH   2  21
ATOM     21  C   UNL     1       6.036  -2.501  -0.583  0.00  0.00    +0.091 C 
ATOM     22  C   UNL     1       6.060  -1.020  -0.198  0.00  0.00    +0.015 C 
ATOM     23  C   UNL     1       7.042  -0.807   0.957  0.00  0.00    +0.018 C 
ATOM     24  C   UNL     1       8.449  -1.212   0.506  0.00  0.00    +0.109 C 
ATOM     25  N   UNL     1       8.405  -2.589  -0.003  0.00  0.00    -0.176 NA
ATOM     26  C   UNL     1       7.432  -2.924  -1.052  0.00  0.00    +0.122 C 
BRANCH  25  27
ATOM     27  S   UNL     1       9.432  -3.743   0.595  0.00  0.00    +0.061 S 
ATOM     28  O   UNL     1       9.814  -3.312   1.894  0.00  0.00    -0.153 OA
ATOM     29  O   UNL     1       8.812  -5.000   0.360  0.00  0.00    -0.153 OA
BRANCH  27  30
ATOM     30  C   UNL     1      10.889  -3.706  -0.396  0.00  0.00    +0.106 A 
ATOM     31  C   UNL     1      10.980  -4.507  -1.519  0.00  0.00    +0.031 A 
ATOM     32  C   UNL     1      12.120  -4.476  -2.299  0.00  0.00    +0.040 A 
ATOM     33  C   UNL     1      13.175  -3.650  -1.950  0.00  0.00    +0.124 A 
ATOM     34  C   UNL     1      13.084  -2.852  -0.823  0.00  0.00    +0.040 A 
ATOM     35  C   UNL     1      11.941  -2.881  -0.046  0.00  0.00    +0.031 A 
ATOM     36  F   UNL     1      14.292  -3.622  -2.710  0.00  0.00    -0.205 F 
ENDBRANCH  27  30
ENDBRANCH  25  27
ENDBRANCH   2  21
TORSDOF 10
