REMARK  Name = ZINC13033674
REMARK  12 active torsions:
REMARK  status: ('A' for Active; 'I' for Inactive)
REMARK    1  A    between atoms: C_1  and  C_2
REMARK    2  A    between atoms: C_2  and  C_3
REMARK    3  A    between atoms: C_3  and  N_4
REMARK    4  A    between atoms: N_4  and  C_5
REMARK    5  A    between atoms: C_13  and  C_15
REMARK    6  A    between atoms: C_15  and  S_16
REMARK    7  A    between atoms: S_16  and  C_17
REMARK    8  A    between atoms: C_20  and  C_26
REMARK    9  A    between atoms: N_21  and  C_22
REMARK   10  A    between atoms: C_22  and  C_23
REMARK   11  A    between atoms: C_23  and  C_24
REMARK   12  A    between atoms: C_29  and  C_32
REMARK                            x       y       z     vdW  Elec       q    Type
REMARK                         _______ _______ _______ _____ _____    ______ ____
ROOT
ATOM      1  C   UNL     1      -0.380  -3.487  -5.057  0.00  0.00    +0.192 A 
ATOM      2  N   UNL     1       0.132  -2.965  -6.149  0.00  0.00    -0.122 NA
ATOM      3  N   UNL     1       0.274  -3.873  -7.047  0.00  0.00    -0.128 NA
ATOM      4  C   UNL     1      -0.147  -5.028  -6.587  0.00  0.00    +0.165 A 
ATOM      5  N   UNL     1      -0.579  -4.816  -5.298  0.00  0.00    -0.302 N 
ENDROOT
BRANCH   4   6
ATOM      6  C   UNL     1      -0.156  -6.314  -7.316  0.00  0.00    +0.019 A 
ATOM      7  C   UNL     1       0.647  -6.486  -8.445  0.00  0.00    +0.012 A 
ATOM      8  C   UNL     1       0.637  -7.690  -9.118  0.00  0.00    +0.004 A 
ATOM      9  C   UNL     1      -0.174  -8.723  -8.683  0.00  0.00    -0.050 A 
ATOM     10  C   UNL     1      -0.976  -8.558  -7.567  0.00  0.00    +0.004 A 
ATOM     11  C   UNL     1      -0.972  -7.360  -6.882  0.00  0.00    +0.012 A 
ATOM     12  C   UNL     1      -0.184 -10.033  -9.427  0.00  0.00    +0.044 C 
ENDBRANCH   4   6
BRANCH   1  13
ATOM     13  S   UNL     1      -0.748  -2.629  -3.562  0.00  0.00    -0.077 S 
BRANCH  13  14
ATOM     14  C   UNL     1      -0.217  -0.960  -4.019  0.00  0.00    +0.173 C 
BRANCH  14  16
ATOM     15  N   UNL     1      -0.121   1.278  -2.970  0.00  0.00    -0.296 N 
ATOM     16  C   UNL     1      -0.445  -0.025  -2.859  0.00  0.00    +0.226 C 
ATOM     17  O   UNL     1      -0.919  -0.447  -1.825  0.00  0.00    -0.275 OA
BRANCH  15  18
ATOM     18  C   UNL     1      -0.342   2.187  -1.842  0.00  0.00    +0.098 C 
ATOM     19  C   UNL     1      -1.831   2.184  -1.458  0.00  0.00    +0.046 C 
ATOM     20  C   UNL     1      -2.023   2.877  -0.087  0.00  0.00    +0.168 C 
ATOM     21  S   UNL     1      -0.411   2.575   0.749  0.00  0.00    -0.029 S 
ATOM     22  O   UNL     1      -0.611   1.670   1.825  0.00  0.00    -0.174 OA
ATOM     23  O   UNL     1       0.225   3.822   0.992  0.00  0.00    -0.174 OA
ATOM     24  C   UNL     1       0.477   1.704  -0.610  0.00  0.00    +0.188 C 
ENDBRANCH  15  18
BRANCH  15  25
ATOM     25  C   UNL     1       0.452   1.787  -4.218  0.00  0.00    +0.108 C 
BRANCH  25  27
ATOM     26  C   UNL     1       2.576   2.207  -5.466  0.00  0.00    +0.005 C 
ATOM     27  C   UNL     1       1.977   1.676  -4.162  0.00  0.00    +0.016 C 
ENDBRANCH  25  27
ENDBRANCH  15  25
ENDBRANCH  14  16
ENDBRANCH  13  14
ENDBRANCH   1  13
BRANCH   5  28
ATOM     28  C   UNL     1      -1.137  -5.809  -4.377  0.00  0.00    +0.137 C 
BRANCH  28  29
ATOM     29  C   UNL     1      -2.663  -5.802  -4.482  0.00  0.00    +0.147 C 
BRANCH  29  30
ATOM     30  C   UNL     1      -3.237  -6.823  -3.534  0.00  0.00    +0.358 C 
ATOM     31  O   UNL     1      -2.501  -7.489  -2.845  0.00  0.00    -0.246 OA
ATOM     32  O   UNL     1      -4.566  -6.994  -3.455  0.00  0.00    -0.246 OA
ENDBRANCH  29  30
ENDBRANCH  28  29
ENDBRANCH   5  28
TORSDOF 10
