REMARK  Name = ZINC03281353
REMARK  13 active torsions:
REMARK  status: ('A' for Active; 'I' for Inactive)
REMARK    1  A    between atoms: C_1  and  C_2
REMARK    2  A    between atoms: C_2  and  O_3
REMARK    3  A    between atoms: O_3  and  C_4
REMARK    4  A    between atoms: C_4  and  C_6
REMARK    5  A    between atoms: C_10  and  N_11
REMARK    6  A    between atoms: N_11  and  C_12
REMARK    7  A    between atoms: C_12  and  N_14
REMARK    8  A    between atoms: C_15  and  C_17
REMARK    9  A    between atoms: C_17  and  C_18
REMARK   10  A    between atoms: C_17  and  C_19
REMARK   11  A    between atoms: C_17  and  C_20
REMARK   12  A    between atoms: C_24  and  C_25
REMARK   13  A    between atoms: C_24  and  N_60
REMARK                            x       y       z     vdW  Elec       q    Type
REMARK                         _______ _______ _______ _____ _____    ______ ____
ROOT
ATOM      1  C   UNL     1       3.766   5.680  -5.249  0.00  0.00    +0.091 A 
ATOM      2  C   UNL     1       3.535   5.293  -3.869  0.00  0.00    -0.025 A 
ATOM      3  C   UNL     1       2.241   5.092  -3.535  0.00  0.00    -0.021 A 
ATOM      4  S   UNL     1       1.335   5.411  -5.020  0.00  0.00    -0.079 S 
ATOM      5  C   UNL     1       2.654   5.804  -6.073  0.00  0.00    +0.086 A 
ATOM      6  C   UNL     1       1.723   4.687  -2.190  0.00  0.00    -0.035 C 
ATOM      7  C   UNL     1       3.982   5.141  -1.440  0.00  0.00    -0.073 C 
ATOM      8  C   UNL     1       4.632   5.111  -2.826  0.00  0.00    +0.018 C 
ATOM      9  N   UNL     1       2.867   4.171  -1.400  0.00  0.00    +0.386 N 
ATOM     10  H   UNL     1       3.182   3.283  -1.808  0.00  0.00    -0.081 HD
ENDROOT
BRANCH   1  11
ATOM     11  C   UNL     1       5.118   5.930  -5.752  0.00  0.00    +0.342 C 
ATOM     12  O   UNL     1       5.767   5.019  -6.231  0.00  0.00    -0.245 OA
BRANCH  11  13
ATOM     13  O   UNL     1       5.644   7.170  -5.684  0.00  0.00    -0.461 OA
BRANCH  13  15
ATOM     14  C   UNL     1       7.413   8.806  -6.041  0.00  0.00    +0.048 C 
ATOM     15  C   UNL     1       6.989   7.345  -6.202  0.00  0.00    +0.229 C 
ENDBRANCH  13  15
ENDBRANCH  11  13
ENDBRANCH   1  11
BRANCH   5  16
ATOM     16  N   UNL     1       2.611   6.158  -7.412  0.00  0.00    -0.290 N 
ATOM     17  H   UNL     1       3.432   6.355  -7.888  0.00  0.00    +0.154 HD
BRANCH  16  18
ATOM     18  C   UNL     1       1.427   6.227  -8.052  0.00  0.00    +0.141 C 
ATOM     19  S   UNL     1      -0.023   5.878  -7.212  0.00  0.00    -0.018 S 
BRANCH  18  20
ATOM     20  N   UNL     1       1.385   6.571  -9.355  0.00  0.00    -0.267 N 
ATOM     21  C   UNL     1       0.201   6.641  -9.995  0.00  0.00    +0.224 C 
ATOM     22  O   UNL     1      -0.826   6.394  -9.400  0.00  0.00    -0.275 OA
ATOM     23  H   UNL     1       2.206   6.769  -9.831  0.00  0.00    +0.157 HD
BRANCH  21  24
ATOM     24  C   UNL     1       0.154   7.025 -11.452  0.00  0.00    +0.039 C 
ATOM     25  C   UNL     1      -1.299   7.029 -11.931  0.00  0.00    +0.020 C 
ATOM     26  C   UNL     1       0.753   8.421 -11.630  0.00  0.00    +0.020 C 
ATOM     27  C   UNL     1       0.959   6.016 -12.272  0.00  0.00    +0.020 C 
ENDBRANCH  21  24
ENDBRANCH  18  20
ENDBRANCH  16  18
ENDBRANCH   5  16
BRANCH   9  28
ATOM     28  C   UNL     1       2.451   3.937  -0.001  0.00  0.00    -0.043 C 
BRANCH  28  29
ATOM     29  C   UNL     1       1.156   3.165   0.008  0.00  0.00    -0.064 A 
ATOM     30  C   UNL     1       1.175   1.783   0.000  0.00  0.00    +0.002 A 
ATOM     31  C   UNL     1      -0.013   1.076   0.008  0.00  0.00    +0.000 A 
ATOM     32  C   UNL     1      -1.219   1.751   0.017  0.00  0.00    +0.000 A 
ATOM     33  C   UNL     1      -1.238   3.133   0.030  0.00  0.00    +0.000 A 
ATOM     34  C   UNL     1      -0.050   3.840   0.023  0.00  0.00    +0.002 A 
ENDBRANCH  28  29
ENDBRANCH   9  28
TORSDOF 9
