REMARK  Name = ZINC63825007
REMARK  4 active torsions:
REMARK  status: ('A' for Active; 'I' for Inactive)
REMARK    1  A    between atoms: C_1  and  C_2
REMARK    2  A    between atoms: C_4  and  C_21
REMARK    3  A    between atoms: N_12  and  C_14
REMARK    4  A    between atoms: C_24  and  C_26
REMARK                            x       y       z     vdW  Elec       q    Type
REMARK                         _______ _______ _______ _____ _____    ______ ____
ROOT
ATOM      1  C   UNL     1      -0.104   1.430  -0.753  0.00  0.00    +0.062 C 
ATOM      2  C   UNL     1      -0.115  -0.076  -0.717  0.00  0.00    +0.022 C 
ATOM      3  C   UNL     1      -1.121  -0.793  -0.303  0.00  0.00    -0.001 C 
ATOM      4  C   UNL     1      -2.525  -0.387   0.080  0.00  0.00    +0.095 C 
ATOM      5  C   UNL     1      -3.463  -1.104  -0.903  0.00  0.00    +0.111 C 
ATOM      6  C   UNL     1      -2.987  -2.485  -1.218  0.00  0.00    +0.216 C 
ATOM      7  O   UNL     1      -3.817  -3.251  -1.660  0.00  0.00    -0.276 OA
ATOM      8  N   UNL     1      -1.755  -2.972  -1.068  0.00  0.00    -0.292 N 
ATOM      9  C   UNL     1      -0.706  -2.254  -0.355  0.00  0.00    +0.210 C 
ATOM     10  N   UNL     1       0.570  -2.231  -1.073  0.00  0.00    -0.210 N 
ATOM     11  N   UNL     1       0.942  -0.876  -1.125  0.00  0.00    -0.265 N 
ATOM     12  H   UNL     1      -1.548  -3.840  -1.449  0.00  0.00    +0.151 HD
ATOM     13  H   UNL     1       1.812  -0.549  -1.404  0.00  0.00    +0.170 HD
ENDROOT
BRANCH  10  14
ATOM     14  C   UNL     1       1.265  -3.319  -1.596  0.00  0.00    +0.162 A 
ATOM     15  C   UNL     1       2.478  -3.122  -2.257  0.00  0.00    +0.052 A 
ATOM     16  C   UNL     1       3.131  -4.234  -2.760  0.00  0.00    +0.077 A 
ATOM     17  C   UNL     1       2.537  -5.481  -2.574  0.00  0.00    +0.289 A 
ATOM     18  O   UNL     1       3.142  -6.600  -3.050  0.00  0.00    -0.264 OA
ATOM     19  N   UNL     1       1.384  -5.573  -1.935  0.00  0.00    -0.105 NA
ATOM     20  N   UNL     1       0.780  -4.543  -1.463  0.00  0.00    -0.129 NA
ENDBRANCH  10  14
BRANCH   4  21
ATOM     21  C   UNL     1      -2.684   1.106  -0.045  0.00  0.00    +0.113 A 
ATOM     22  C   UNL     1      -2.662   1.986   0.975  0.00  0.00    +0.046 A 
ATOM     23  C   UNL     1      -2.847   3.268   0.419  0.00  0.00    +0.050 A 
ATOM     24  C   UNL     1      -2.972   3.097  -0.924  0.00  0.00    +0.135 A 
ATOM     25  O   UNL     1      -2.866   1.781  -1.191  0.00  0.00    -0.459 OA
BRANCH  24  26
ATOM     26  C   UNL     1      -3.183   4.170  -1.919  0.00  0.00    +0.017 A 
ATOM     27  C   UNL     1      -3.265   5.501  -1.506  0.00  0.00    +0.014 A 
ATOM     28  C   UNL     1      -3.462   6.498  -2.439  0.00  0.00    +0.039 A 
ATOM     29  C   UNL     1      -3.579   6.181  -3.783  0.00  0.00    +0.123 A 
ATOM     30  C   UNL     1      -3.499   4.861  -4.197  0.00  0.00    +0.039 A 
ATOM     31  C   UNL     1      -3.296   3.856  -3.274  0.00  0.00    +0.014 A 
ATOM     32  F   UNL     1      -3.773   7.161  -4.691  0.00  0.00    -0.205 F 
ENDBRANCH  24  26
ENDBRANCH   4  21
TORSDOF 3
