REMARK  Name = ZINC38604078
REMARK  11 active torsions:
REMARK  status: ('A' for Active; 'I' for Inactive)
REMARK    1  A    between atoms: C_1  and  C_2
REMARK    2  A    between atoms: C_2  and  O_3
REMARK    3  A    between atoms: O_3  and  C_4
REMARK    4  A    between atoms: C_4  and  C_6
REMARK    5  A    between atoms: C_8  and  N_17
REMARK    6  A    between atoms: C_18  and  C_20
REMARK    7  A    between atoms: C_20  and  C_22
REMARK    8  A    between atoms: C_20  and  N_23
REMARK    9  A    between atoms: N_26  and  C_29
REMARK   10  A    between atoms: C_33  and  C_36
REMARK   11  A    between atoms: C_34  and  C_35
REMARK                            x       y       z     vdW  Elec       q    Type
REMARK                         _______ _______ _______ _____ _____    ______ ____
ROOT
ATOM      1  N   UNL     1      -3.657  -1.380  -2.379  0.00  0.00    -0.285 N 
ATOM      2  C   UNL     1      -4.261  -1.622  -3.559  0.00  0.00    +0.234 C 
ATOM      3  O   UNL     1      -4.695  -2.728  -3.803  0.00  0.00    -0.274 OA
ATOM      4  H   UNL     1      -3.385  -0.477  -2.150  0.00  0.00    +0.155 HD
ENDROOT
BRANCH   1   6
ATOM      5  C   UNL     1      -3.905  -3.832  -1.633  0.00  0.00    +0.234 C 
ATOM      6  C   UNL     1      -3.428  -2.403  -1.508  0.00  0.00    +0.053 C 
ATOM      7  C   UNL     1      -2.711  -2.348  -0.326  0.00  0.00    +0.020 A 
ATOM      8  C   UNL     1      -2.025  -1.295   0.328  0.00  0.00    +0.050 A 
ATOM      9  C   UNL     1      -1.393  -1.533   1.504  0.00  0.00    +0.124 A 
ATOM     10  C   UNL     1      -1.398  -2.801   2.096  0.00  0.00    +0.040 A 
ATOM     11  C   UNL     1      -2.033  -3.854   1.526  0.00  0.00    +0.029 A 
ATOM     12  C   UNL     1      -2.718  -3.684   0.295  0.00  0.00    +0.045 A 
ATOM     13  N   UNL     1      -3.399  -4.534  -0.450  0.00  0.00    -0.367 N 
ATOM     14  F   UNL     1      -0.742  -0.522   2.120  0.00  0.00    -0.205 F 
ATOM     15  H   UNL     1      -3.542  -5.472  -0.247  0.00  0.00    +0.161 HD
BRANCH   5  16
ATOM     16  C   UNL     1      -5.411  -3.877  -1.658  0.00  0.00    +0.336 C 
ATOM     17  O   UNL     1      -6.037  -3.712  -0.638  0.00  0.00    -0.248 OA
BRANCH  16  18
ATOM     18  O   UNL     1      -6.057  -4.099  -2.813  0.00  0.00    -0.463 OA
BRANCH  18  20
ATOM     19  C   UNL     1      -8.040  -4.392  -4.165  0.00  0.00    +0.048 C 
ATOM     20  C   UNL     1      -7.485  -4.128  -2.763  0.00  0.00    +0.229 C 
ENDBRANCH  18  20
ENDBRANCH  16  18
ENDBRANCH   5  16
ENDBRANCH   1   6
BRANCH   2  21
ATOM     21  C   UNL     1      -4.398  -0.519  -4.577  0.00  0.00    +0.140 C 
ATOM     22  C   UNL     1      -3.008  -0.013  -4.970  0.00  0.00    +0.034 C 
BRANCH  21  23
ATOM     23  N   UNL     1      -5.086  -1.033  -5.768  0.00  0.00    -0.289 NA
ATOM     24  C   UNL     1      -4.327  -2.130  -6.382  0.00  0.00    +0.104 C 
ATOM     25  C   UNL     1      -5.160  -2.757  -7.506  0.00  0.00    +0.120 C 
ATOM     26  N   UNL     1      -5.572  -1.691  -8.432  0.00  0.00    -0.327 N 
ATOM     27  C   UNL     1      -6.217  -0.494  -7.872  0.00  0.00    +0.120 C 
ATOM     28  C   UNL     1      -5.343   0.043  -6.734  0.00  0.00    +0.104 C 
BRANCH  26  29
ATOM     29  C   UNL     1      -5.355  -1.812  -9.806  0.00  0.00    +0.033 A 
ATOM     30  C   UNL     1      -6.325  -2.390 -10.616  0.00  0.00    +0.023 A 
ATOM     31  C   UNL     1      -6.108  -2.507 -11.974  0.00  0.00    +0.002 A 
ATOM     32  C   UNL     1      -4.926  -2.051 -12.530  0.00  0.00    +0.004 A 
ATOM     33  C   UNL     1      -3.959  -1.476 -11.727  0.00  0.00    -0.046 A 
ATOM     34  C   UNL     1      -4.172  -1.349 -10.368  0.00  0.00    -0.027 A 
ATOM     35  C   UNL     1      -3.120  -0.716  -9.495  0.00  0.00    +0.046 C 
ATOM     36  C   UNL     1      -2.672  -0.981 -12.336  0.00  0.00    +0.044 C 
ENDBRANCH  26  29
ENDBRANCH  21  23
ENDBRANCH   2  21
TORSDOF 7
