REMARK  Name = ZINC39608788
REMARK  10 active torsions:
REMARK  status: ('A' for Active; 'I' for Inactive)
REMARK    1  A    between atoms: C_1  and  C_2
REMARK    2  A    between atoms: C_5  and  C_9
REMARK    3  A    between atoms: C_7  and  C_8
REMARK    4  A    between atoms: C_9  and  C_11
REMARK    5  A    between atoms: C_9  and  N_12
REMARK    6  A    between atoms: C_13  and  C_15
REMARK    7  A    between atoms: C_15  and  O_16
REMARK    8  A    between atoms: O_16  and  C_17
REMARK    9  A    between atoms: C_17  and  C_19
REMARK   10  A    between atoms: C_20  and  C_34
REMARK                            x       y       z     vdW  Elec       q    Type
REMARK                         _______ _______ _______ _____ _____    ______ ____
ROOT
ATOM      1  C   UNL     1       3.755  -8.333  -2.653  0.00  0.00    +0.347 C 
ATOM      2  O   UNL     1       4.066  -7.746  -3.672  0.00  0.00    -0.244 OA
ENDROOT
BRANCH   1   3
ATOM      3  C   UNL     1       4.288  -9.671  -2.387  0.00  0.00    +0.102 A 
ATOM      4  C   UNL     1       5.142 -10.415  -3.149  0.00  0.00    -0.015 A 
ATOM      5  C   UNL     1       5.536 -11.682  -2.715  0.00  0.00    +0.076 A 
ATOM      6  C   UNL     1       4.998 -12.104  -1.478  0.00  0.00    +0.116 A 
ATOM      7  S   UNL     1       3.990 -10.729  -0.982  0.00  0.00    -0.062 S 
ATOM      8  N   UNL     1       5.290 -13.287  -0.954  0.00  0.00    -0.226 NA
ATOM      9  C   UNL     1       6.085 -14.127  -1.555  0.00  0.00    +0.114 A 
ATOM     10  N   UNL     1       6.665 -13.830  -2.754  0.00  0.00    -0.296 N 
ATOM     11  C   UNL     1       6.441 -12.656  -3.368  0.00  0.00    +0.263 A 
ATOM     12  O   UNL     1       6.968 -12.399  -4.436  0.00  0.00    -0.267 OA
ATOM     13  C   UNL     1       7.549 -14.832  -3.364  0.00  0.00    +0.126 C 
ATOM     14  C   UNL     1       6.703 -15.973  -3.924  0.00  0.00    +0.022 C 
ATOM     15  C   UNL     1       6.480 -17.054  -2.879  0.00  0.00    +0.002 C 
ATOM     16  C   UNL     1       5.649 -16.558  -1.709  0.00  0.00    +0.008 C 
ATOM     17  C   UNL     1       6.388 -15.470  -0.932  0.00  0.00    +0.074 C 
ATOM     18  C   UNL     1       5.659  -9.870  -4.456  0.00  0.00    +0.046 C 
ENDBRANCH   1   3
BRANCH   1  19
ATOM     19  O   UNL     1       2.919  -7.752  -1.768  0.00  0.00    -0.451 OA
BRANCH  19  20
ATOM     20  C   UNL     1       2.437  -6.446  -2.092  0.00  0.00    +0.328 C 
BRANCH  20  22
ATOM     21  N   UNL     1       0.948  -4.746  -1.087  0.00  0.00    -0.306 N 
ATOM     22  C   UNL     1       1.524  -5.962  -0.996  0.00  0.00    +0.251 C 
ATOM     23  O   UNL     1       1.306  -6.665  -0.033  0.00  0.00    -0.272 OA
ATOM     24  H   UNL     1       1.121  -4.184  -1.858  0.00  0.00    +0.149 HD
BRANCH  21  25
ATOM     25  C   UNL     1       0.059  -4.275  -0.021  0.00  0.00    +0.100 C 
ATOM     26  C   UNL     1      -1.356  -4.802  -0.267  0.00  0.00    +0.033 C 
BRANCH  25  31
ATOM     27  C   UNL     1      -0.018   1.503   0.010  0.00  0.00    +0.044 C 
ATOM     28  C   UNL     1       0.002  -0.004   0.002  0.00  0.00    -0.048 A 
ATOM     29  C   UNL     1       0.006  -0.689  -1.199  0.00  0.00    +0.004 A 
ATOM     30  C   UNL     1       0.025  -2.071  -1.207  0.00  0.00    +0.006 A 
ATOM     31  C   UNL     1       0.040  -2.768  -0.013  0.00  0.00    -0.027 A 
ATOM     32  C   UNL     1       0.037  -2.084   1.188  0.00  0.00    +0.009 A 
ATOM     33  C   UNL     1       0.023  -0.702   1.195  0.00  0.00    -0.047 A 
ATOM     34  C   UNL     1       0.025   0.045   2.504  0.00  0.00    +0.044 C 
ENDBRANCH  25  31
ENDBRANCH  21  25
ENDBRANCH  20  22
ENDBRANCH  19  20
ENDBRANCH   1  19
TORSDOF 6
