REMARK  Name = ZINC36490351
REMARK  16 active torsions:
REMARK  status: ('A' for Active; 'I' for Inactive)
REMARK    1  A    between atoms: C_1  and  C_2
REMARK    2  A    between atoms: C_2  and  C_3
REMARK    3  A    between atoms: C_3  and  C_4
REMARK    4  A    between atoms: C_4  and  C_5
REMARK    5  A    between atoms: C_5  and  C_6
REMARK    6  A    between atoms: N_8  and  C_9
REMARK    7  A    between atoms: N_8  and  C_15
REMARK    8  A    between atoms: C_15  and  C_17
REMARK    9  A    between atoms: C_15  and  C_26
REMARK   10  A    between atoms: C_20  and  N_23
REMARK   11  A    between atoms: N_23  and  C_24
REMARK   12  A    between atoms: N_23  and  C_25
REMARK   13  A    between atoms: N_28  and  C_29
REMARK   14  A    between atoms: C_29  and  S_30
REMARK   15  A    between atoms: S_30  and  C_33
REMARK   16  A    between atoms: C_36  and  C_39
REMARK                            x       y       z     vdW  Elec       q    Type
REMARK                         _______ _______ _______ _____ _____    ______ ____
ROOT
ATOM      1  C   UNL     1      -4.052  -6.361   0.252  0.00  0.00    +0.192 C 
ENDROOT
BRANCH   1   2
ATOM      2  C   UNL     1      -4.762  -6.499   1.574  0.00  0.00    -0.018 A 
ATOM      3  C   UNL     1      -5.891  -7.291   1.671  0.00  0.00    +0.008 A 
ATOM      4  C   UNL     1      -6.545  -7.420   2.880  0.00  0.00    +0.023 A 
ATOM      5  C   UNL     1      -6.067  -6.753   4.001  0.00  0.00    +0.029 A 
ATOM      6  C   UNL     1      -4.932  -5.958   3.901  0.00  0.00    +0.023 A 
ATOM      7  C   UNL     1      -4.280  -5.838   2.689  0.00  0.00    +0.008 A 
BRANCH   5   8
ATOM      8  N   UNL     1      -6.726  -6.881   5.226  0.00  0.00    -0.336 N 
ATOM      9  C   UNL     1      -7.922  -7.719   5.330  0.00  0.00    +0.129 C 
ATOM     10  C   UNL     1      -6.220  -6.176   6.407  0.00  0.00    +0.129 C 
ENDBRANCH   5   8
ENDBRANCH   1   2
BRANCH   1  11
ATOM     11  C   UNL     1      -4.841  -7.067  -0.819  0.00  0.00    +0.239 C 
ATOM     12  O   UNL     1      -5.268  -6.445  -1.768  0.00  0.00    -0.273 OA
ATOM     13  N   UNL     1      -5.074  -8.391  -0.722  0.00  0.00    -0.294 N 
ATOM     14  H   UNL     1      -4.734  -8.889   0.038  0.00  0.00    +0.150 HD
BRANCH  13  15
ATOM     15  C   UNL     1      -5.842  -9.078  -1.763  0.00  0.00    +0.278 C 
BRANCH  15  16
ATOM     16  S   UNL     1      -4.703  -9.807  -2.973  0.00  0.00    +0.013 S 
ATOM     17  O   UNL     1      -5.431 -10.531  -3.956  0.00  0.00    -0.168 OA
ATOM     18  O   UNL     1      -3.720  -8.854  -3.355  0.00  0.00    -0.168 OA
BRANCH  16  19
ATOM     19  C   UNL     1      -3.814 -11.035  -2.076  0.00  0.00    +0.090 A 
ATOM     20  C   UNL     1      -2.639 -10.703  -1.428  0.00  0.00    +0.027 A 
ATOM     21  C   UNL     1      -1.942 -11.667  -0.724  0.00  0.00    +0.005 A 
ATOM     22  C   UNL     1      -2.420 -12.963  -0.667  0.00  0.00    -0.050 A 
ATOM     23  C   UNL     1      -3.595 -13.295  -1.315  0.00  0.00    +0.005 A 
ATOM     24  C   UNL     1      -4.295 -12.330  -2.015  0.00  0.00    +0.027 A 
ATOM     25  C   UNL     1      -1.659 -14.014   0.099  0.00  0.00    +0.044 C 
ENDBRANCH  16  19
ENDBRANCH  15  16
ENDBRANCH  13  15
ENDBRANCH   1  11
BRANCH   1  28
ATOM     26  C   UNL     1      -2.710  -4.406  -0.309  0.00  0.00    +0.217 C 
ATOM     27  O   UNL     1      -1.729  -5.119  -0.336  0.00  0.00    -0.276 OA
ATOM     28  N   UNL     1      -3.927  -4.941  -0.089  0.00  0.00    -0.283 N 
BRANCH  28  29
ATOM     29  C   UNL     1      -5.125  -4.105  -0.191  0.00  0.00    +0.077 C 
ATOM     30  C   UNL     1      -6.341  -4.894   0.297  0.00  0.00    +0.022 C 
ATOM     31  C   UNL     1      -7.593  -4.020   0.191  0.00  0.00    +0.002 C 
ATOM     32  C   UNL     1      -7.804  -3.607  -1.267  0.00  0.00    +0.000 C 
ATOM     33  C   UNL     1      -6.587  -2.817  -1.755  0.00  0.00    +0.002 C 
ATOM     34  C   UNL     1      -5.336  -3.691  -1.649  0.00  0.00    +0.022 C 
ENDBRANCH  28  29
BRANCH  26  35
ATOM     35  C   UNL     1      -2.568  -2.921  -0.522  0.00  0.00    +0.096 C 
BRANCH  35  36
ATOM     36  C   UNL     1      -1.083  -2.553  -0.579  0.00  0.00    +0.009 C 
BRANCH  36  37
ATOM     37  C   UNL     1      -0.939  -1.046  -0.795  0.00  0.00    +0.000 C 
BRANCH  37  39
ATOM     38  C   UNL     1       0.689   0.829  -1.068  0.00  0.00    +0.004 C 
ATOM     39  C   UNL     1       0.545  -0.678  -0.853  0.00  0.00    -0.003 C 
ENDBRANCH  37  39
ENDBRANCH  36  37
ENDBRANCH  35  36
ENDBRANCH  26  35
ENDBRANCH   1  28
TORSDOF 12
