REMARK  Name = ZINC39466957
REMARK  5 active torsions:
REMARK  status: ('A' for Active; 'I' for Inactive)
REMARK    1  A    between atoms: C_4  and  C_7
REMARK    2  A    between atoms: C_7  and  P_8
REMARK    3  A    between atoms: C_17  and  S_26
REMARK    4  A    between atoms: S_26  and  O_29
REMARK    5  A    between atoms: O_29  and  C_30
REMARK                            x       y       z     vdW  Elec       q    Type
REMARK                         _______ _______ _______ _____ _____    ______ ____
ROOT
ATOM      1  P   UNL     1       3.434  -1.618   2.358  0.00  0.00    +0.262 P 
ATOM      2  O   UNL     1       2.543  -2.365   3.273  0.00  0.00    -0.274 OA
ATOM      3  N   UNL     1       4.909  -2.352   2.265  0.00  0.00    -0.291 NA
ATOM      4  N   UNL     1       5.793  -2.151   3.305  0.00  0.00    +0.397 N 
ATOM      5  C   UNL     1       7.046  -2.814   2.906  0.00  0.00    -0.046 C 
ATOM      6  C   UNL     1       8.108  -2.674   3.988  0.00  0.00    +0.007 C 
ATOM      7  C   UNL     1       7.646  -3.314   5.270  0.00  0.00    +0.016 C 
ATOM      8  C   UNL     1       8.190  -2.933   6.426  0.00  0.00    +0.148 C 
ATOM      9  C   UNL     1       9.244  -1.902   6.426  0.00  0.00    +0.159 C 
ATOM     10  C   UNL     1       9.351  -1.067   5.397  0.00  0.00    +0.010 C 
ATOM     11  C   UNL     1       8.383  -1.190   4.246  0.00  0.00    +0.018 C 
ATOM     12  C   UNL     1       7.066  -0.507   4.618  0.00  0.00    -0.003 C 
ATOM     13  C   UNL     1       6.020  -0.720   3.517  0.00  0.00    -0.020 C 
ATOM     14  C   UNL     1       4.738  -0.009   3.971  0.00  0.00    +0.156 C 
ATOM     15  O   UNL     1       3.733  -0.132   2.949  0.00  0.00    -0.319 OA
ATOM     16  F   UNL     1       7.780  -3.487   7.587  0.00  0.00    -0.204 F 
ATOM     17  H   UNL     1       5.147  -2.905   1.505  0.00  0.00    +0.111 HD
ATOM     18  H   UNL     1       5.427  -2.567   4.148  0.00  0.00    -0.055 HD
ENDROOT
BRANCH   9  19
ATOM     19  S   UNL     1      10.358  -1.777   7.785  0.00  0.00    +0.153 S 
ATOM     20  O   UNL     1      10.752  -3.103   8.110  0.00  0.00    -0.131 OA
ATOM     21  O   UNL     1      11.297  -0.764   7.448  0.00  0.00    -0.131 OA
BRANCH  19  22
ATOM     22  O   UNL     1       9.563  -1.256   8.973  0.00  0.00    -0.342 OA
BRANCH  22  23
ATOM     23  C   UNL     1       9.262   0.068   8.899  0.00  0.00    +0.157 A 
ATOM     24  C   UNL     1      10.126   1.008   9.441  0.00  0.00    +0.048 A 
ATOM     25  C   UNL     1       9.819   2.353   9.364  0.00  0.00    +0.004 A 
ATOM     26  C   UNL     1       8.651   2.761   8.747  0.00  0.00    +0.000 A 
ATOM     27  C   UNL     1       7.787   1.827   8.207  0.00  0.00    +0.004 A 
ATOM     28  C   UNL     1       8.093   0.481   8.276  0.00  0.00    +0.048 A 
ENDBRANCH  22  23
ENDBRANCH  19  22
ENDBRANCH   9  19
BRANCH   1  29
ATOM     29  C   UNL     1       2.682  -1.500   0.702  0.00  0.00    +0.147 C 
BRANCH  29  33
ATOM     30  C   UNL     1      -0.993   0.664   0.955  0.00  0.00    +0.000 A 
ATOM     31  C   UNL     1       0.191   1.337   0.720  0.00  0.00    +0.000 A 
ATOM     32  C   UNL     1       1.380   0.637   0.638  0.00  0.00    +0.004 A 
ATOM     33  C   UNL     1       1.385  -0.737   0.792  0.00  0.00    -0.037 A 
ATOM     34  C   UNL     1       0.201  -1.410   1.028  0.00  0.00    +0.004 A 
ATOM     35  C   UNL     1      -0.988  -0.710   1.108  0.00  0.00    +0.000 A 
ENDBRANCH  29  33
ENDBRANCH   1  29
TORSDOF 5
