REMARK  Name = ZINC34756131
REMARK  9 active torsions:
REMARK  status: ('A' for Active; 'I' for Inactive)
REMARK    1  A    between atoms: C_1  and  C_2
REMARK    2  A    between atoms: C_2  and  C_3
REMARK    3  A    between atoms: C_3  and  C_4
REMARK    4  A    between atoms: C_4  and  S_5
REMARK    5  A    between atoms: S_5  and  C_6
REMARK    6  A    between atoms: N_22  and  C_25
REMARK    7  A    between atoms: C_25  and  C_26
REMARK    8  A    between atoms: C_28  and  C_33
REMARK    9  A    between atoms: C_31  and  C_32
REMARK                            x       y       z     vdW  Elec       q    Type
REMARK                         _______ _______ _______ _____ _____    ______ ____
ROOT
ATOM      1  C   UNL     1      -2.265  -5.420   1.178  0.00  0.00    +0.191 A 
ATOM      2  N   UNL     1      -3.367  -6.160   1.139  0.00  0.00    -0.206 NA
ATOM      3  C   UNL     1      -3.921  -6.536  -0.001  0.00  0.00    +0.134 A 
ATOM      4  C   UNL     1      -3.322  -6.139  -1.230  0.00  0.00    +0.051 A 
ATOM      5  C   UNL     1      -3.754  -6.438  -2.597  0.00  0.00    -0.025 A 
ATOM      6  C   UNL     1      -3.004  -5.937  -3.599  0.00  0.00    -0.004 A 
ATOM      7  S   UNL     1      -1.694  -5.051  -2.797  0.00  0.00    -0.073 S 
ATOM      8  C   UNL     1      -2.157  -5.356  -1.113  0.00  0.00    +0.115 A 
ATOM      9  N   UNL     1      -1.668  -5.016   0.065  0.00  0.00    -0.215 NA
ATOM     10  C   UNL     1      -3.231  -6.099  -5.071  0.00  0.00    +0.043 C 
ATOM     11  C   UNL     1      -4.241  -7.235  -5.284  0.00  0.00    +0.005 C 
ATOM     12  C   UNL     1      -5.428  -7.019  -4.340  0.00  0.00    +0.005 C 
ATOM     13  C   UNL     1      -4.995  -7.275  -2.896  0.00  0.00    +0.037 C 
ATOM     14  N   UNL     1      -5.069  -7.307  -0.000  0.00  0.00    -0.318 N 
ATOM     15  C   UNL     1      -4.996  -8.772  -0.113  0.00  0.00    +0.088 C 
ATOM     16  C   UNL     1      -5.838  -9.388   1.009  0.00  0.00    -0.059 C 
ATOM     17  N   UNL     1      -7.201  -8.843   0.953  0.00  0.00    +0.384 N 
ATOM     18  C   UNL     1      -7.173  -7.400   1.226  0.00  0.00    -0.059 C 
ATOM     19  C   UNL     1      -6.397  -6.686   0.120  0.00  0.00    +0.088 C 
ATOM     20  H   UNL     1      -7.588  -9.003   0.035  0.00  0.00    -0.081 HD
ENDROOT
BRANCH   1  21
ATOM     21  S   UNL     1      -1.588  -4.959   2.738  0.00  0.00    -0.086 S 
BRANCH  21  22
ATOM     22  C   UNL     1      -0.129  -3.970   2.309  0.00  0.00    +0.077 C 
BRANCH  22  23
ATOM     23  C   UNL     1       0.563  -3.500   3.589  0.00  0.00    +0.011 C 
BRANCH  23  25
ATOM     24  C   UNL     1       2.486  -2.196   4.508  0.00  0.00    +0.004 C 
ATOM     25  C   UNL     1       1.794  -2.666   3.227  0.00  0.00    -0.003 C 
ENDBRANCH  23  25
ENDBRANCH  22  23
ENDBRANCH  21  22
ENDBRANCH   1  21
BRANCH  17  26
ATOM     26  C   UNL     1      -8.036  -9.514   1.958  0.00  0.00    -0.043 C 
BRANCH  26  27
ATOM     27  C   UNL     1      -9.462  -9.045   1.820  0.00  0.00    -0.061 A 
ATOM     28  C   UNL     1      -9.956  -8.075   2.672  0.00  0.00    +0.005 A 
ATOM     29  C   UNL     1     -11.263  -7.644   2.545  0.00  0.00    -0.050 A 
ATOM     30  C   UNL     1     -12.077  -8.183   1.566  0.00  0.00    +0.003 A 
ATOM     31  C   UNL     1     -11.582  -9.152   0.713  0.00  0.00    +0.004 A 
ATOM     32  C   UNL     1     -10.274  -9.580   0.837  0.00  0.00    -0.049 A 
ATOM     33  C   UNL     1      -9.733 -10.633  -0.096  0.00  0.00    +0.044 C 
ATOM     34  C   UNL     1     -11.802  -6.588   3.475  0.00  0.00    +0.044 C 
ENDBRANCH  26  27
ENDBRANCH  17  26
TORSDOF 6
