REMARK  Name = ZINC38728607
REMARK  15 active torsions:
REMARK  status: ('A' for Active; 'I' for Inactive)
REMARK    1  A    between atoms: C_1  and  C_2
REMARK    2  A    between atoms: C_2  and  C_3
REMARK    3  A    between atoms: N_16  and  C_30
REMARK    4  A    between atoms: C_17  and  C_19
REMARK    5  A    between atoms: C_22  and  O_27
REMARK    6  A    between atoms: C_23  and  O_25
REMARK    7  A    between atoms: O_25  and  C_26
REMARK    8  A    between atoms: O_27  and  C_28
REMARK    9  A    between atoms: C_28  and  C_29
REMARK   10  A    between atoms: C_30  and  C_31
REMARK   11  A    between atoms: C_31  and  N_32
REMARK   12  A    between atoms: N_32  and  C_33
REMARK   13  A    between atoms: N_32  and  C_35
REMARK   14  A    between atoms: C_33  and  C_34
REMARK   15  A    between atoms: C_35  and  C_36
REMARK                            x       y       z     vdW  Elec       q    Type
REMARK                         _______ _______ _______ _____ _____    ______ ____
ROOT
ATOM      1  C   UNL     1      -1.164  -0.711  -0.734  0.00  0.00    -0.047 A 
ATOM      2  C   UNL     1      -1.726  -0.803   0.532  0.00  0.00    +0.007 A 
ATOM      3  C   UNL     1      -3.031  -1.208   0.697  0.00  0.00    +0.047 A 
ATOM      4  C   UNL     1      -3.808  -1.532  -0.415  0.00  0.00    +0.139 A 
ATOM      5  C   UNL     1      -3.231  -1.428  -1.692  0.00  0.00    +0.065 A 
ATOM      6  C   UNL     1      -1.907  -1.015  -1.840  0.00  0.00    +0.019 A 
ATOM      7  C   UNL     1      -4.055  -1.755  -2.883  0.00  0.00    +0.199 A 
ATOM      8  O   UNL     1      -3.594  -1.856  -4.006  0.00  0.00    -0.287 OA
ATOM      9  C   UNL     1      -5.477  -1.945  -2.578  0.00  0.00    +0.072 A 
ATOM     10  C   UNL     1      -5.917  -2.020  -1.287  0.00  0.00    +0.199 A 
ATOM     11  O   UNL     1      -5.086  -1.934  -0.230  0.00  0.00    -0.450 OA
ATOM     12  C   UNL     1      -7.379  -2.203  -1.307  0.00  0.00    +0.283 C 
ATOM     13  O   UNL     1      -8.081  -2.302  -0.320  0.00  0.00    -0.267 OA
ATOM     14  N   UNL     1      -7.824  -2.243  -2.579  0.00  0.00    -0.285 N 
ATOM     15  C   UNL     1      -6.665  -2.087  -3.473  0.00  0.00    +0.145 C 
ENDROOT
BRANCH  15  16
ATOM     16  C   UNL     1      -6.515  -3.304  -4.348  0.00  0.00    -0.019 A 
ATOM     17  C   UNL     1      -6.779  -4.560  -3.833  0.00  0.00    +0.009 A 
ATOM     18  C   UNL     1      -6.642  -5.681  -4.631  0.00  0.00    +0.050 A 
ATOM     19  C   UNL     1      -6.242  -5.546  -5.950  0.00  0.00    +0.162 A 
ATOM     20  C   UNL     1      -5.977  -4.282  -6.469  0.00  0.00    +0.162 A 
ATOM     21  C   UNL     1      -6.120  -3.163  -5.665  0.00  0.00    +0.055 A 
BRANCH  20  22
ATOM     22  O   UNL     1      -5.583  -4.146  -7.763  0.00  0.00    -0.491 OA
ATOM     23  C   UNL     1      -5.329  -2.818  -8.227  0.00  0.00    +0.277 C 
ENDBRANCH  20  22
BRANCH  19  24
ATOM     24  O   UNL     1      -6.107  -6.647  -6.737  0.00  0.00    -0.489 OA
BRANCH  24  25
ATOM     25  C   UNL     1      -6.395  -7.912  -6.138  0.00  0.00    +0.226 C 
ATOM     26  C   UNL     1      -6.189  -9.024  -7.168  0.00  0.00    +0.048 C 
ENDBRANCH  24  25
ENDBRANCH  19  24
ENDBRANCH  15  16
BRANCH   1  28
ATOM     27  C   UNL     1       0.319   1.255  -1.028  0.00  0.00    +0.009 C 
ATOM     28  C   UNL     1       0.268  -0.268  -0.889  0.00  0.00    +0.032 C 
ENDBRANCH   1  28
BRANCH  14  29
ATOM     29  C   UNL     1      -9.218  -2.413  -2.999  0.00  0.00    +0.090 C 
BRANCH  29  30
ATOM     30  C   UNL     1      -9.883  -1.041  -3.128  0.00  0.00    -0.060 C 
BRANCH  30  31
ATOM     31  N   UNL     1     -11.237  -1.202  -3.672  0.00  0.00    +0.380 N 
ATOM     32  H   UNL     1     -11.193  -1.722  -4.536  0.00  0.00    -0.082 HD
BRANCH  31  33
ATOM     33  C   UNL     1     -12.070  -1.930  -2.706  0.00  0.00    -0.082 C 
ATOM     34  C   UNL     1     -13.443  -2.208  -3.322  0.00  0.00    -0.017 C 
ENDBRANCH  31  33
BRANCH  31  35
ATOM     35  C   UNL     1     -11.824   0.120  -3.926  0.00  0.00    -0.082 C 
ATOM     36  C   UNL     1     -11.039   0.822  -5.037  0.00  0.00    -0.017 C 
ENDBRANCH  31  35
ENDBRANCH  30  31
ENDBRANCH  29  30
ENDBRANCH  14  29
TORSDOF 10
