REMARK  Name = ZINC02653398
REMARK  9 active torsions:
REMARK  status: ('A' for Active; 'I' for Inactive)
REMARK    1  A    between atoms: C_1  and  C_2
REMARK    2  A    between atoms: C_2  and  C_4
REMARK    3  A    between atoms: C_2  and  O_23
REMARK    4  A    between atoms: C_4  and  O_6
REMARK    5  A    between atoms: O_6  and  C_7
REMARK    6  A    between atoms: C_7  and  C_8
REMARK    7  A    between atoms: C_20  and  C_21
REMARK    8  A    between atoms: C_20  and  C_22
REMARK    9  A    between atoms: O_23  and  C_24
REMARK                            x       y       z     vdW  Elec       q    Type
REMARK                         _______ _______ _______ _____ _____    ______ ____
ROOT
ATOM      1  C   UNL     1       4.528  -6.494  -2.438  0.00  0.00    +0.258 C 
ATOM      2  O   UNL     1       5.484  -6.068  -1.825  0.00  0.00    -0.271 OA
ATOM      3  N   UNL     1       4.625  -7.656  -3.114  0.00  0.00    -0.253 N 
ATOM      4  C   UNL     1       3.502  -8.230  -3.731  0.00  0.00    +0.059 A 
ATOM      5  C   UNL     1       2.230  -8.031  -3.226  0.00  0.00    +0.025 A 
ATOM      6  C   UNL     1       1.144  -8.614  -3.854  0.00  0.00    +0.002 A 
ATOM      7  C   UNL     1       1.328  -9.394  -4.981  0.00  0.00    +0.002 A 
ATOM      8  C   UNL     1       2.597  -9.595  -5.492  0.00  0.00    +0.025 A 
ATOM      9  C   UNL     1       3.691  -9.014  -4.871  0.00  0.00    +0.055 A 
ATOM     10  N   UNL     1       4.982  -9.196  -5.377  0.00  0.00    -0.282 N 
ATOM     11  C   UNL     1       6.062  -8.875  -4.640  0.00  0.00    +0.241 C 
ATOM     12  O   UNL     1       7.171  -9.000  -5.116  0.00  0.00    -0.273 OA
ATOM     13  C   UNL     1       5.911  -8.358  -3.236  0.00  0.00    +0.113 C 
ATOM     14  C   UNL     1       7.054  -7.392  -2.921  0.00  0.00    +0.042 C 
ATOM     15  C   UNL     1       5.947  -9.533  -2.257  0.00  0.00    +0.042 C 
ATOM     16  H   UNL     1       5.101  -9.557  -6.270  0.00  0.00    +0.155 HD
ENDROOT
BRANCH   1  17
ATOM     17  C   UNL     1       3.232  -5.725  -2.442  0.00  0.00    +0.328 C 
BRANCH  17  18
ATOM     18  O   UNL     1       3.475  -4.365  -1.995  0.00  0.00    -0.453 OA
BRANCH  18  19
ATOM     19  C   UNL     1       2.415  -3.543  -1.941  0.00  0.00    +0.348 C 
ATOM     20  O   UNL     1       1.321  -3.947  -2.257  0.00  0.00    -0.247 OA
BRANCH  19  22
ATOM     21  C   UNL     1       3.143  -2.101  -0.060  0.00  0.00    +0.064 C 
ATOM     22  C   UNL     1       2.590  -2.117  -1.487  0.00  0.00    +0.278 C 
BRANCH  22  23
ATOM     23  O   UNL     1       1.327  -1.450  -1.515  0.00  0.00    -0.476 OA
BRANCH  23  24
ATOM     24  C   UNL     1       1.339  -0.118  -1.787  0.00  0.00    +0.140 A 
ATOM     25  C   UNL     1       2.545   0.555  -1.909  0.00  0.00    +0.048 A 
ATOM     26  C   UNL     1       2.555   1.909  -2.185  0.00  0.00    +0.023 A 
ATOM     27  C   UNL     1       1.363   2.594  -2.341  0.00  0.00    +0.043 A 
ATOM     28  C   UNL     1       0.158   1.925  -2.220  0.00  0.00    +0.043 A 
ATOM     29  C   UNL     1       0.143   0.570  -1.943  0.00  0.00    +0.084 A 
ATOM     30 CL   UNL     1      -1.369  -0.269  -1.792  0.00  0.00    -0.080 Cl
ATOM     31 CL   UNL     1       1.379   4.294  -2.689  0.00  0.00    -0.083 Cl
ENDBRANCH  23  24
ENDBRANCH  22  23
ENDBRANCH  19  22
ENDBRANCH  18  19
ENDBRANCH  17  18
ENDBRANCH   1  17
TORSDOF 6
