REMARK  Name = ZINC12135744
REMARK  11 active torsions:
REMARK  status: ('A' for Active; 'I' for Inactive)
REMARK    1  A    between atoms: C_1  and  C_2
REMARK    2  A    between atoms: C_2  and  O_3
REMARK    3  A    between atoms: O_3  and  C_4
REMARK    4  A    between atoms: C_4  and  C_6
REMARK    5  A    between atoms: C_12  and  C_14
REMARK    6  A    between atoms: C_14  and  C_16
REMARK    7  A    between atoms: C_14  and  S_17
REMARK    8  A    between atoms: S_17  and  C_18
REMARK    9  A    between atoms: C_21  and  C_29
REMARK   10  A    between atoms: N_22  and  C_23
REMARK   11  A    between atoms: C_29  and  N_69
REMARK                            x       y       z     vdW  Elec       q    Type
REMARK                         _______ _______ _______ _____ _____    ______ ____
ROOT
ATOM      1  C   UNL     1       1.340  -2.821   5.709  0.00  0.00    +0.197 A 
ATOM      2  N   UNL     1       2.630  -2.599   5.616  0.00  0.00    -0.122 NA
ATOM      3  N   UNL     1       3.214  -2.951   6.706  0.00  0.00    -0.135 NA
ATOM      4  C   UNL     1       2.341  -3.415   7.553  0.00  0.00    +0.122 A 
ATOM      5  N   UNL     1       1.112  -3.345   6.952  0.00  0.00    -0.276 N 
ENDROOT
BRANCH   5   6
ATOM      6  C   UNL     1      -0.121  -3.731   7.496  0.00  0.00    +0.050 A 
ATOM      7  C   UNL     1      -0.638  -3.060   8.596  0.00  0.00    +0.026 A 
ATOM      8  C   UNL     1      -1.856  -3.439   9.125  0.00  0.00    +0.002 A 
ATOM      9  C   UNL     1      -2.555  -4.494   8.569  0.00  0.00    +0.000 A 
ATOM     10  C   UNL     1      -2.040  -5.168   7.477  0.00  0.00    +0.002 A 
ATOM     11  C   UNL     1      -0.826  -4.790   6.939  0.00  0.00    +0.026 A 
ENDBRANCH   5   6
BRANCH   1  12
ATOM     12  S   UNL     1       0.129  -2.499   4.469  0.00  0.00    -0.073 S 
BRANCH  12  13
ATOM     13  C   UNL     1       1.187  -1.826   3.164  0.00  0.00    +0.137 C 
ATOM     14  C   UNL     1       2.146  -2.913   2.673  0.00  0.00    +0.029 C 
BRANCH  13  21
ATOM     15  C   UNL     1       1.419   2.053  -0.001  0.00  0.00    +0.101 C 
ATOM     16  C   UNL     1      -0.019   1.528   0.010  0.00  0.00    +0.033 C 
ATOM     17  C   UNL     1       0.002  -0.004   0.002  0.00  0.00    +0.108 C 
ATOM     18  N   UNL     1       0.824  -0.472   1.126  0.00  0.00    -0.301 N 
ATOM     19  C   UNL     1       2.194   0.042   1.262  0.00  0.00    +0.108 C 
ATOM     20  C   UNL     1       2.149   1.573   1.256  0.00  0.00    +0.033 C 
ATOM     21  C   UNL     1       0.331  -1.356   2.016  0.00  0.00    +0.229 C 
ATOM     22  O   UNL     1      -0.801  -1.772   1.894  0.00  0.00    -0.274 OA
BRANCH  15  23
ATOM     23  C   UNL     1       1.402   3.560  -0.027  0.00  0.00    +0.310 C 
ATOM     24  O   UNL     1       0.349   4.152  -0.035  0.00  0.00    -0.251 OA
BRANCH  23  25
ATOM     25  O   UNL     1       2.557   4.244  -0.040  0.00  0.00    -0.465 OA
BRANCH  25  27
ATOM     26  C   UNL     1       3.872   6.293  -0.077  0.00  0.00    +0.048 C 
ATOM     27  C   UNL     1       2.465   5.693  -0.065  0.00  0.00    +0.229 C 
ENDBRANCH  25  27
ENDBRANCH  23  25
ENDBRANCH  15  23
ENDBRANCH  13  21
ENDBRANCH  12  13
ENDBRANCH   1  12
BRANCH   4  28
ATOM     28  C   UNL     1       2.628  -3.928   8.941  0.00  0.00    -0.001 C 
BRANCH  28  34
ATOM     29  C   UNL     1       3.597  -1.831   9.663  0.00  0.00    -0.078 C 
ATOM     30  C   UNL     1       3.386  -0.625  10.582  0.00  0.00    -0.019 C 
ATOM     31  C   UNL     1       3.415  -1.090  12.041  0.00  0.00    -0.004 C 
ATOM     32  C   UNL     1       2.335  -2.155  12.250  0.00  0.00    -0.019 C 
ATOM     33  C   UNL     1       2.576  -3.316  11.283  0.00  0.00    -0.078 C 
ATOM     34  N   UNL     1       2.512  -2.807   9.896  0.00  0.00    +0.384 N 
ATOM     35  H   UNL     1       1.608  -2.341   9.755  0.00  0.00    -0.081 HD
ENDBRANCH  28  34
ENDBRANCH   4  28
TORSDOF 9
