REMARK  Name = ZINC05413409
REMARK  5 active torsions:
REMARK  status: ('A' for Active; 'I' for Inactive)
REMARK    1  A    between atoms: C_4  and  C_7
REMARK    2  A    between atoms: C_7  and  C_8
REMARK    3  A    between atoms: C_8  and  C_10
REMARK    4  A    between atoms: C_8  and  N_13
REMARK    5  A    between atoms: C_14  and  C_16
REMARK                            x       y       z     vdW  Elec       q    Type
REMARK                         _______ _______ _______ _____ _____    ______ ____
ROOT
ATOM      1  N   UNL     1      -0.963   6.151   1.611  0.00  0.00    -0.303 N 
ATOM      2  C   UNL     1      -0.473   5.501   0.537  0.00  0.00    +0.232 C 
ATOM      3  O   UNL     1      -0.073   6.127  -0.422  0.00  0.00    -0.274 OA
ATOM      4  H   UNL     1      -1.283   5.650   2.377  0.00  0.00    +0.150 HD
ENDROOT
BRANCH   2   5
ATOM      5  C   UNL     1      -0.422   3.994   0.527  0.00  0.00    +0.146 C 
ATOM      6  C   UNL     1      -1.652   3.439  -0.199  0.00  0.00    -0.050 C 
ATOM      7  C   UNL     1      -0.360   1.630  -1.169  0.00  0.00    -0.063 C 
ATOM      8  C   UNL     1       0.923   2.112  -0.483  0.00  0.00    +0.091 C 
ATOM      9  N   UNL     1       0.783   3.546  -0.186  0.00  0.00    -0.278 N 
ATOM     10  C   UNL     1       1.735   4.425  -0.557  0.00  0.00    +0.305 C 
ATOM     11  O   UNL     1       1.767   4.840  -1.699  0.00  0.00    -0.252 OA
ATOM     12  N   UNL     1       2.652   4.843   0.338  0.00  0.00    -0.281 N 
ATOM     13  C   UNL     1       2.790   4.183   1.646  0.00  0.00    +0.137 C 
ATOM     14  C   UNL     1       4.274   3.840   1.855  0.00  0.00    +0.179 C 
ATOM     15  O   UNL     1       5.060   5.017   1.653  0.00  0.00    -0.377 OA
ATOM     16  C   UNL     1       4.984   5.551   0.329  0.00  0.00    +0.179 C 
ATOM     17  C   UNL     1       3.540   5.978   0.039  0.00  0.00    +0.137 C 
ATOM     18  N   UNL     1      -1.526   1.974  -0.332  0.00  0.00    +0.382 N 
ATOM     19  H   UNL     1      -2.377   1.600  -0.768  0.00  0.00    -0.086 HD
ATOM     20  H   UNL     1      -1.408   1.559   0.600  0.00  0.00    -0.086 HD
ENDBRANCH   2   5
BRANCH   1  21
ATOM     21  C   UNL     1      -1.012   7.615   1.620  0.00  0.00    +0.159 C 
BRANCH  21  22
ATOM     22  C   UNL     1       0.316   8.160   2.077  0.00  0.00    +0.231 C 
ATOM     23  O   UNL     1       1.216   7.400   2.366  0.00  0.00    -0.274 OA
ATOM     24  N   UNL     1       0.505   9.492   2.164  0.00  0.00    -0.328 N 
ATOM     25  H   UNL     1      -0.215  10.100   1.933  0.00  0.00    +0.145 HD
ATOM     26  H   UNL     1       1.360   9.842   2.458  0.00  0.00    +0.145 HD
ENDBRANCH  21  22
BRANCH  21  27
ATOM     27  C   UNL     1      -2.111   8.082   2.577  0.00  0.00    +0.035 C 
BRANCH  27  31
ATOM     28  C   UNL     1      -6.212   8.253   1.207  0.00  0.00    +0.000 C 
ATOM     29  C   UNL     1      -5.923   7.544   2.532  0.00  0.00    +0.000 C 
ATOM     30  C   UNL     1      -4.560   7.992   3.063  0.00  0.00    +0.003 C 
ATOM     31  C   UNL     1      -3.474   7.635   2.046  0.00  0.00    -0.009 C 
ATOM     32  C   UNL     1      -3.763   8.344   0.721  0.00  0.00    +0.003 C 
ATOM     33  C   UNL     1      -5.127   7.896   0.190  0.00  0.00    +0.000 C 
ENDBRANCH  27  31
ENDBRANCH  21  27
ENDBRANCH   1  21
TORSDOF 5
