REMARK  Name = ZINC63678214
REMARK  6 active torsions:
REMARK  status: ('A' for Active; 'I' for Inactive)
REMARK    1  A    between atoms: C_1  and  C_2
REMARK    2  A    between atoms: C_5  and  N_9
REMARK    3  A    between atoms: C_10  and  C_12
REMARK    4  A    between atoms: C_12  and  N_13
REMARK    5  A    between atoms: C_14  and  C_16
REMARK    6  A    between atoms: N_26  and  C_27
REMARK                            x       y       z     vdW  Elec       q    Type
REMARK                         _______ _______ _______ _____ _____    ______ ____
ROOT
ATOM      1  N   UNL     1      -0.234  -6.825  -2.571  0.00  0.00    -0.303 N 
ATOM      2  C   UNL     1      -0.329  -8.147  -2.818  0.00  0.00    +0.245 C 
ATOM      3  O   UNL     1      -0.333  -8.939  -1.895  0.00  0.00    -0.270 OA
ATOM      4  H   UNL     1      -0.231  -6.193  -3.307  0.00  0.00    +0.150 HD
ENDROOT
BRANCH   2   5
ATOM      5  C   UNL     1      -0.427  -8.632  -4.207  0.00  0.00    +0.039 A 
ATOM      6  C   UNL     1      -0.417  -7.722  -5.268  0.00  0.00    +0.015 A 
ATOM      7  C   UNL     1      -0.507  -8.174  -6.566  0.00  0.00    +0.026 A 
ATOM      8  C   UNL     1      -0.609  -9.534  -6.821  0.00  0.00    +0.051 A 
ATOM      9  C   UNL     1      -0.624 -10.452  -5.765  0.00  0.00    +0.055 A 
ATOM     10  C   UNL     1      -0.525 -10.004  -4.463  0.00  0.00    +0.038 A 
ATOM     11  N   UNL     1      -0.739 -11.820  -6.042  0.00  0.00    -0.283 N 
ATOM     12  C   UNL     1      -0.547 -12.286  -7.291  0.00  0.00    +0.235 C 
ATOM     13  O   UNL     1      -0.692 -13.468  -7.520  0.00  0.00    -0.274 OA
ATOM     14  C   UNL     1      -0.154 -11.352  -8.408  0.00  0.00    +0.200 C 
ATOM     15  N   UNL     1      -0.696 -10.014  -8.128  0.00  0.00    -0.323 N 
ATOM     16  C   UNL     1      -1.308  -9.211  -9.189  0.00  0.00    +0.130 C 
ATOM     17  H   UNL     1      -0.958 -12.439  -5.328  0.00  0.00    +0.155 HD
ENDBRANCH   2   5
BRANCH   1  18
ATOM     18  C   UNL     1      -0.136  -6.343  -1.191  0.00  0.00    +0.200 C 
BRANCH  18  20
ATOM     19  N   UNL     1       0.057  -4.171  -0.023  0.00  0.00    -0.283 N 
ATOM     20  C   UNL     1      -0.042  -4.839  -1.190  0.00  0.00    +0.234 C 
ATOM     21  O   UNL     1      -0.055  -4.230  -2.238  0.00  0.00    -0.274 OA
ATOM     22  H   UNL     1       0.149  -4.660   0.809  0.00  0.00    +0.155 HD
BRANCH  19  27
ATOM     23  C   UNL     1      -0.064   1.502   0.016  0.00  0.00    +0.044 C 
ATOM     24  C   UNL     1      -0.031  -0.005   0.006  0.00  0.00    -0.049 A 
ATOM     25  C   UNL     1      -0.622  -0.701  -1.033  0.00  0.00    +0.005 A 
ATOM     26  C   UNL     1      -0.594  -2.082  -1.045  0.00  0.00    +0.025 A 
ATOM     27  C   UNL     1       0.028  -2.772  -0.014  0.00  0.00    +0.052 A 
ATOM     28  C   UNL     1       0.621  -2.070   1.029  0.00  0.00    +0.062 A 
ATOM     29  C   UNL     1       0.595  -0.688   1.032  0.00  0.00    +0.025 A 
ATOM     30 CL   UNL     1       1.401  -2.928   2.321  0.00  0.00    -0.082 Cl
ENDBRANCH  19  27
ENDBRANCH  18  20
ENDBRANCH   1  18
TORSDOF 4
