REMARK  Name = ZINC06748128
REMARK  6 active torsions:
REMARK  status: ('A' for Active; 'I' for Inactive)
REMARK    1  A    between atoms: C_1  and  C_2
REMARK    2  A    between atoms: C_7  and  C_11
REMARK    3  A    between atoms: C_14  and  C_28
REMARK    4  A    between atoms: C_15  and  N_17
REMARK    5  A    between atoms: N_17  and  S_18
REMARK    6  A    between atoms: S_18  and  C_21
REMARK                            x       y       z     vdW  Elec       q    Type
REMARK                         _______ _______ _______ _____ _____    ______ ____
ROOT
ATOM      1  C   UNL     1       0.499  -5.598   2.569  0.00  0.00    +0.002 A 
ATOM      2  C   UNL     1       0.594  -5.710   3.955  0.00  0.00    +0.010 A 
ATOM      3  C   UNL     1       0.537  -6.953   4.553  0.00  0.00    +0.006 A 
ATOM      4  C   UNL     1       0.387  -8.089   3.781  0.00  0.00    -0.028 A 
ATOM      5  C   UNL     1       0.291  -7.987   2.399  0.00  0.00    +0.052 A 
ATOM      6  C   UNL     1       0.341  -6.741   1.791  0.00  0.00    +0.034 A 
ATOM      7  C   UNL     1       0.327  -9.443   4.441  0.00  0.00    +0.046 C 
ENDROOT
BRANCH   1  14
ATOM      8  C   UNL     1       0.951   1.563   0.802  0.00  0.00    +0.044 C 
ATOM      9  C   UNL     1       0.818   0.067   0.683  0.00  0.00    -0.046 A 
ATOM     10  C   UNL     1       0.667  -0.530  -0.579  0.00  0.00    +0.021 A 
ATOM     11  C   UNL     1       0.548  -1.869  -0.690  0.00  0.00    +0.093 A 
ATOM     12  N   UNL     1       0.571  -2.664   0.421  0.00  0.00    -0.308 N 
ATOM     13  C   UNL     1       0.472  -4.016   0.588  0.00  0.00    +0.118 A 
ATOM     14  C   UNL     1       0.559  -4.262   1.925  0.00  0.00    +0.065 A 
ATOM     15  N   UNL     1       0.707  -3.089   2.560  0.00  0.00    -0.339 N 
ATOM     16  C   UNL     1       0.717  -2.110   1.667  0.00  0.00    +0.116 A 
ATOM     17  C   UNL     1       0.849  -0.713   1.798  0.00  0.00    +0.048 A 
ATOM     18  H   UNL     1       0.793  -2.975   3.520  0.00  0.00    +0.167 HD
ENDBRANCH   1  14
BRANCH   5  19
ATOM     19  N   UNL     1       0.139  -9.138   1.622  0.00  0.00    -0.216 N 
ATOM     20  H   UNL     1      -0.385  -9.883   1.956  0.00  0.00    +0.174 HD
BRANCH  19  21
ATOM     21  S   UNL     1       0.852  -9.230   0.130  0.00  0.00    +0.072 S 
ATOM     22  O   UNL     1       0.630 -10.551  -0.345  0.00  0.00    -0.150 OA
ATOM     23  O   UNL     1       0.434  -8.080  -0.592  0.00  0.00    -0.150 OA
BRANCH  21  24
ATOM     24  C   UNL     1       2.590  -9.068   0.373  0.00  0.00    +0.109 A 
ATOM     25  C   UNL     1       3.176  -7.816   0.355  0.00  0.00    +0.030 A 
ATOM     26  C   UNL     1       4.539  -7.688   0.545  0.00  0.00    +0.022 A 
ATOM     27  C   UNL     1       5.317  -8.813   0.754  0.00  0.00    +0.041 A 
ATOM     28  C   UNL     1       4.730 -10.066   0.771  0.00  0.00    +0.022 A 
ATOM     29  C   UNL     1       3.366 -10.192   0.587  0.00  0.00    +0.030 A 
ATOM     30 CL   UNL     1       7.029  -8.653   0.992  0.00  0.00    -0.084 Cl
ENDBRANCH  21  24
ENDBRANCH  19  21
ENDBRANCH   5  19
TORSDOF 4
