REMARK  Name = ZINC13601429
REMARK  8 active torsions:
REMARK  status: ('A' for Active; 'I' for Inactive)
REMARK    1  A    between atoms: C_1  and  C_2
REMARK    2  A    between atoms: C_7  and  N_8
REMARK    3  A    between atoms: N_8  and  N_9
REMARK    4  A    between atoms: C_11  and  C_25
REMARK    5  A    between atoms: C_18  and  C_21
REMARK    6  A    between atoms: C_21  and  C_22
REMARK    7  A    between atoms: C_21  and  C_23
REMARK    8  A    between atoms: C_21  and  C_24
REMARK                            x       y       z     vdW  Elec       q    Type
REMARK                         _______ _______ _______ _____ _____    ______ ____
ROOT
ATOM      1  N   UNL     1       0.045  -0.671   3.527  0.00  0.00    -0.175 NA
ATOM      2  C   UNL     1       0.048  -0.019   4.676  0.00  0.00    +0.168 C 
ATOM      3  C   UNL     1       0.074  -0.590   6.031  0.00  0.00    +0.089 C 
ATOM      4  N   UNL     1       0.068   0.397   6.873  0.00  0.00    -0.173 NA
ATOM      5  N   UNL     1       0.038   1.627   6.216  0.00  0.00    -0.130 N 
ATOM      6  C   UNL     1       0.031   1.439   4.880  0.00  0.00    +0.294 C 
ATOM      7  O   UNL     1       0.011   2.301   4.019  0.00  0.00    -0.266 OA
ATOM      8  C   UNL     1       0.025   2.867   6.846  0.00  0.00    +0.188 A 
ATOM      9  N   UNL     1       0.043   3.129   8.136  0.00  0.00    -0.227 NA
ATOM     10  C   UNL     1       0.027   4.372   8.580  0.00  0.00    +0.056 A 
ATOM     11  C   UNL     1      -0.008   5.358   7.650  0.00  0.00    +0.072 A 
ATOM     12  S   UNL     1      -0.010   4.397   6.145  0.00  0.00    -0.058 S 
ATOM     13  C   UNL     1       0.103  -2.057   6.379  0.00  0.00    +0.070 C 
ENDROOT
BRANCH  10  14
ATOM     14  C   UNL     1       0.046   4.681  10.055  0.00  0.00    +0.005 C 
ATOM     15  C   UNL     1      -1.349   5.123  10.501  0.00  0.00    +0.017 C 
ATOM     16  C   UNL     1       0.457   3.429  10.832  0.00  0.00    +0.017 C 
ATOM     17  C   UNL     1       1.049   5.803  10.328  0.00  0.00    +0.017 C 
ENDBRANCH  10  14
BRANCH   1  18
ATOM     18  N   UNL     1       0.026  -0.018   2.414  0.00  0.00    -0.237 N 
ATOM     19  H   UNL     1       0.013   0.952   2.422  0.00  0.00    +0.174 HD
BRANCH  18  26
ATOM     20  C   UNL     1      -0.018   1.503   0.010  0.00  0.00    +0.046 C 
ATOM     21  C   UNL     1       0.002  -0.004   0.002  0.00  0.00    -0.027 A 
ATOM     22  C   UNL     1       0.006  -0.689  -1.197  0.00  0.00    +0.019 A 
ATOM     23  C   UNL     1       0.024  -2.072  -1.206  0.00  0.00    +0.014 A 
ATOM     24  C   UNL     1       0.039  -2.774  -0.013  0.00  0.00    +0.016 A 
ATOM     25  C   UNL     1       0.035  -2.096   1.189  0.00  0.00    +0.026 A 
ATOM     26  C   UNL     1       0.023  -0.706   1.201  0.00  0.00    +0.051 A 
ATOM     27  I   UNL     1       0.029  -3.106  -3.028  0.00  0.00    -0.044 I 
ENDBRANCH  18  26
ENDBRANCH   1  18
TORSDOF 3
