REMARK  Name = ZINC25611792
REMARK  4 active torsions:
REMARK  status: ('A' for Active; 'I' for Inactive)
REMARK    1  A    between atoms: C_3  and  N_24
REMARK    2  A    between atoms: C_4  and  N_10
REMARK    3  A    between atoms: C_6  and  C_7
REMARK    4  A    between atoms: C_11  and  C_13
REMARK                            x       y       z     vdW  Elec       q    Type
REMARK                         _______ _______ _______ _____ _____    ______ ____
ROOT
ATOM      1  C   UNL     1       4.262   3.286   5.557  0.00  0.00    +0.015 A 
ATOM      2  C   UNL     1       5.074   3.668   4.512  0.00  0.00    +0.026 A 
ATOM      3  C   UNL     1       4.685   3.425   3.200  0.00  0.00    +0.051 A 
ATOM      4  C   UNL     1       3.463   2.801   2.936  0.00  0.00    +0.055 A 
ATOM      5  C   UNL     1       2.645   2.416   3.981  0.00  0.00    +0.038 A 
ATOM      6  C   UNL     1       3.041   2.657   5.300  0.00  0.00    +0.038 A 
ENDROOT
BRANCH   3   7
ATOM      7  N   UNL     1       5.512   3.808   2.148  0.00  0.00    -0.328 N 
ATOM      8  C   UNL     1       6.778   3.063   2.175  0.00  0.00    +0.105 C 
ATOM      9  C   UNL     1       7.597   3.402   0.927  0.00  0.00    +0.019 C 
ATOM     10  C   UNL     1       7.870   4.909   0.895  0.00  0.00    +0.003 C 
ATOM     11  C   UNL     1       6.537   5.661   0.917  0.00  0.00    +0.019 C 
ATOM     12  C   UNL     1       5.748   5.257   2.164  0.00  0.00    +0.105 C 
ENDBRANCH   3   7
BRANCH   6  13
ATOM     13  C   UNL     1       2.171   2.248   6.419  0.00  0.00    +0.242 C 
ATOM     14  O   UNL     1       1.109   1.700   6.195  0.00  0.00    -0.270 OA
ATOM     15  N   UNL     1       2.554   2.481   7.690  0.00  0.00    -0.325 N 
ATOM     16  H   UNL     1       1.905   2.175   8.525  0.00  0.00    +0.145 HD
ATOM     17  H   UNL     1       3.514   2.976   7.893  0.00  0.00    +0.145 HD
ENDBRANCH   6  13
BRANCH   4  18
ATOM     18  N   UNL     1       3.070   2.561   1.613  0.00  0.00    -0.281 N 
ATOM     19  C   UNL     1       2.207   1.563   1.337  0.00  0.00    +0.258 C 
ATOM     20  O   UNL     1       1.848   0.810   2.217  0.00  0.00    -0.271 OA
ATOM     21  H   UNL     1       3.465   3.186   0.799  0.00  0.00    +0.155 HD
BRANCH  19  22
ATOM     22  C   UNL     1       1.687   1.382  -0.067  0.00  0.00    +0.263 C 
ATOM     23  C   UNL     1       2.808   0.876  -1.005  0.00  0.00    +0.093 C 
ATOM     24  C   UNL     1       2.617  -0.627  -0.940  0.00  0.00    -0.000 A 
ATOM     25  C   UNL     1       3.430  -1.679  -1.301  0.00  0.00    +0.027 A 
ATOM     26  C   UNL     1       3.002  -2.981  -1.109  0.00  0.00    +0.041 A 
ATOM     27  C   UNL     1       1.757  -3.220  -0.553  0.00  0.00    +0.023 A 
ATOM     28  C   UNL     1       0.941  -2.167  -0.195  0.00  0.00    +0.047 A 
ATOM     29  C   UNL     1       1.363  -0.854  -0.389  0.00  0.00    +0.125 A 
ATOM     30  O   UNL     1       0.723   0.317  -0.120  0.00  0.00    -0.479 OA
ATOM     31 CL   UNL     1       4.022  -4.310  -1.564  0.00  0.00    -0.084 Cl
ENDBRANCH  19  22
ENDBRANCH   4  18
TORSDOF 4
