REMARK  Name = ZINC02336725
REMARK  5 active torsions:
REMARK  status: ('A' for Active; 'I' for Inactive)
REMARK    1  A    between atoms: C_1  and  C_2
REMARK    2  A    between atoms: C_10  and  C_18
REMARK    3  A    between atoms: C_25  and  C_28
REMARK    4  A    between atoms: C_31  and  S_34
REMARK    5  A    between atoms: S_34  and  C_35
REMARK                            x       y       z     vdW  Elec       q    Type
REMARK                         _______ _______ _______ _____ _____    ______ ____
ROOT
ATOM      1  C   UNL     1      -0.018   1.503   0.010  0.00  0.00    +0.044 C 
ATOM      2  C   UNL     1       0.002  -0.004   0.002  0.00  0.00    -0.050 A 
ATOM      3  C   UNL     1       0.006  -0.687  -1.202  0.00  0.00    +0.007 A 
ATOM      4  C   UNL     1       0.025  -2.069  -1.225  0.00  0.00    +0.046 A 
ATOM      5  C   UNL     1       0.040  -2.778  -0.037  0.00  0.00    +0.131 A 
ATOM      6  C   UNL     1       0.037  -2.087   1.181  0.00  0.00    +0.043 A 
ATOM      7  C   UNL     1       0.023  -0.699   1.196  0.00  0.00    +0.017 A 
ATOM      8  C   UNL     1       0.059  -2.877   2.438  0.00  0.00    +0.083 C 
ATOM      9  C   UNL     1       0.404  -4.179   2.350  0.00  0.00    +0.028 C 
ATOM     10  C   UNL     1       0.421  -4.996   3.622  0.00  0.00    +0.163 C 
ATOM     11  N   UNL     1       0.056  -4.282   4.854  0.00  0.00    -0.182 N 
ATOM     12  C   UNL     1      -0.264  -2.957   4.774  0.00  0.00    +0.209 C 
ATOM     13  N   UNL     1      -0.256  -2.312   3.629  0.00  0.00    -0.216 NA
ATOM     14  N   UNL     1      -0.556  -2.555   6.051  0.00  0.00    -0.275 N 
ATOM     15  C   UNL     1      -0.411  -3.636   6.885  0.00  0.00    +0.208 C 
ATOM     16  N   UNL     1      -0.050  -4.667   6.191  0.00  0.00    -0.169 NA
ATOM     17  C   UNL     1       0.765  -4.785   1.026  0.00  0.00    +0.234 C 
ATOM     18  O   UNL     1       0.054  -4.136  -0.030  0.00  0.00    -0.479 OA
ATOM     19  H   UNL     1      -0.819  -1.660   6.319  0.00  0.00    +0.156 HD
ENDROOT
BRANCH  10  20
ATOM     20  C   UNL     1       1.809  -5.555   3.801  0.00  0.00    -0.021 A 
ATOM     21  C   UNL     1       2.812  -4.761   4.326  0.00  0.00    +0.008 A 
ATOM     22  C   UNL     1       4.085  -5.272   4.492  0.00  0.00    +0.038 A 
ATOM     23  C   UNL     1       4.356  -6.582   4.132  0.00  0.00    +0.123 A 
ATOM     24  C   UNL     1       3.352  -7.377   3.607  0.00  0.00    +0.038 A 
ATOM     25  C   UNL     1       2.078  -6.864   3.447  0.00  0.00    +0.008 A 
ATOM     26  F   UNL     1       5.600  -7.083   4.294  0.00  0.00    -0.205 F 
ENDBRANCH  10  20
BRANCH  17  27
ATOM     27  C   UNL     1       2.246  -4.631   0.794  0.00  0.00    -0.003 A 
ATOM     28  C   UNL     1       2.752  -3.423   0.349  0.00  0.00    +0.008 A 
ATOM     29  C   UNL     1       4.109  -3.278   0.135  0.00  0.00    +0.015 A 
ATOM     30  C   UNL     1       4.965  -4.347   0.368  0.00  0.00    +0.008 A 
ATOM     31  C   UNL     1       4.453  -5.559   0.815  0.00  0.00    +0.015 A 
ATOM     32  C   UNL     1       3.096  -5.695   1.032  0.00  0.00    +0.008 A 
BRANCH  30  33
ATOM     33  S   UNL     1       6.697  -4.167   0.096  0.00  0.00    -0.129 S 
ATOM     34  C   UNL     1       7.380  -5.791   0.526  0.00  0.00    +0.090 C 
ENDBRANCH  30  33
ENDBRANCH  17  27
TORSDOF 3
