REMARK  Name = ZINC36717480
REMARK  7 active torsions:
REMARK  status: ('A' for Active; 'I' for Inactive)
REMARK    1  A    between atoms: C_3  and  C_25
REMARK    2  A    between atoms: C_6  and  C_7
REMARK    3  A    between atoms: C_9  and  C_12
REMARK    4  A    between atoms: C_12  and  N_13
REMARK    5  A    between atoms: N_13  and  C_14
REMARK    6  A    between atoms: C_17  and  O_21
REMARK    7  A    between atoms: O_21  and  C_22
REMARK                            x       y       z     vdW  Elec       q    Type
REMARK                         _______ _______ _______ _____ _____    ______ ____
ROOT
ATOM      1  C   UNL     1      -1.272  -0.766   0.011  0.00  0.00    +0.202 A 
ATOM      2  N   UNL     1      -1.384  -2.107   0.010  0.00  0.00    -0.190 NA
ATOM      3  C   UNL     1      -2.640  -2.449   0.019  0.00  0.00    +0.245 A 
ATOM      4  O   UNL     1      -3.384  -1.335   0.025  0.00  0.00    -0.336 OA
ATOM      5  N   UNL     1      -2.474  -0.246   0.026  0.00  0.00    -0.056 NA
ENDROOT
BRANCH   1  11
ATOM      6  C   UNL     1      -0.017   1.389   0.010  0.00  0.00    +0.012 A 
ATOM      7  C   UNL     1       1.170   2.093   0.002  0.00  0.00    +0.013 A 
ATOM      8  C   UNL     1       2.377   1.418  -0.013  0.00  0.00    +0.055 A 
ATOM      9  C   UNL     1       2.402   0.035  -0.021  0.00  0.00    +0.013 A 
ATOM     10  C   UNL     1       1.221  -0.679  -0.014  0.00  0.00    +0.012 A 
ATOM     11  C   UNL     1       0.002  -0.004   0.002  0.00  0.00    +0.022 A 
BRANCH   8  12
ATOM     12  C   UNL     1       3.671   2.192  -0.023  0.00  0.00    +0.417 C 
ATOM     13  F   UNL     1       4.084   2.424   1.293  0.00  0.00    -0.166 F 
ATOM     14  F   UNL     1       4.651   1.454  -0.696  0.00  0.00    -0.166 F 
ATOM     15  F   UNL     1       3.478   3.414  -0.674  0.00  0.00    -0.166 F 
ENDBRANCH   8  12
ENDBRANCH   1  11
BRANCH   3  16
ATOM     16  C   UNL     1      -3.168  -3.860   0.021  0.00  0.00    +0.200 C 
BRANCH  16  17
ATOM     17  N   UNL     1      -3.329  -4.319   1.403  0.00  0.00    -0.335 N 
ATOM     18  H   UNL     1      -3.103  -3.730   2.139  0.00  0.00    +0.147 HD
BRANCH  17  19
ATOM     19  C   UNL     1      -3.810  -5.608   1.661  0.00  0.00    +0.029 A 
ATOM     20  C   UNL     1      -4.128  -6.455   0.607  0.00  0.00    +0.026 A 
ATOM     21  C   UNL     1      -4.602  -7.727   0.862  0.00  0.00    +0.049 A 
ATOM     22  C   UNL     1      -4.760  -8.159   2.170  0.00  0.00    +0.145 A 
ATOM     23  C   UNL     1      -4.442  -7.315   3.224  0.00  0.00    +0.084 A 
ATOM     24  C   UNL     1      -3.962  -6.043   2.970  0.00  0.00    +0.046 A 
ATOM     25 CL   UNL     1      -4.640  -7.857   4.861  0.00  0.00    -0.080 Cl
BRANCH  22  26
ATOM     26  O   UNL     1      -5.227  -9.412   2.419  0.00  0.00    -0.433 OA
BRANCH  26  27
ATOM     27  C   UNL     1      -5.535 -10.228   1.287  0.00  0.00    +0.541 C 
ATOM     28  F   UNL     1      -6.524  -9.604   0.518  0.00  0.00    -0.166 F 
ATOM     29  F   UNL     1      -4.384 -10.403   0.512  0.00  0.00    -0.166 F 
ENDBRANCH  26  27
ENDBRANCH  22  26
ENDBRANCH  17  19
ENDBRANCH  16  17
ENDBRANCH   3  16
TORSDOF 7
