REMARK  Name = ZINC59264646
REMARK  5 active torsions:
REMARK  status: ('A' for Active; 'I' for Inactive)
REMARK    1  A    between atoms: C_3  and  C_6
REMARK    2  A    between atoms: C_6  and  C_8
REMARK    3  A    between atoms: C_6  and  N_28
REMARK    4  A    between atoms: C_8  and  N_9
REMARK    5  A    between atoms: C_16  and  C_18
REMARK                            x       y       z     vdW  Elec       q    Type
REMARK                         _______ _______ _______ _____ _____    ______ ____
ROOT
ATOM      1  N   UNL     1       5.785   2.168  -1.371  0.00  0.00    -0.300 N 
ATOM      2  C   UNL     1       6.521   2.208  -2.499  0.00  0.00    +0.303 C 
ATOM      3  O   UNL     1       6.043   1.828  -3.551  0.00  0.00    -0.253 OA
ATOM      4  N   UNL     1       7.787   2.669  -2.463  0.00  0.00    -0.279 N 
ATOM      5  C   UNL     1       8.490   3.153  -1.261  0.00  0.00    +0.110 C 
ATOM      6  C   UNL     1       9.589   4.103  -1.800  0.00  0.00    +0.021 C 
ATOM      7  C   UNL     1      10.020   3.374  -3.100  0.00  0.00    +0.029 C 
ATOM      8  C   UNL     1       8.697   2.766  -3.613  0.00  0.00    +0.108 C 
ATOM      9  H   UNL     1       6.166   2.472  -0.532  0.00  0.00    +0.150 HD
ENDROOT
BRANCH   8  10
ATOM     10  C   UNL     1       8.948   1.395  -4.186  0.00  0.00    -0.023 A 
ATOM     11  C   UNL     1       9.082   0.309  -3.341  0.00  0.00    +0.009 A 
ATOM     12  C   UNL     1       9.314  -0.950  -3.863  0.00  0.00    +0.050 A 
ATOM     13  C   UNL     1       9.412  -1.127  -5.235  0.00  0.00    +0.162 A 
ATOM     14  C   UNL     1       9.274  -0.035  -6.084  0.00  0.00    +0.162 A 
ATOM     15  C   UNL     1       9.038   1.225  -5.554  0.00  0.00    +0.055 A 
ATOM     16  O   UNL     1       9.360  -0.187  -7.434  0.00  0.00    -0.485 OA
ATOM     17  C   UNL     1       9.960  -1.397  -7.908  0.00  0.00    +0.270 C 
ATOM     18  C   UNL     1       9.362  -2.571  -7.123  0.00  0.00    +0.270 C 
ATOM     19  O   UNL     1       9.644  -2.372  -5.734  0.00  0.00    -0.485 OA
ENDBRANCH   8  10
BRANCH   1  20
ATOM     20  C   UNL     1       4.409   1.667  -1.411  0.00  0.00    +0.095 C 
BRANCH  20  21
ATOM     21  C   UNL     1       3.759   1.852  -0.038  0.00  0.00    -0.013 C 
BRANCH  21  22
ATOM     22  N   UNL     1       2.426   1.234  -0.041  0.00  0.00    +0.386 N 
ATOM     23  C   UNL     1       2.539  -0.229  -0.271  0.00  0.00    -0.078 C 
ATOM     24  C   UNL     1       1.210  -0.782   0.302  0.00  0.00    -0.020 C 
ATOM     25  C   UNL     1       0.973   0.107   1.544  0.00  0.00    -0.020 C 
ATOM     26  C   UNL     1       1.791   1.386   1.286  0.00  0.00    -0.078 C 
ATOM     27  H   UNL     1       1.848   1.655  -0.753  0.00  0.00    -0.081 HD
ENDBRANCH  21  22
BRANCH  21  30
ATOM     28  C   UNL     1       4.105   5.446   1.173  0.00  0.00    +0.008 A 
ATOM     29  C   UNL     1       4.418   4.106   1.040  0.00  0.00    +0.009 A 
ATOM     30  C   UNL     1       3.630   3.322   0.263  0.00  0.00    -0.022 A 
ATOM     31  S   UNL     1       2.403   4.485  -0.310  0.00  0.00    -0.103 S 
ATOM     32  C   UNL     1       3.022   5.937   0.524  0.00  0.00    +0.045 A 
ENDBRANCH  21  30
ENDBRANCH  20  21
ENDBRANCH   1  20
TORSDOF 5
