REMARK  Name = ZINC40317275
REMARK  16 active torsions:
REMARK  status: ('A' for Active; 'I' for Inactive)
REMARK    1  A    between atoms: C_1  and  C_2
REMARK    2  A    between atoms: C_4  and  O_9
REMARK    3  A    between atoms: O_9  and  C_10
REMARK    4  A    between atoms: C_10  and  C_11
REMARK    5  A    between atoms: C_11  and  C_13
REMARK    6  A    between atoms: C_11  and  O_36
REMARK    7  A    between atoms: C_13  and  N_14
REMARK    8  A    between atoms: N_14  and  C_15
REMARK    9  A    between atoms: N_14  and  C_28
REMARK   10  A    between atoms: C_15  and  C_16
REMARK   11  A    between atoms: C_18  and  O_26
REMARK   12  A    between atoms: C_19  and  O_24
REMARK   13  A    between atoms: C_20  and  O_22
REMARK   14  A    between atoms: O_22  and  C_23
REMARK   15  A    between atoms: O_24  and  C_25
REMARK   16  A    between atoms: O_26  and  C_27
REMARK                            x       y       z     vdW  Elec       q    Type
REMARK                         _______ _______ _______ _____ _____    ______ ____
ROOT
ATOM      1  N   UNL     1       1.523  -7.545  -4.821  0.00  0.00    +0.387 N 
ATOM      2  H   UNL     1       1.938  -8.276  -5.379  0.00  0.00    -0.081 HD
ENDROOT
BRANCH   1   3
ATOM      3  C   UNL     1       1.599  -6.271  -5.549  0.00  0.00    -0.045 C 
ATOM      4  C   UNL     1       1.407  -6.520  -7.054  0.00  0.00    +0.009 C 
ATOM      5  C   UNL     1       1.800  -5.254  -7.853  0.00  0.00    +0.164 C 
ATOM      6  S   UNL     1       3.052  -4.462  -6.764  0.00  0.00    -0.033 S 
ATOM      7  O   UNL     1       2.564  -3.195  -6.343  0.00  0.00    -0.174 OA
ATOM      8  O   UNL     1       4.327  -4.549  -7.386  0.00  0.00    -0.174 OA
ATOM      9  C   UNL     1       2.999  -5.628  -5.339  0.00  0.00    +0.151 C 
ENDBRANCH   1   3
BRANCH   1  10
ATOM     10  C   UNL     1       2.249  -7.426  -3.550  0.00  0.00    -0.043 C 
BRANCH  10  11
ATOM     11  C   UNL     1       3.114  -8.671  -3.338  0.00  0.00    +0.135 C 
BRANCH  11  12
ATOM     12  O   UNL     1       3.937  -8.880  -4.488  0.00  0.00    -0.390 OA
ATOM     13  H   UNL     1       4.595  -8.186  -4.632  0.00  0.00    +0.210 HD
ENDBRANCH  11  12
BRANCH  11  14
ATOM     14  C   UNL     1       3.999  -8.474  -2.106  0.00  0.00    +0.258 C 
BRANCH  14  15
ATOM     15  O   UNL     1       4.720  -9.679  -1.840  0.00  0.00    -0.489 OA
BRANCH  15  19
ATOM     16  C   UNL     1       7.936 -12.033   0.976  0.00  0.00    +0.045 C 
ATOM     17  C   UNL     1       7.142 -10.800   0.633  0.00  0.00    -0.029 A 
ATOM     18  C   UNL     1       6.290 -10.808  -0.455  0.00  0.00    +0.050 A 
ATOM     19  C   UNL     1       5.559  -9.672  -0.770  0.00  0.00    +0.121 A 
ATOM     20  C   UNL     1       5.684  -8.530   0.007  0.00  0.00    +0.047 A 
ATOM     21  C   UNL     1       6.537  -8.526   1.093  0.00  0.00    +0.024 A 
ATOM     22  C   UNL     1       7.262  -9.662   1.410  0.00  0.00    +0.044 A 
ATOM     23 CL   UNL     1       8.328  -9.656   2.780  0.00  0.00    -0.083 Cl
ENDBRANCH  15  19
ENDBRANCH  14  15
ENDBRANCH  11  14
ENDBRANCH  10  11
ENDBRANCH   1  10
BRANCH   1  24
ATOM     24  C   UNL     1       0.116  -7.873  -4.553  0.00  0.00    -0.042 C 
BRANCH  24  25
ATOM     25  C   UNL     1      -0.559  -8.276  -5.838  0.00  0.00    -0.057 A 
ATOM     26  C   UNL     1      -1.914  -8.056  -6.003  0.00  0.00    +0.051 A 
ATOM     27  C   UNL     1      -2.539  -8.426  -7.184  0.00  0.00    +0.165 A 
ATOM     28  C   UNL     1      -1.803  -9.020  -8.202  0.00  0.00    +0.204 A 
ATOM     29  C   UNL     1      -0.441  -9.239  -8.032  0.00  0.00    +0.165 A 
ATOM     30  C   UNL     1       0.178  -8.861  -6.850  0.00  0.00    +0.051 A 
BRANCH  29  31
ATOM     31  O   UNL     1       0.284  -9.820  -9.025  0.00  0.00    -0.491 OA
ATOM     32  C   UNL     1       1.679 -10.015  -8.781  0.00  0.00    +0.277 C 
ENDBRANCH  29  31
BRANCH  28  33
ATOM     33  O   UNL     1      -2.413  -9.385  -9.362  0.00  0.00    -0.488 OA
ATOM     34  C   UNL     1      -2.458  -8.410 -10.407  0.00  0.00    +0.277 C 
ENDBRANCH  28  33
BRANCH  27  35
ATOM     35  O   UNL     1      -3.872  -8.209  -7.346  0.00  0.00    -0.491 OA
ATOM     36  C   UNL     1      -4.566  -7.596  -6.258  0.00  0.00    +0.277 C 
ENDBRANCH  27  35
ENDBRANCH  24  25
ENDBRANCH   1  24
TORSDOF 12
