REMARK  Name = ZINC67454276
REMARK  7 active torsions:
REMARK  status: ('A' for Active; 'I' for Inactive)
REMARK    1  A    between atoms: C_1  and  C_2
REMARK    2  A    between atoms: C_2  and  N_3
REMARK    3  A    between atoms: C_4  and  C_16
REMARK    4  A    between atoms: C_19  and  O_22
REMARK    5  A    between atoms: O_22  and  C_23
REMARK    6  A    between atoms: C_23  and  C_25
REMARK    7  A    between atoms: C_23  and  C_26
REMARK                            x       y       z     vdW  Elec       q    Type
REMARK                         _______ _______ _______ _____ _____    ______ ____
ROOT
ATOM      1  N   UNL     1      -0.334  -0.138  -1.132  0.00  0.00    -0.275 N 
ATOM      2  C   UNL     1      -0.949  -0.507  -2.407  0.00  0.00    +0.192 C 
ATOM      3  N   UNL     1      -0.069  -0.136  -3.522  0.00  0.00    -0.321 N 
ATOM      4  C   UNL     1       1.289  -0.417  -3.419  0.00  0.00    +0.041 A 
ATOM      5  C   UNL     1       2.069  -0.680  -4.532  0.00  0.00    +0.025 A 
ATOM      6  C   UNL     1       3.413  -0.957  -4.375  0.00  0.00    +0.022 A 
ATOM      7  C   UNL     1       3.986  -0.974  -3.111  0.00  0.00    +0.042 A 
ATOM      8  C   UNL     1       3.222  -0.713  -1.992  0.00  0.00    +0.035 A 
ATOM      9  C   UNL     1       1.866  -0.430  -2.137  0.00  0.00    +0.059 A 
ATOM     10  C   UNL     1       1.007  -0.130  -0.979  0.00  0.00    +0.250 C 
ATOM     11  O   UNL     1       1.500   0.119   0.104  0.00  0.00    -0.270 OA
ATOM     12 CL   UNL     1       5.677  -1.328  -2.937  0.00  0.00    -0.084 Cl
ATOM     13  H   UNL     1      -0.428   0.296  -4.313  0.00  0.00    +0.148 HD
ENDROOT
BRANCH   2  14
ATOM     14  C   UNL     1      -1.184  -1.995  -2.435  0.00  0.00    -0.009 A 
ATOM     15  C   UNL     1      -1.435  -2.677  -1.259  0.00  0.00    +0.010 A 
ATOM     16  C   UNL     1      -1.651  -4.041  -1.282  0.00  0.00    +0.046 A 
ATOM     17  C   UNL     1      -1.615  -4.727  -2.487  0.00  0.00    +0.122 A 
ATOM     18  C   UNL     1      -1.363  -4.041  -3.666  0.00  0.00    +0.046 A 
ATOM     19  C   UNL     1      -1.154  -2.676  -3.638  0.00  0.00    +0.010 A 
BRANCH  17  20
ATOM     20  O   UNL     1      -1.827  -6.069  -2.512  0.00  0.00    -0.475 OA
BRANCH  20  21
ATOM     21  C   UNL     1      -1.962  -6.729  -1.252  0.00  0.00    +0.271 C 
ATOM     22  C   UNL     1      -3.413  -6.627  -0.776  0.00  0.00    +0.068 C 
BRANCH  21  23
ATOM     23  C   UNL     1      -1.592  -8.146  -1.397  0.00  0.00    +0.107 C 
ATOM     24  N   UNL     1      -1.306  -9.240  -1.509  0.00  0.00    -0.193 NA
ENDBRANCH  21  23
ENDBRANCH  20  21
ENDBRANCH  17  20
ENDBRANCH   2  14
BRANCH   1  26
ATOM     25  C   UNL     1      -1.447   1.743  -0.034  0.00  0.00    +0.024 C 
ATOM     26  C   UNL     1      -1.189   0.235  -0.003  0.00  0.00    +0.107 C 
ENDBRANCH   1  26
TORSDOF 5
