REMARK  Name = ZINC16569917
REMARK  9 active torsions:
REMARK  status: ('A' for Active; 'I' for Inactive)
REMARK    1  A    between atoms: C_1  and  C_2
REMARK    2  A    between atoms: C_6  and  N_9
REMARK    3  A    between atoms: C_7  and  C_8
REMARK    4  A    between atoms: N_12  and  C_13
REMARK    5  A    between atoms: N_12  and  C_37
REMARK    6  A    between atoms: C_13  and  C_14
REMARK    7  A    between atoms: C_28  and  C_30
REMARK    8  A    between atoms: C_37  and  C_38
REMARK    9  A    between atoms: C_37  and  C_39
REMARK                            x       y       z     vdW  Elec       q    Type
REMARK                         _______ _______ _______ _____ _____    ______ ____
ROOT
ATOM      1  C   UNL     1      -1.801   2.187   1.566  0.00  0.00    +0.238 C 
ATOM      2  O   UNL     1      -1.065   1.942   2.498  0.00  0.00    -0.273 OA
ATOM      3  N   UNL     1      -3.033   2.686   1.794  0.00  0.00    -0.255 N 
ATOM      4  C   UNL     1      -3.427   3.007   3.100  0.00  0.00    +0.061 A 
ATOM      5  C   UNL     1      -2.901   2.320   4.183  0.00  0.00    +0.025 A 
ATOM      6  C   UNL     1      -3.292   2.654   5.466  0.00  0.00    +0.002 A 
ATOM      7  C   UNL     1      -4.205   3.670   5.679  0.00  0.00    +0.002 A 
ATOM      8  C   UNL     1      -4.739   4.360   4.604  0.00  0.00    +0.028 A 
ATOM      9  C   UNL     1      -4.357   4.029   3.319  0.00  0.00    +0.068 A 
ATOM     10  N   UNL     1      -4.888   4.682   2.198  0.00  0.00    -0.316 N 
ATOM     11  C   UNL     1      -5.606   5.827   2.113  0.00  0.00    +0.092 A 
ATOM     12  C   UNL     1      -5.885   6.054   0.809  0.00  0.00    +0.020 A 
ATOM     13  C   UNL     1      -5.315   4.999   0.062  0.00  0.00    +0.025 A 
ATOM     14  C   UNL     1      -4.715   4.175   0.928  0.00  0.00    +0.049 A 
ATOM     15  C   UNL     1      -3.959   2.899   0.669  0.00  0.00    +0.159 C 
ENDROOT
BRANCH  15  16
ATOM     16  C   UNL     1      -4.926   1.747   0.579  0.00  0.00    -0.021 A 
ATOM     17  C   UNL     1      -5.449   1.192   1.733  0.00  0.00    +0.008 A 
ATOM     18  C   UNL     1      -6.340   0.139   1.651  0.00  0.00    +0.038 A 
ATOM     19  C   UNL     1      -6.701  -0.367   0.414  0.00  0.00    +0.123 A 
ATOM     20  C   UNL     1      -6.173   0.186  -0.740  0.00  0.00    +0.038 A 
ATOM     21  C   UNL     1      -5.286   1.242  -0.656  0.00  0.00    +0.008 A 
ATOM     22  F   UNL     1      -7.568  -1.401   0.334  0.00  0.00    -0.205 F 
ENDBRANCH  15  16
BRANCH   1  23
ATOM     23  C   UNL     1      -1.340   1.934   0.154  0.00  0.00    +0.205 C 
BRANCH  23  27
ATOM     24  N   UNL     1       1.014   3.369   0.242  0.00  0.00    -0.269 N 
ATOM     25  C   UNL     1       1.095   2.026   0.166  0.00  0.00    +0.307 C 
ATOM     26  O   UNL     1       2.181   1.486   0.086  0.00  0.00    -0.252 OA
ATOM     27  N   UNL     1      -0.029   1.281   0.178  0.00  0.00    -0.274 N 
ATOM     28  H   UNL     1       0.153   3.796   0.374  0.00  0.00    +0.156 HD
BRANCH  24  34
ATOM     29  C   UNL     1       3.211   7.497  -1.275  0.00  0.00    +0.044 C 
ATOM     30  C   UNL     1       3.265   6.152  -0.599  0.00  0.00    -0.046 A 
ATOM     31  C   UNL     1       4.462   5.685  -0.085  0.00  0.00    +0.004 A 
ATOM     32  C   UNL     1       4.516   4.451   0.536  0.00  0.00    +0.002 A 
ATOM     33  C   UNL     1       3.374   3.681   0.647  0.00  0.00    +0.023 A 
ATOM     34  C   UNL     1       2.172   4.147   0.133  0.00  0.00    +0.038 A 
ATOM     35  C   UNL     1       2.122   5.384  -0.496  0.00  0.00    -0.026 A 
ATOM     36  C   UNL     1       0.820   5.891  -1.062  0.00  0.00    +0.046 C 
ENDBRANCH  24  34
BRANCH  27  37
ATOM     37  C   UNL     1       0.061  -0.181   0.209  0.00  0.00    +0.072 C 
ATOM     38  C   UNL     1      -0.523  -0.700   1.524  0.00  0.00    +0.028 C 
ATOM     39  C   UNL     1      -0.726  -0.765  -0.965  0.00  0.00    +0.028 C 
ENDBRANCH  27  37
ENDBRANCH  23  27
ENDBRANCH   1  23
TORSDOF 5
