REMARK  Name = ZINC15956716
REMARK  4 active torsions:
REMARK  status: ('A' for Active; 'I' for Inactive)
REMARK    1  A    between atoms: C_10  and  N_11
REMARK    2  A    between atoms: C_16  and  C_33
REMARK    3  A    between atoms: C_33  and  C_34
REMARK    4  A    between atoms: C_37  and  O_40
REMARK                            x       y       z     vdW  Elec       q    Type
REMARK                         _______ _______ _______ _____ _____    ______ ____
ROOT
ATOM      1  N   UNL     1       5.368  -0.325  -0.824  0.00  0.00    -0.209 N 
ATOM      2  C   UNL     1       5.686   0.481   0.195  0.00  0.00    +0.232 C 
ATOM      3  O   UNL     1       4.955   0.764   1.119  0.00  0.00    -0.274 OA
ATOM      4  C   UNL     1       7.100   0.984   0.015  0.00  0.00    +0.108 C 
ATOM      5  C   UNL     1       7.999   0.386   1.118  0.00  0.00    +0.072 C 
ATOM      6  N   UNL     1       8.451  -0.923   0.574  0.00  0.00    -0.295 NA
ATOM      7  C   UNL     1       8.685  -0.656  -0.857  0.00  0.00    +0.136 C 
ATOM      8  C   UNL     1       7.557   0.305  -1.306  0.00  0.00    +0.123 C 
ATOM      9  C   UNL     1       6.345  -0.496  -1.722  0.00  0.00    +0.233 C 
ATOM     10  O   UNL     1       6.268  -1.186  -2.717  0.00  0.00    -0.274 OA
ATOM     11  C   UNL     1       8.687  -1.925  -1.662  0.00  0.00    +0.003 A 
ATOM     12  C   UNL     1       7.755  -2.917  -1.872  0.00  0.00    +0.008 A 
ATOM     13  C   UNL     1       8.059  -3.992  -2.688  0.00  0.00    +0.000 A 
ATOM     14  C   UNL     1       9.301  -4.068  -3.292  0.00  0.00    +0.002 A 
ATOM     15  C   UNL     1      10.238  -3.076  -3.086  0.00  0.00    +0.023 A 
ATOM     16  C   UNL     1       9.940  -1.990  -2.266  0.00  0.00    +0.039 A 
ATOM     17  N   UNL     1      10.706  -0.878  -1.910  0.00  0.00    -0.283 N 
ATOM     18  C   UNL     1      10.041  -0.046  -1.085  0.00  0.00    +0.243 C 
ATOM     19  O   UNL     1      10.455   0.994  -0.618  0.00  0.00    -0.273 OA
ATOM     20  H   UNL     1       9.298  -1.230   1.028  0.00  0.00    +0.124 HD
ATOM     21  H   UNL     1      11.612  -0.724  -2.220  0.00  0.00    +0.155 HD
ENDROOT
BRANCH   1  31
ATOM     22  C   UNL     1       0.972   0.916  -2.976  0.00  0.00    +0.001 A 
ATOM     23  C   UNL     1       2.209   1.549  -2.873  0.00  0.00    +0.001 A 
ATOM     24  C   UNL     1       3.245   0.961  -2.215  0.00  0.00    +0.010 A 
ATOM     25  C   UNL     1       3.068  -0.303  -1.629  0.00  0.00    +0.004 A 
ATOM     26  C   UNL     1       1.810  -0.948  -1.732  0.00  0.00    -0.016 A 
ATOM     27  C   UNL     1       0.764  -0.309  -2.420  0.00  0.00    +0.008 A 
ATOM     28  C   UNL     1       1.631  -2.212  -1.146  0.00  0.00    +0.008 A 
ATOM     29  C   UNL     1       2.662  -2.807  -0.485  0.00  0.00    +0.002 A 
ATOM     30  C   UNL     1       3.901  -2.182  -0.376  0.00  0.00    +0.024 A 
ATOM     31  C   UNL     1       4.118  -0.943  -0.938  0.00  0.00    +0.052 A 
ENDBRANCH   1  31
BRANCH   5  32
ATOM     32  C   UNL     1       9.199   1.298   1.380  0.00  0.00    +0.054 C 
BRANCH  32  33
ATOM     33  C   UNL     1       8.870   2.251   2.501  0.00  0.00    -0.046 A 
ATOM     34  C   UNL     1       8.288   3.473   2.219  0.00  0.00    +0.007 A 
ATOM     35  C   UNL     1       7.986   4.348   3.244  0.00  0.00    +0.045 A 
ATOM     36  C   UNL     1       8.266   3.999   4.557  0.00  0.00    +0.117 A 
ATOM     37  C   UNL     1       8.849   2.772   4.837  0.00  0.00    +0.045 A 
ATOM     38  C   UNL     1       9.145   1.899   3.809  0.00  0.00    +0.007 A 
BRANCH  36  39
ATOM     39  O   UNL     1       7.970   4.859   5.568  0.00  0.00    -0.507 OA
ATOM     40  H   UNL     1       7.082   4.744   5.934  0.00  0.00    +0.292 HD
ENDBRANCH  36  39
ENDBRANCH  32  33
ENDBRANCH   5  32
TORSDOF 4
