REMARK  Name = ZINC01026724
REMARK  6 active torsions:
REMARK  status: ('A' for Active; 'I' for Inactive)
REMARK    1  A    between atoms: C_1  and  C_2
REMARK    2  A    between atoms: N_4  and  C_5
REMARK    3  A    between atoms: C_8  and  C_11
REMARK    4  A    between atoms: C_16  and  C_21
REMARK    5  A    between atoms: C_24  and  O_27
REMARK    6  A    between atoms: O_27  and  C_28
REMARK                            x       y       z     vdW  Elec       q    Type
REMARK                         _______ _______ _______ _____ _____    ______ ____
ROOT
ATOM      1  C   UNL     1      -0.636   5.891  -1.225  0.00  0.00    +0.136 C 
ATOM      2  C   UNL     1      -2.100   5.568  -1.414  0.00  0.00    +0.036 C 
ATOM      3  C   UNL     1      -2.791   4.626  -0.752  0.00  0.00    +0.017 C 
ATOM      4  C   UNL     1      -4.259   4.387  -1.065  0.00  0.00    +0.059 C 
ATOM      5  C   UNL     1      -4.925   5.699  -1.473  0.00  0.00    +0.032 C 
ATOM      6  C   UNL     1      -4.196   6.226  -2.715  0.00  0.00    +0.088 C 
ATOM      7  C   UNL     1      -2.740   6.370  -2.388  0.00  0.00    +0.163 C 
ATOM      8  O   UNL     1      -2.086   7.204  -2.982  0.00  0.00    -0.292 OA
ATOM      9  N   UNL     1      -2.283   3.822   0.216  0.00  0.00    -0.316 N 
ATOM     10  C   UNL     1      -1.078   3.135   0.123  0.00  0.00    +0.052 A 
ATOM     11  C   UNL     1      -1.012   1.752   0.136  0.00  0.00    +0.025 A 
ATOM     12  C   UNL     1       0.225   1.132   0.121  0.00  0.00    +0.002 A 
ATOM     13  C   UNL     1       1.383   1.887   0.074  0.00  0.00    +0.002 A 
ATOM     14  C   UNL     1       1.318   3.268   0.029  0.00  0.00    +0.025 A 
ATOM     15  C   UNL     1       0.081   3.893   0.046  0.00  0.00    +0.049 A 
ATOM     16  N   UNL     1      -0.035   5.277  -0.059  0.00  0.00    -0.331 N 
ATOM     17  H   UNL     1      -2.797   3.720   1.032  0.00  0.00    +0.152 HD
ATOM     18  H   UNL     1       0.292   5.840   0.660  0.00  0.00    +0.147 HD
ENDROOT
BRANCH   1  22
ATOM     19  C   UNL     1       1.490   4.585  -4.694  0.00  0.00    +0.033 A 
ATOM     20  C   UNL     1       0.871   3.657  -3.868  0.00  0.00    +0.023 A 
ATOM     21  C   UNL     1       0.184   4.082  -2.747  0.00  0.00    +0.007 A 
ATOM     22  C   UNL     1       0.114   5.430  -2.448  0.00  0.00    -0.023 A 
ATOM     23  C   UNL     1       0.725   6.357  -3.272  0.00  0.00    +0.007 A 
ATOM     24  C   UNL     1       1.417   5.938  -4.391  0.00  0.00    +0.023 A 
BRANCH  19  28
ATOM     25  C   UNL     1       2.576   2.547  -7.667  0.00  0.00    +0.109 C 
ATOM     26  C   UNL     1       1.762   3.077  -6.514  0.00  0.00    +0.214 C 
ATOM     27  O   UNL     1       0.725   2.531  -6.203  0.00  0.00    -0.276 OA
ATOM     28  N   UNL     1       2.187   4.157  -5.830  0.00  0.00    -0.286 N 
ATOM     29  H   UNL     1       2.976   4.638  -6.125  0.00  0.00    +0.155 HD
ENDBRANCH  19  28
ENDBRANCH   1  22
BRANCH   5  30
ATOM     30  C   UNL     1      -6.377   5.456  -1.798  0.00  0.00    -0.043 A 
ATOM     31  C   UNL     1      -6.721   4.560  -2.793  0.00  0.00    +0.007 A 
ATOM     32  C   UNL     1      -8.051   4.332  -3.089  0.00  0.00    +0.046 A 
ATOM     33  C   UNL     1      -9.041   5.010  -2.394  0.00  0.00    +0.120 A 
ATOM     34  C   UNL     1      -8.693   5.913  -1.400  0.00  0.00    +0.046 A 
ATOM     35  C   UNL     1      -7.362   6.134  -1.104  0.00  0.00    +0.007 A 
BRANCH  33  36
ATOM     36  O   UNL     1     -10.350   4.791  -2.686  0.00  0.00    -0.495 OA
ATOM     37  C   UNL     1     -10.634   3.848  -3.722  0.00  0.00    +0.277 C 
ENDBRANCH  33  36
ENDBRANCH   5  30
TORSDOF 4
