REMARK  Name = ZINC09499500
REMARK  8 active torsions:
REMARK  status: ('A' for Active; 'I' for Inactive)
REMARK    1  A    between atoms: C_1  and  C_2
REMARK    2  A    between atoms: C_5  and  N_8
REMARK    3  A    between atoms: C_21  and  S_22
REMARK    4  A    between atoms: S_22  and  C_23
REMARK    5  A    between atoms: C_23  and  C_25
REMARK    6  A    between atoms: C_23  and  C_26
REMARK    7  A    between atoms: C_26  and  C_28
REMARK    8  A    between atoms: C_29  and  C_38
REMARK                            x       y       z     vdW  Elec       q    Type
REMARK                         _______ _______ _______ _____ _____    ______ ____
ROOT
ATOM      1  N   UNL     1       3.613   3.350   0.040  0.00  0.00    -0.245 N 
ATOM      2  C   UNL     1       3.688   2.004   0.084  0.00  0.00    +0.268 A 
ATOM      3  O   UNL     1       4.767   1.444   0.048  0.00  0.00    -0.267 OA
ATOM      4  C   UNL     1       2.442   1.222   0.176  0.00  0.00    +0.064 A 
ATOM      5  C   UNL     1       2.463  -0.171   0.224  0.00  0.00    +0.015 A 
ATOM      6  C   UNL     1       1.276  -0.868   0.310  0.00  0.00    +0.001 A 
ATOM      7  C   UNL     1       0.067  -0.191   0.349  0.00  0.00    +0.002 A 
ATOM      8  C   UNL     1       0.033   1.189   0.302  0.00  0.00    +0.027 A 
ATOM      9  C   UNL     1       1.216   1.907   0.215  0.00  0.00    +0.064 A 
ATOM     10  N   UNL     1       1.214   3.295   0.167  0.00  0.00    -0.255 N 
ATOM     11  C   UNL     1       2.388   3.998   0.081  0.00  0.00    +0.245 A 
ATOM     12  N   UNL     1       2.068   5.269   0.053  0.00  0.00    -0.109 NA
ATOM     13  N   UNL     1       0.791   5.406   0.114  0.00  0.00    -0.120 NA
ATOM     14  C   UNL     1       0.215   4.230   0.185  0.00  0.00    +0.198 A 
ENDROOT
BRANCH   1  19
ATOM     15  C   UNL     1       8.380   6.406  -0.316  0.00  0.00    +0.044 C 
ATOM     16  C   UNL     1       7.114   5.594  -0.222  0.00  0.00    -0.050 A 
ATOM     17  C   UNL     1       6.232   5.565  -1.286  0.00  0.00    +0.005 A 
ATOM     18  C   UNL     1       5.071   4.822  -1.203  0.00  0.00    +0.026 A 
ATOM     19  C   UNL     1       4.789   4.104  -0.048  0.00  0.00    +0.053 A 
ATOM     20  C   UNL     1       5.674   4.140   1.022  0.00  0.00    +0.026 A 
ATOM     21  C   UNL     1       6.836   4.881   0.930  0.00  0.00    +0.005 A 
ENDBRANCH   1  19
BRANCH  14  22
ATOM     22  S   UNL     1      -1.516   3.915   0.286  0.00  0.00    -0.074 S 
BRANCH  22  23
ATOM     23  C   UNL     1      -2.265   5.567   0.267  0.00  0.00    +0.122 C 
ATOM     24  C   UNL     1      -1.853   6.328   1.528  0.00  0.00    +0.028 C 
BRANCH  23  25
ATOM     25  C   UNL     1      -3.765   5.437   0.225  0.00  0.00    +0.178 C 
ATOM     26  O   UNL     1      -4.302   4.445   0.673  0.00  0.00    -0.291 OA
BRANCH  25  27
ATOM     27  C   UNL     1      -4.551   6.475  -0.337  0.00  0.00    +0.046 A 
ATOM     28  C   UNL     1      -4.857   6.652  -1.670  0.00  0.00    +0.024 A 
ATOM     29  N   UNL     1      -5.625   7.749  -1.815  0.00  0.00    -0.358 N 
ATOM     30  H   UNL     1      -5.965   8.075  -2.663  0.00  0.00    +0.166 HD
ATOM     31  C   UNL     1      -5.861   8.345  -0.593  0.00  0.00    +0.047 A 
ATOM     32  C   UNL     1      -5.210   7.579   0.387  0.00  0.00    +0.010 A 
ATOM     33  C   UNL     1      -5.273   7.956   1.725  0.00  0.00    +0.011 A 
ATOM     34  C   UNL     1      -5.988   9.079   2.085  0.00  0.00    +0.001 A 
ATOM     35  C   UNL     1      -6.637   9.833   1.119  0.00  0.00    +0.002 A 
ATOM     36  C   UNL     1      -6.577   9.474  -0.210  0.00  0.00    +0.026 A 
ATOM     37  C   UNL     1      -4.402   5.755  -2.792  0.00  0.00    +0.064 C 
ENDBRANCH  25  27
ENDBRANCH  23  25
ENDBRANCH  22  23
ENDBRANCH  14  22
TORSDOF 5
