REMARK  Name = ZINC60031300
REMARK  9 active torsions:
REMARK  status: ('A' for Active; 'I' for Inactive)
REMARK    1  A    between atoms: C_1  and  C_2
REMARK    2  A    between atoms: C_2  and  C_3
REMARK    3  A    between atoms: C_6  and  C_9
REMARK    4  A    between atoms: C_9  and  C_11
REMARK    5  A    between atoms: C_9  and  N_29
REMARK    6  A    between atoms: C_11  and  N_12
REMARK    7  A    between atoms: C_19  and  C_22
REMARK    8  A    between atoms: N_29  and  C_30
REMARK    9  A    between atoms: N_29  and  C_31
REMARK                            x       y       z     vdW  Elec       q    Type
REMARK                         _______ _______ _______ _____ _____    ______ ____
ROOT
ATOM      1  N   UNL     1      -6.031  -0.323   1.481  0.00  0.00    -0.329 N 
ATOM      2  C   UNL     1      -6.797   0.803   1.764  0.00  0.00    +0.140 A 
ATOM      3  C   UNL     1      -6.682   1.424   3.023  0.00  0.00    +0.049 A 
ATOM      4  C   UNL     1      -7.426   2.525   3.311  0.00  0.00    +0.053 A 
ATOM      5  C   UNL     1      -8.307   3.031   2.337  0.00  0.00    +0.178 A 
ATOM      6  N   UNL     1      -9.145   4.057   2.307  0.00  0.00    -0.128 NA
ATOM      7  N   UNL     1      -9.736   4.098   1.165  0.00  0.00    -0.127 NA
ATOM      8  C   UNL     1      -9.314   3.108   0.400  0.00  0.00    +0.188 A 
ATOM      9  N   UNL     1      -8.396   2.403   1.120  0.00  0.00    -0.191 N 
ATOM     10  N   UNL     1      -7.615   1.277   0.853  0.00  0.00    -0.148 NA
ATOM     11  H   UNL     1      -5.424  -0.678   2.150  0.00  0.00    +0.147 HD
ENDROOT
BRANCH   8  12
ATOM     12  C   UNL     1      -9.755   2.818  -0.980  0.00  0.00    +0.056 A 
ATOM     13  C   UNL     1      -9.224   1.728  -1.671  0.00  0.00    +0.014 A 
ATOM     14  C   UNL     1      -9.640   1.463  -2.960  0.00  0.00    +0.001 A 
ATOM     15  C   UNL     1     -10.580   2.275  -3.569  0.00  0.00    +0.003 A 
ATOM     16  C   UNL     1     -11.111   3.358  -2.892  0.00  0.00    +0.039 A 
ATOM     17  C   UNL     1     -10.709   3.632  -1.598  0.00  0.00    +0.134 A 
ATOM     18  F   UNL     1     -11.232   4.686  -0.935  0.00  0.00    -0.205 F 
ENDBRANCH   8  12
BRANCH   1  19
ATOM     19  C   UNL     1      -6.139  -0.972   0.172  0.00  0.00    +0.092 C 
BRANCH  19  20
ATOM     20  C   UNL     1      -5.270  -2.232   0.154  0.00  0.00    -0.021 C 
BRANCH  20  24
ATOM     21  C   UNL     1      -1.163  -1.137   0.576  0.00  0.00    -0.048 A 
ATOM     22  C   UNL     1      -1.871  -1.598   1.670  0.00  0.00    +0.004 A 
ATOM     23  C   UNL     1      -3.200  -1.952   1.533  0.00  0.00    +0.002 A 
ATOM     24  C   UNL     1      -3.821  -1.845   0.303  0.00  0.00    -0.059 A 
ATOM     25  C   UNL     1      -3.114  -1.383  -0.791  0.00  0.00    +0.002 A 
ATOM     26  C   UNL     1      -1.785  -1.025  -0.653  0.00  0.00    +0.004 A 
BRANCH  21  28
ATOM     27  C   UNL     1       0.384   0.730   1.097  0.00  0.00    +0.009 C 
ATOM     28  C   UNL     1       0.286  -0.751   0.725  0.00  0.00    +0.032 C 
ENDBRANCH  21  28
ENDBRANCH  20  24
BRANCH  20  29
ATOM     29  N   UNL     1      -5.460  -2.939  -1.119  0.00  0.00    +0.382 N 
ATOM     30  C   UNL     1      -4.592  -4.124  -1.155  0.00  0.00    -0.096 C 
ATOM     31  C   UNL     1      -6.863  -3.356  -1.244  0.00  0.00    -0.096 C 
ATOM     32  H   UNL     1      -5.222  -2.325  -1.884  0.00  0.00    -0.082 HD
ENDBRANCH  20  29
ENDBRANCH  19  20
ENDBRANCH   1  19
TORSDOF 6
