REMARK  Name = ZINC03431356
REMARK  10 active torsions:
REMARK  status: ('A' for Active; 'I' for Inactive)
REMARK    1  A    between atoms: C_1  and  C_2
REMARK    2  A    between atoms: C_2  and  C_4
REMARK    3  A    between atoms: C_7  and  O_32
REMARK    4  A    between atoms: C_8  and  C_10
REMARK    5  A    between atoms: C_10  and  N_11
REMARK    6  A    between atoms: C_14  and  C_18
REMARK    7  A    between atoms: C_14  and  C_25
REMARK    8  A    between atoms: C_18  and  C_19
REMARK    9  A    between atoms: C_25  and  C_26
REMARK   10  A    between atoms: O_32  and  C_33
REMARK                            x       y       z     vdW  Elec       q    Type
REMARK                         _______ _______ _______ _____ _____    ______ ____
ROOT
ATOM      1  N   UNL     1      -3.159   1.597   3.257  0.00  0.00    -0.220 N 
ATOM      2  C   UNL     1      -3.899   1.014   4.221  0.00  0.00    +0.247 C 
ATOM      3  O   UNL     1      -3.732   1.092   5.420  0.00  0.00    -0.273 OA
ATOM      4  C   UNL     1      -4.982   0.240   3.496  0.00  0.00    +0.120 C 
ATOM      5  N   UNL     1      -4.701   0.501   2.074  0.00  0.00    -0.284 N 
ATOM      6  C   UNL     1      -3.623   1.306   2.036  0.00  0.00    +0.310 C 
ATOM      7  O   UNL     1      -3.124   1.719   1.008  0.00  0.00    -0.252 OA
ATOM      8  H   UNL     1      -5.198   0.163   1.313  0.00  0.00    +0.151 HD
ENDROOT
BRANCH   1   9
ATOM      9  C   UNL     1      -1.996   2.448   3.514  0.00  0.00    +0.156 C 
BRANCH   9  14
ATOM     10  C   UNL     1       0.941   0.440   4.809  0.00  0.00    +0.018 A 
ATOM     11  C   UNL     1       1.546   0.036   3.612  0.00  0.00    +0.015 A 
ATOM     12  C   UNL     1       1.005   0.407   2.414  0.00  0.00    +0.046 A 
ATOM     13  C   UNL     1      -0.146   1.187   2.377  0.00  0.00    +0.125 A 
ATOM     14  C   UNL     1      -0.752   1.599   3.560  0.00  0.00    +0.013 A 
ATOM     15  C   UNL     1      -0.218   1.225   4.772  0.00  0.00    +0.020 A 
BRANCH  10  17
ATOM     16  C   UNL     1       0.943   0.580   7.382  0.00  0.00    +0.091 C 
ATOM     17  C   UNL     1       1.521   0.043   6.098  0.00  0.00    +0.160 C 
ATOM     18  O   UNL     1       2.466  -0.718   6.130  0.00  0.00    -0.292 OA
ENDBRANCH  10  17
BRANCH  13  19
ATOM     19  O   UNL     1      -0.677   1.552   1.183  0.00  0.00    -0.495 OA
ATOM     20  C   UNL     1      -0.002   1.101   0.008  0.00  0.00    +0.277 C 
ENDBRANCH  13  19
ENDBRANCH   9  14
ENDBRANCH   1   9
BRANCH   4  21
ATOM     21  C   UNL     1      -4.872  -1.255   3.801  0.00  0.00    +0.070 C 
BRANCH  21  22
ATOM     22  C   UNL     1      -3.519  -1.758   3.367  0.00  0.00    -0.045 A 
ATOM     23  C   UNL     1      -3.342  -2.247   2.086  0.00  0.00    +0.004 A 
ATOM     24  C   UNL     1      -2.100  -2.704   1.686  0.00  0.00    +0.000 A 
ATOM     25  C   UNL     1      -1.038  -2.681   2.571  0.00  0.00    +0.000 A 
ATOM     26  C   UNL     1      -1.216  -2.196   3.853  0.00  0.00    +0.000 A 
ATOM     27  C   UNL     1      -2.457  -1.734   4.251  0.00  0.00    +0.004 A 
ENDBRANCH  21  22
ENDBRANCH   4  21
BRANCH   4  28
ATOM     28  C   UNL     1      -6.367   0.768   3.877  0.00  0.00    +0.070 C 
BRANCH  28  29
ATOM     29  C   UNL     1      -6.509   2.192   3.405  0.00  0.00    -0.045 A 
ATOM     30  C   UNL     1      -6.144   3.235   4.236  0.00  0.00    +0.004 A 
ATOM     31  C   UNL     1      -6.269   4.542   3.802  0.00  0.00    +0.000 A 
ATOM     32  C   UNL     1      -6.770   4.806   2.540  0.00  0.00    +0.000 A 
ATOM     33  C   UNL     1      -7.140   3.763   1.712  0.00  0.00    +0.000 A 
ATOM     34  C   UNL     1      -7.009   2.457   2.144  0.00  0.00    +0.004 A 
ENDBRANCH  28  29
ENDBRANCH   4  28
TORSDOF 8
