REMARK  Name = ZINC12532109
REMARK  14 active torsions:
REMARK  status: ('A' for Active; 'I' for Inactive)
REMARK    1  A    between atoms: C_1  and  C_2
REMARK    2  A    between atoms: C_5  and  N_8
REMARK    3  A    between atoms: C_9  and  C_11
REMARK    4  A    between atoms: C_11  and  C_34
REMARK    5  A    between atoms: N_12  and  N_13
REMARK    6  A    between atoms: N_13  and  C_14
REMARK    7  A    between atoms: C_17  and  O_32
REMARK    8  A    between atoms: C_18  and  S_20
REMARK    9  A    between atoms: S_20  and  N_23
REMARK   10  A    between atoms: N_23  and  C_24
REMARK   11  A    between atoms: C_27  and  O_30
REMARK   12  A    between atoms: O_30  and  C_31
REMARK   13  A    between atoms: O_32  and  C_33
REMARK   14  A    between atoms: C_34  and  C_36
REMARK                            x       y       z     vdW  Elec       q    Type
REMARK                         _______ _______ _______ _____ _____    ______ ____
ROOT
ATOM      1  C   UNL     1      -0.012  -8.641  -1.773  0.00  0.00    +0.050 A 
ATOM      2  C   UNL     1       0.148  -8.077  -3.034  0.00  0.00    +0.028 A 
ATOM      3  C   UNL     1       0.210  -8.887  -4.149  0.00  0.00    +0.049 A 
ATOM      4  C   UNL     1       0.113 -10.265  -4.012  0.00  0.00    +0.147 A 
ATOM      5  C   UNL     1      -0.048 -10.830  -2.755  0.00  0.00    +0.152 A 
ATOM      6  C   UNL     1      -0.104 -10.021  -1.637  0.00  0.00    +0.057 A 
ENDROOT
BRANCH   5   7
ATOM      7  S   UNL     1      -0.172 -12.579  -2.584  0.00  0.00    +0.076 S 
ATOM      8  O   UNL     1       0.900 -13.137  -3.331  0.00  0.00    -0.150 OA
ATOM      9  O   UNL     1      -0.352 -12.840  -1.199  0.00  0.00    -0.150 OA
BRANCH   7  10
ATOM     10  N   UNL     1      -1.570 -13.046  -3.339  0.00  0.00    -0.216 N 
ATOM     11  H   UNL     1      -1.533 -13.655  -4.094  0.00  0.00    +0.174 HD
BRANCH  10  12
ATOM     12  C   UNL     1      -2.804 -12.564  -2.889  0.00  0.00    +0.048 A 
ATOM     13  C   UNL     1      -3.094 -12.561  -1.531  0.00  0.00    +0.028 A 
ATOM     14  C   UNL     1      -4.312 -12.084  -1.087  0.00  0.00    +0.047 A 
ATOM     15  C   UNL     1      -5.245 -11.609  -1.997  0.00  0.00    +0.120 A 
ATOM     16  C   UNL     1      -4.955 -11.612  -3.354  0.00  0.00    +0.047 A 
ATOM     17  C   UNL     1      -3.736 -12.083  -3.799  0.00  0.00    +0.028 A 
BRANCH  15  18
ATOM     18  O   UNL     1      -6.444 -11.139  -1.559  0.00  0.00    -0.495 OA
ATOM     19  C   UNL     1      -7.356 -10.665  -2.552  0.00  0.00    +0.277 C 
ENDBRANCH  15  18
ENDBRANCH  10  12
ENDBRANCH   7  10
ENDBRANCH   5   7
BRANCH   1  20
ATOM     20  N   UNL     1      -0.075  -7.823  -0.645  0.00  0.00    -0.237 N 
ATOM     21  H   UNL     1      -0.183  -8.217   0.235  0.00  0.00    +0.174 HD
BRANCH  20  23
ATOM     22  C   UNL     1       0.052  -5.773   0.303  0.00  0.00    +0.185 C 
ATOM     23  N   UNL     1       0.010  -6.542  -0.771  0.00  0.00    -0.174 NA
BRANCH  22  25
ATOM     24  N   UNL     1      -0.019  -3.751  -1.066  0.00  0.00    -0.280 N 
ATOM     25  C   UNL     1       0.037  -4.308   0.160  0.00  0.00    +0.272 C 
ATOM     26  O   UNL     1       0.075  -3.601   1.149  0.00  0.00    -0.268 OA
ATOM     27  H   UNL     1      -0.136  -4.312  -1.849  0.00  0.00    +0.155 HD
BRANCH  24  32
ATOM     28  C   UNL     1       0.428   1.874  -1.647  0.00  0.00    +0.044 C 
ATOM     29  C   UNL     1       0.309   0.379  -1.493  0.00  0.00    -0.050 A 
ATOM     30  C   UNL     1      -0.413  -0.355  -2.416  0.00  0.00    +0.005 A 
ATOM     31  C   UNL     1      -0.524  -1.724  -2.277  0.00  0.00    +0.023 A 
ATOM     32  C   UNL     1       0.091  -2.365  -1.209  0.00  0.00    +0.034 A 
ATOM     33  C   UNL     1       0.816  -1.625  -0.284  0.00  0.00    +0.023 A 
ATOM     34  C   UNL     1       0.927  -0.256  -0.431  0.00  0.00    +0.005 A 
ENDBRANCH  24  32
ENDBRANCH  22  25
BRANCH  22  35
ATOM     35  C   UNL     1       0.113  -6.377   1.632  0.00  0.00    +0.185 C 
ATOM     36  O   UNL     1       1.184  -6.522   2.184  0.00  0.00    -0.291 OA
ATOM     37  C   UNL     1      -1.154  -6.821   2.317  0.00  0.00    +0.093 C 
ENDBRANCH  22  35
ENDBRANCH  20  23
ENDBRANCH   1  20
BRANCH   4  38
ATOM     38  O   UNL     1       0.174 -11.063  -5.112  0.00  0.00    -0.493 OA
ATOM     39  C   UNL     1       0.450 -10.425  -6.361  0.00  0.00    +0.277 C 
ENDBRANCH   4  38
TORSDOF 10
