REMARK  Name = ZINC43743679
REMARK  11 active torsions:
REMARK  status: ('A' for Active; 'I' for Inactive)
REMARK    1  A    between atoms: C_1  and  C_2
REMARK    2  A    between atoms: C_2  and  C_4
REMARK    3  A    between atoms: C_9  and  C_39
REMARK    4  A    between atoms: C_19  and  C_38
REMARK    5  A    between atoms: C_22  and  O_25
REMARK    6  A    between atoms: O_25  and  C_26
REMARK    7  A    between atoms: C_26  and  C_28
REMARK    8  A    between atoms: C_28  and  C_29
REMARK    9  A    between atoms: C_29  and  N_30
REMARK   10  A    between atoms: C_34  and  C_36
REMARK   11  A    between atoms: C_34  and  C_37
REMARK                            x       y       z     vdW  Elec       q    Type
REMARK                         _______ _______ _______ _____ _____    ______ ____
ROOT
ATOM      1  C   UNL     1       0.109  -0.963  -1.406  0.00  0.00    -0.003 C 
ATOM      2  C   UNL     1       0.064  -2.252  -1.803  0.00  0.00    -0.019 C 
ATOM      3  C   UNL     1       0.105  -2.322  -3.329  0.00  0.00    +0.032 C 
ATOM      4  C   UNL     1      -0.472  -0.955  -3.722  0.00  0.00    +0.007 C 
ATOM      5  C   UNL     1       0.207  -0.098  -2.618  0.00  0.00    -0.001 C 
ATOM      6  C   UNL     1      -0.480   1.248  -2.618  0.00  0.00    +0.012 C 
ATOM      7  C   UNL     1      -0.160   1.911  -3.969  0.00  0.00    +0.005 C 
ATOM      8  C   UNL     1      -0.584   1.041  -5.148  0.00  0.00    +0.003 C 
ATOM      9  C   UNL     1      -0.032  -0.394  -5.061  0.00  0.00    +0.001 C 
ATOM     10  C   UNL     1      -0.651  -1.222  -6.193  0.00  0.00    +0.031 C 
ATOM     11  C   UNL     1      -0.358  -0.559  -7.507  0.00  0.00    -0.027 C 
ATOM     12  C   UNL     1      -0.146   0.719  -7.624  0.00  0.00    -0.064 C 
ATOM     13  C   UNL     1      -0.149   1.694  -6.450  0.00  0.00    -0.008 C 
ATOM     14  C   UNL     1      -1.072   2.869  -6.782  0.00  0.00    +0.015 C 
ATOM     15  C   UNL     1      -0.629   3.505  -8.102  0.00  0.00    +0.046 C 
ATOM     16  C   UNL     1      -0.770   2.488  -9.236  0.00  0.00    +0.180 C 
ATOM     17  C   UNL     1       0.134   1.278  -9.009  0.00  0.00    +0.075 C 
ATOM     18  C   UNL     1       1.260   2.256  -6.253  0.00  0.00    +0.016 C 
ATOM     19  C   UNL     1       1.681   0.101  -2.977  0.00  0.00    +0.016 C 
ENDROOT
BRANCH   1  21
ATOM     20  C   UNL     1       0.062  -1.485   1.112  0.00  0.00    +0.091 C 
ATOM     21  C   UNL     1       0.062  -0.492  -0.022  0.00  0.00    +0.156 C 
ATOM     22  O   UNL     1       0.023   0.698   0.213  0.00  0.00    -0.293 OA
ENDBRANCH   1  21
BRANCH  16  23
ATOM     23  O   UNL     1      -2.117   2.013  -9.285  0.00  0.00    -0.461 OA
BRANCH  23  24
ATOM     24  C   UNL     1      -2.589   1.643 -10.486  0.00  0.00    +0.306 C 
ATOM     25  O   UNL     1      -1.882   1.720 -11.463  0.00  0.00    -0.251 OA
BRANCH  24  26
ATOM     26  C   UNL     1      -4.001   1.131 -10.616  0.00  0.00    +0.102 C 
BRANCH  26  27
ATOM     27  C   UNL     1      -4.284   0.782 -12.078  0.00  0.00    -0.068 C 
BRANCH  27  28
ATOM     28  N   UNL     1      -5.660   0.284 -12.205  0.00  0.00    +0.380 N 
ATOM     29  C   UNL     1      -5.793  -0.976 -11.463  0.00  0.00    -0.079 C 
ATOM     30  C   UNL     1      -7.244  -1.458 -11.524  0.00  0.00    -0.018 C 
ATOM     31  C   UNL     1      -7.641  -1.681 -12.986  0.00  0.00    +0.003 C 
ATOM     32  C   UNL     1      -7.428  -0.380 -13.766  0.00  0.00    -0.050 C 
ATOM     33  C   UNL     1      -5.971   0.062 -13.622  0.00  0.00    -0.072 C 
ATOM     34  C   UNL     1      -7.748  -0.612 -15.244  0.00  0.00    +0.009 C 
ATOM     35  C   UNL     1      -8.349   0.707 -13.208  0.00  0.00    +0.009 C 
ATOM     36  H   UNL     1      -6.300   0.965 -11.824  0.00  0.00    -0.082 HD
ENDBRANCH  27  28
ENDBRANCH  26  27
ENDBRANCH  24  26
ENDBRANCH  23  24
ENDBRANCH  16  23
TORSDOF 6
