REMARK  Name = ZINC35686297
REMARK  9 active torsions:
REMARK  status: ('A' for Active; 'I' for Inactive)
REMARK    1  A    between atoms: C_1  and  C_2
REMARK    2  A    between atoms: C_3  and  C_27
REMARK    3  A    between atoms: C_11  and  O_13
REMARK    4  A    between atoms: O_13  and  C_14
REMARK    5  A    between atoms: C_14  and  C_15
REMARK    6  A    between atoms: N_17  and  CA_18
REMARK    7  A    between atoms: CA_18  and  CB_20
REMARK    8  A    between atoms: CA_18  and  C_24
REMARK    9  A    between atoms: CB_20  and  CG_21
REMARK                            x       y       z     vdW  Elec       q    Type
REMARK                         _______ _______ _______ _____ _____    ______ ____
ROOT
ATOM      1  O   UNK A   0       0.086  -2.948   4.751  0.00  0.00    -0.483 OA
ENDROOT
BRANCH   1  12
ATOM      2  C   UNK A   0      -0.018   1.503   0.010  0.00  0.00    +0.045 C 
ATOM      3  C   UNK A   0       0.002  -0.004   0.002  0.00  0.00    -0.030 A 
ATOM      4  C   UNK A   0       0.006  -0.695  -1.167  0.00  0.00    +0.037 A 
ATOM      5  C   UNK A   0       0.026  -2.105  -1.149  0.00  0.00    +0.340 A 
ATOM      6  O   UNK A   0       0.030  -2.712  -2.204  0.00  0.00    -0.245 OA
ATOM      7  O   UNK A   0       0.041  -2.795   0.003  0.00  0.00    -0.422 OA
ATOM      8  C   UNK A   0       0.038  -2.169   1.199  0.00  0.00    +0.143 A 
ATOM      9  C   UNK A   0       0.024  -0.763   1.254  0.00  0.00    +0.021 A 
ATOM     10  C   UNK A   0       0.026  -0.111   2.492  0.00  0.00    +0.015 A 
ATOM     11  C   UNK A   0       0.046  -0.842   3.644  0.00  0.00    +0.046 A 
ATOM     12  C   UNK A   0       0.066  -2.234   3.596  0.00  0.00    +0.125 A 
ATOM     13  C   UNK A   0       0.053  -2.897   2.379  0.00  0.00    +0.092 A 
ATOM     14  C   UNK A   0      -0.011   0.043  -2.481  0.00  0.00    +0.051 C 
ENDBRANCH   1  12
BRANCH   1  15
ATOM     15  C   UNK A   0       0.087  -2.206   5.972  0.00  0.00    +0.324 C 
BRANCH  15  16
ATOM     16  C   UNK A   0       0.111  -3.159   7.139  0.00  0.00    +0.251 C 
ATOM     17  O   UNK A   0       0.126  -4.356   6.944  0.00  0.00    -0.272 OA
ATOM     18  N   ASP A   1       0.116  -2.681   8.399  0.00  0.00    -0.299 N 
ATOM     19  H   ASP A   1       0.104  -1.724   8.555  0.00  0.00    +0.150 HD
BRANCH  18  20
ATOM     20  CA  ASP A   1       0.140  -3.608   9.534  0.00  0.00    +0.197 C 
BRANCH  20  21
ATOM     21  C   ASP A   1      -1.267  -4.041   9.857  0.00  0.00    +0.376 C 
ATOM     22  O   ASP A   1      -2.202  -3.615   9.201  0.00  0.00    -0.244 OA
ATOM     23  OXT ASP A   1      -1.470  -4.817  10.775  0.00  0.00    -0.244 OA
ENDBRANCH  20  21
BRANCH  20  24
ATOM     24  CB  ASP A   1       0.751  -2.909  10.750  0.00  0.00    +0.159 C 
BRANCH  24  25
ATOM     25  CG  ASP A   1       2.196  -2.586  10.470  0.00  0.00    +0.358 C 
ATOM     26  OD1 ASP A   1       2.691  -2.885   9.397  0.00  0.00    -0.246 OA
ATOM     27  OD2 ASP A   1       2.869  -2.023  11.316  0.00  0.00    -0.246 OA
ENDBRANCH  24  25
ENDBRANCH  20  24
ENDBRANCH  18  20
ENDBRANCH  15  16
ENDBRANCH   1  15
TORSDOF 7
