REMARK  Name = ZINC20548491
REMARK  9 active torsions:
REMARK  status: ('A' for Active; 'I' for Inactive)
REMARK    1  A    between atoms: C_1  and  O_2
REMARK    2  A    between atoms: O_2  and  C_3
REMARK    3  A    between atoms: C_3  and  C_4
REMARK    4  A    between atoms: C_4  and  C_5
REMARK    5  A    between atoms: C_5  and  N_6
REMARK    6  A    between atoms: C_11  and  C_29
REMARK    7  A    between atoms: C_29  and  C_30
REMARK    8  A    between atoms: C_33  and  O_37
REMARK    9  A    between atoms: C_34  and  O_36
REMARK                            x       y       z     vdW  Elec       q    Type
REMARK                         _______ _______ _______ _____ _____    ______ ____
ROOT
ATOM      1  N   UNL     1      -2.408  -4.226   0.002  0.00  0.00    -0.241 N 
ATOM      2  C   UNL     1      -2.346  -4.940  -1.128  0.00  0.00    +0.227 C 
ATOM      3  O   UNL     1      -2.392  -4.482  -2.249  0.00  0.00    -0.275 OA
ATOM      4  C   UNL     1      -2.209  -6.408  -0.788  0.00  0.00    +0.107 C 
ATOM      5  C   UNL     1      -3.505  -7.143  -1.193  0.00  0.00    +0.072 C 
ATOM      6  N   UNL     1      -3.832  -8.006  -0.027  0.00  0.00    -0.295 NA
ATOM      7  C   UNL     1      -3.492  -7.176   1.144  0.00  0.00    +0.136 C 
ATOM      8  C   UNL     1      -2.197  -6.416   0.766  0.00  0.00    +0.122 C 
ATOM      9  C   UNL     1      -2.330  -4.953   1.123  0.00  0.00    +0.228 C 
ATOM     10  O   UNL     1      -2.364  -4.508   2.250  0.00  0.00    -0.275 OA
ATOM     11  C   UNL     1      -4.610  -6.237   1.497  0.00  0.00    +0.005 A 
ATOM     12  C   UNL     1      -5.257  -5.233   0.811  0.00  0.00    +0.008 A 
ATOM     13  C   UNL     1      -6.279  -4.526   1.419  0.00  0.00    +0.002 A 
ATOM     14  C   UNL     1      -6.650  -4.830   2.717  0.00  0.00    +0.022 A 
ATOM     15  C   UNL     1      -6.004  -5.835   3.409  0.00  0.00    +0.062 A 
ATOM     16  C   UNL     1      -4.973  -6.552   2.803  0.00  0.00    +0.057 A 
ATOM     17  N   UNL     1      -4.181  -7.596   3.286  0.00  0.00    -0.282 N 
ATOM     18  C   UNL     1      -3.287  -8.020   2.373  0.00  0.00    +0.243 C 
ATOM     19  O   UNL     1      -2.473  -8.908   2.513  0.00  0.00    -0.273 OA
ATOM     20 CL   UNL     1      -6.477  -6.207   5.037  0.00  0.00    -0.082 Cl
ATOM     21  H   UNL     1      -4.810  -8.253  -0.023  0.00  0.00    +0.124 HD
ATOM     22  H   UNL     1      -4.266  -7.972   4.176  0.00  0.00    +0.155 HD
ENDROOT
BRANCH   1  23
ATOM     23  C   UNL     1      -2.543  -2.768   0.011  0.00  0.00    +0.118 C 
BRANCH  23  24
ATOM     24  C   UNL     1      -1.154  -2.126   0.002  0.00  0.00    +0.047 C 
BRANCH  24  25
ATOM     25  C   UNL     1      -1.295  -0.603   0.011  0.00  0.00    +0.161 C 
BRANCH  25  27
ATOM     26  C   UNL     1      -0.017   1.425   0.010  0.00  0.00    +0.193 C 
ATOM     27  O   UNL     1       0.002  -0.004   0.002  0.00  0.00    -0.383 OA
ENDBRANCH  25  27
ENDBRANCH  24  25
ENDBRANCH  23  24
ENDBRANCH   1  23
BRANCH   5  28
ATOM     28  C   UNL     1      -3.265  -7.997  -2.439  0.00  0.00    +0.054 C 
BRANCH  28  29
ATOM     29  C   UNL     1      -4.568  -8.608  -2.887  0.00  0.00    -0.042 A 
ATOM     30  C   UNL     1      -4.958  -9.840  -2.394  0.00  0.00    +0.007 A 
ATOM     31  C   UNL     1      -6.152 -10.404  -2.802  0.00  0.00    +0.049 A 
ATOM     32  C   UNL     1      -6.961  -9.736  -3.707  0.00  0.00    +0.158 A 
ATOM     33  C   UNL     1      -6.569  -8.496  -4.203  0.00  0.00    +0.158 A 
ATOM     34  C   UNL     1      -5.373  -7.934  -3.786  0.00  0.00    +0.052 A 
BRANCH  33  35
ATOM     35  O   UNL     1      -7.359  -7.836  -5.091  0.00  0.00    -0.503 OA
ATOM     36  H   UNL     1      -8.005  -7.246  -4.680  0.00  0.00    +0.292 HD
ENDBRANCH  33  35
BRANCH  32  37
ATOM     37  O   UNL     1      -8.136 -10.290  -4.110  0.00  0.00    -0.503 OA
ATOM     38  H   UNL     1      -8.893 -10.051  -3.558  0.00  0.00    +0.292 HD
ENDBRANCH  32  37
ENDBRANCH  28  29
ENDBRANCH   5  28
TORSDOF 8
