REMARK  Name = ZINC00927832
REMARK  10 active torsions:
REMARK  status: ('A' for Active; 'I' for Inactive)
REMARK    1  A    between atoms: C_1  and  O_2
REMARK    2  A    between atoms: O_2  and  C_3
REMARK    3  A    between atoms: C_10  and  C_15
REMARK    4  A    between atoms: C_15  and  N_16
REMARK    5  A    between atoms: N_16  and  C_17
REMARK    6  A    between atoms: N_16  and  C_27
REMARK    7  A    between atoms: C_17  and  C_18
REMARK    8  A    between atoms: C_27  and  C_28
REMARK    9  A    between atoms: N_32  and  C_33
REMARK   10  A    between atoms: C_33  and  C_34
REMARK                            x       y       z     vdW  Elec       q    Type
REMARK                         _______ _______ _______ _____ _____    ______ ____
ROOT
ATOM      1  N   UNL     1      -4.172  -6.214   1.554  0.00  0.00    -0.287 NA
ENDROOT
BRANCH   1   2
ATOM      2  C   UNL     1      -3.739  -5.923   0.181  0.00  0.00    +0.125 C 
BRANCH   2  10
ATOM      3  C   UNL     1      -1.432  -0.178  -0.133  0.00  0.00    +0.121 A 
ATOM      4  C   UNL     1      -2.624   0.443  -0.499  0.00  0.00    +0.047 A 
ATOM      5  C   UNL     1      -3.778  -0.292  -0.656  0.00  0.00    +0.030 A 
ATOM      6  C   UNL     1      -3.760  -1.668  -0.449  0.00  0.00    +0.049 A 
ATOM      7  C   UNL     1      -2.557  -2.299  -0.079  0.00  0.00    +0.002 A 
ATOM      8  C   UNL     1      -1.390  -1.542   0.072  0.00  0.00    +0.055 A 
ATOM      9  C   UNL     1      -2.552  -3.747   0.135  0.00  0.00    +0.020 A 
ATOM     10  C   UNL     1      -3.711  -4.431  -0.031  0.00  0.00    +0.031 A 
ATOM     11  C   UNL     1      -4.890  -3.751  -0.403  0.00  0.00    +0.254 A 
ATOM     12  O   UNL     1      -5.921  -4.385  -0.547  0.00  0.00    -0.268 OA
ATOM     13  N   UNL     1      -4.906  -2.422  -0.602  0.00  0.00    -0.322 N 
ATOM     14  H   UNL     1      -5.734  -1.986  -0.856  0.00  0.00    +0.169 HD
BRANCH   3  16
ATOM     15  C   UNL     1      -0.414   1.970  -0.209  0.00  0.00    +0.277 C 
ATOM     16  O   UNL     1      -0.302   0.564   0.018  0.00  0.00    -0.495 OA
ENDBRANCH   3  16
ENDBRANCH   2  10
ENDBRANCH   1   2
BRANCH   1  17
ATOM     17  C   UNL     1      -5.567  -5.804   1.764  0.00  0.00    +0.120 C 
BRANCH  17  18
ATOM     18  C   UNL     1      -5.927  -5.975   3.218  0.00  0.00    -0.030 A 
ATOM     19  C   UNL     1      -6.567  -7.126   3.639  0.00  0.00    +0.009 A 
ATOM     20  C   UNL     1      -6.899  -7.287   4.971  0.00  0.00    +0.050 A 
ATOM     21  C   UNL     1      -6.591  -6.295   5.888  0.00  0.00    +0.166 A 
ATOM     22  C   UNL     1      -5.947  -5.135   5.463  0.00  0.00    +0.167 A 
ATOM     23  C   UNL     1      -5.613  -4.983   4.127  0.00  0.00    +0.054 A 
ATOM     24  O   UNL     1      -5.758  -4.321   6.542  0.00  0.00    -0.453 OA
ATOM     25  C   UNL     1      -6.655  -4.812   7.556  0.00  0.00    +0.466 C 
ATOM     26  O   UNL     1      -6.806  -6.207   7.233  0.00  0.00    -0.453 OA
ENDBRANCH  17  18
ENDBRANCH   1  17
BRANCH   1  27
ATOM     27  C   UNL     1      -3.987  -7.635   1.874  0.00  0.00    +0.163 C 
BRANCH  27  28
ATOM     28  C   UNL     1      -2.514  -7.951   1.927  0.00  0.00    +0.166 A 
ATOM     29  N   UNL     1      -1.769  -8.377   0.937  0.00  0.00    -0.112 NA
ATOM     30  N   UNL     1      -0.568  -8.529   1.379  0.00  0.00    -0.023 NA
ATOM     31  N   UNL     1      -0.528  -8.210   2.626  0.00  0.00    -0.044 NA
ATOM     32  N   UNL     1      -1.707  -7.843   2.999  0.00  0.00    -0.224 N 
BRANCH  32  33
ATOM     33  C   UNL     1      -2.096  -7.397   4.340  0.00  0.00    +0.182 C 
BRANCH  33  34
ATOM     34  C   UNL     1      -2.447  -8.593   5.186  0.00  0.00    -0.026 A 
ATOM     35  C   UNL     1      -3.747  -9.064   5.211  0.00  0.00    +0.005 A 
ATOM     36  C   UNL     1      -4.069 -10.161   5.987  0.00  0.00    +0.000 A 
ATOM     37  C   UNL     1      -3.092 -10.789   6.737  0.00  0.00    +0.000 A 
ATOM     38  C   UNL     1      -1.792 -10.319   6.710  0.00  0.00    +0.000 A 
ATOM     39  C   UNL     1      -1.469  -9.224   5.931  0.00  0.00    +0.005 A 
ENDBRANCH  33  34
ENDBRANCH  32  33
ENDBRANCH  27  28
ENDBRANCH   1  27
TORSDOF 9
