REMARK  Name = ZINC04944771
REMARK  1 active torsions:
REMARK  status: ('A' for Active; 'I' for Inactive)
REMARK    1  A    between atoms: C_4  and  C_8
REMARK                            x       y       z     vdW  Elec       q    Type
REMARK                         _______ _______ _______ _____ _____    ______ ____
ROOT
ATOM      1  C   UNL     1      -0.013   1.086   0.008  0.00  0.00    +0.069 C 
ATOM      2  C   UNL     1      -0.729   1.579   1.266  0.00  0.00    +0.109 C 
ATOM      3  C   UNL     1      -1.020   3.051   1.144  0.00  0.00    +0.219 C 
ATOM      4  O   UNL     1      -0.975   3.754   2.130  0.00  0.00    -0.275 OA
ATOM      5  N   UNL     1      -1.330   3.596  -0.047  0.00  0.00    -0.270 N 
ATOM      6  C   UNL     1      -1.371   2.817  -1.191  0.00  0.00    +0.137 A 
ATOM      7  C   UNL     1      -0.741   1.584  -1.211  0.00  0.00    +0.065 A 
ATOM      8  C   UNL     1      -0.791   0.813  -2.376  0.00  0.00    +0.258 A 
ATOM      9  O   UNL     1      -0.246  -0.278  -2.425  0.00  0.00    -0.267 OA
ATOM     10  N   UNL     1      -1.456   1.301  -3.445  0.00  0.00    -0.295 N 
ATOM     11  H   UNL     1      -1.505   0.766  -4.289  0.00  0.00    +0.172 HD
ATOM     12  C   UNL     1      -2.059   2.519  -3.376  0.00  0.00    +0.195 A 
ATOM     13  N   UNL     1      -2.015   3.248  -2.281  0.00  0.00    -0.201 NA
ATOM     14  N   UNL     1      -2.729   2.997  -4.471  0.00  0.00    -0.329 N 
ATOM     15  H   UNL     1      -1.528   4.544  -0.104  0.00  0.00    +0.156 HD
ATOM     16  H   UNL     1      -2.769   2.468  -5.284  0.00  0.00    +0.145 HD
ATOM     17  H   UNL     1      -3.163   3.863  -4.434  0.00  0.00    +0.145 HD
ENDROOT
BRANCH   1  21
ATOM     18  C   UNL     1       3.997   2.565  -0.021  0.00  0.00    +0.018 A 
ATOM     19  C   UNL     1       3.764   1.202  -0.027  0.00  0.00    +0.040 A 
ATOM     20  C   UNL     1       2.466   0.722  -0.012  0.00  0.00    +0.127 A 
ATOM     21  C   UNL     1       1.401   1.607  -0.003  0.00  0.00    -0.003 A 
ATOM     22  C   UNL     1       1.635   2.969   0.002  0.00  0.00    +0.022 A 
ATOM     23  C   UNL     1       2.933   3.448  -0.006  0.00  0.00    +0.018 A 
ATOM     24 BR   UNL     1       3.252   5.312   0.002  0.00  0.00    -0.050 Br
ATOM     25  F   UNL     1       2.238  -0.609  -0.012  0.00  0.00    -0.205 F 
ENDBRANCH   1  21
TORSDOF 1
