REMARK  Name = ZINC20029614
REMARK  7 active torsions:
REMARK  status: ('A' for Active; 'I' for Inactive)
REMARK    1  A    between atoms: C_1  and  O_2
REMARK    2  A    between atoms: O_2  and  C_3
REMARK    3  A    between atoms: C_3  and  C_5
REMARK    4  A    between atoms: C_8  and  N_11
REMARK    5  A    between atoms: C_12  and  C_14
REMARK    6  A    between atoms: C_14  and  S_15
REMARK    7  A    between atoms: S_15  and  C_16
REMARK                            x       y       z     vdW  Elec       q    Type
REMARK                         _______ _______ _______ _____ _____    ______ ____
ROOT
ATOM      1  S   UNL     1       2.687  -8.861   3.665  0.00  0.00    -0.141 S 
ENDROOT
BRANCH   1   2
ATOM      2  C   UNL     1       2.779 -10.667   3.515  0.00  0.00    +0.138 C 
ATOM      3  N   UNL     1       1.429 -11.213   3.587  0.00  0.00    +0.424 N 
ATOM      4  N   UNL     1       1.381 -12.564   3.363  0.00  0.00    -0.301 NA
ATOM      5  C   UNL     1       2.150 -13.046   2.369  0.00  0.00    +0.082 C 
ATOM      6  C   UNL     1       2.220 -14.247   1.701  0.00  0.00    +0.023 A 
ATOM      7  C   UNL     1       1.558 -15.481   1.852  0.00  0.00    +0.012 A 
ATOM      8  C   UNL     1       1.889 -16.473   0.967  0.00  0.00    +0.001 A 
ATOM      9  C   UNL     1       2.828 -16.305  -0.040  0.00  0.00    +0.002 A 
ATOM     10  C   UNL     1       3.519 -15.126  -0.242  0.00  0.00    +0.026 A 
ATOM     11  C   UNL     1       3.232 -14.064   0.631  0.00  0.00    +0.050 A 
ATOM     12  N   UNL     1       3.727 -12.830   0.703  0.00  0.00    -0.338 N 
ATOM     13  H   UNL     1       4.383 -12.463   0.090  0.00  0.00    +0.167 HD
ATOM     14  C   UNL     1       3.200 -12.169   1.730  0.00  0.00    +0.148 C 
ATOM     15  N   UNL     1       3.464 -11.003   2.260  0.00  0.00    -0.268 NA
ATOM     16  H   UNL     1       1.051 -11.023   4.503  0.00  0.00    -0.048 HD
ATOM     17  H   UNL     1       0.854 -10.750   2.900  0.00  0.00    -0.048 HD
ENDBRANCH   1   2
BRANCH   1  18
ATOM     18  C   UNL     1       1.701  -8.351   2.230  0.00  0.00    +0.165 C 
BRANCH  18  20
ATOM     19  N   UNL     1       0.847  -6.244   1.256  0.00  0.00    -0.285 N 
ATOM     20  C   UNL     1       1.547  -6.852   2.234  0.00  0.00    +0.227 C 
ATOM     21  O   UNL     1       2.052  -6.193   3.118  0.00  0.00    -0.275 OA
ATOM     22  H   UNL     1       0.380  -6.775   0.592  0.00  0.00    +0.155 HD
BRANCH  19  26
ATOM     23  C   UNL     1       0.695  -2.085   1.080  0.00  0.00    +0.059 A 
ATOM     24  C   UNL     1       1.848  -2.725   1.543  0.00  0.00    +0.017 A 
ATOM     25  C   UNL     1       1.895  -4.100   1.600  0.00  0.00    +0.024 A 
ATOM     26  C   UNL     1       0.796  -4.852   1.197  0.00  0.00    +0.033 A 
ATOM     27  C   UNL     1      -0.353  -4.219   0.735  0.00  0.00    +0.024 A 
ATOM     28  C   UNL     1      -0.410  -2.845   0.681  0.00  0.00    +0.017 A 
BRANCH  23  29
ATOM     29  C   UNL     1       0.640  -0.613   1.018  0.00  0.00    +0.339 C 
ATOM     30  O   UNL     1      -0.365  -0.058   0.620  0.00  0.00    -0.245 OA
BRANCH  29  32
ATOM     31  C   UNL     1       1.583   1.538   1.317  0.00  0.00    +0.280 C 
ATOM     32  O   UNL     1       1.706   0.117   1.403  0.00  0.00    -0.464 OA
ENDBRANCH  29  32
ENDBRANCH  23  29
ENDBRANCH  19  26
ENDBRANCH  18  20
ENDBRANCH   1  18
TORSDOF 6
