REMARK  Name = ZINC20759600
REMARK  7 active torsions:
REMARK  status: ('A' for Active; 'I' for Inactive)
REMARK    1  A    between atoms: C_1  and  C_2
REMARK    2  A    between atoms: C_2  and  C_3
REMARK    3  A    between atoms: C_16  and  C_19
REMARK    4  A    between atoms: N_25  and  C_28
REMARK    5  A    between atoms: C_28  and  C_29
REMARK    6  A    between atoms: C_32  and  O_35
REMARK    7  A    between atoms: O_35  and  C_36
REMARK                            x       y       z     vdW  Elec       q    Type
REMARK                         _______ _______ _______ _____ _____    ______ ____
ROOT
ATOM      1  C   UNL     1       1.898   0.665  -3.670  0.00  0.00    +0.073 A 
ATOM      2  C   UNL     1       3.092   0.363  -2.992  0.00  0.00    +0.260 A 
ATOM      3  N   UNL     1       4.111   1.246  -3.013  0.00  0.00    -0.275 N 
ATOM      4  H   UNL     1       4.936   1.041  -2.546  0.00  0.00    +0.173 HD
ATOM      5  C   UNL     1       3.991   2.410  -3.678  0.00  0.00    +0.332 A 
ATOM      6  O   UNL     1       4.921   3.193  -3.686  0.00  0.00    -0.246 OA
ATOM      7  N   UNL     1       2.858   2.720  -4.334  0.00  0.00    -0.256 N 
ATOM      8  C   UNL     1       1.799   1.848  -4.342  0.00  0.00    +0.263 A 
ATOM      9  O   UNL     1       0.666   2.160  -5.006  0.00  0.00    -0.267 OA
ATOM     10  O   UNL     1       3.206  -0.689  -2.388  0.00  0.00    -0.267 OA
ENDROOT
BRANCH   1  23
ATOM     11  C   UNL     1       0.718  -0.497  -1.257  0.00  0.00    -0.066 C 
ATOM     12  C   UNL     1       0.850  -2.026  -1.204  0.00  0.00    +0.022 C 
ATOM     13  C   UNL     1       1.320  -2.495  -2.558  0.00  0.00    -0.022 A 
ATOM     14  C   UNL     1       1.878  -3.770  -2.947  0.00  0.00    +0.003 A 
ATOM     15  C   UNL     1       2.156  -4.943  -2.239  0.00  0.00    +0.010 A 
ATOM     16  C   UNL     1       2.699  -5.984  -2.950  0.00  0.00    +0.001 A 
ATOM     17  C   UNL     1       2.963  -5.891  -4.306  0.00  0.00    +0.002 A 
ATOM     18  C   UNL     1       2.698  -4.743  -5.033  0.00  0.00    +0.026 A 
ATOM     19  C   UNL     1       2.147  -3.669  -4.337  0.00  0.00    +0.047 A 
ATOM     20  N   UNL     1       1.772  -2.417  -4.735  0.00  0.00    -0.359 N 
ATOM     21  H   UNL     1       1.846  -2.074  -5.639  0.00  0.00    +0.166 HD
ATOM     22  C   UNL     1       1.277  -1.721  -3.667  0.00  0.00    +0.011 A 
ATOM     23  C   UNL     1       0.747  -0.307  -3.660  0.00  0.00    +0.018 C 
ATOM     24  N   UNL     1      -0.057  -0.112  -2.444  0.00  0.00    +0.390 N 
ATOM     25  H   UNL     1      -0.889  -0.680  -2.499  0.00  0.00    -0.084 HD
ATOM     26  H   UNL     1      -0.322   0.859  -2.370  0.00  0.00    -0.084 HD
BRANCH  11  28
ATOM     27  C   UNL     1      -0.019   1.526   0.010  0.00  0.00    +0.002 C 
ATOM     28  C   UNL     1       0.001  -0.003   0.002  0.00  0.00    -0.019 C 
ENDBRANCH  11  28
ENDBRANCH   1  23
BRANCH   7  29
ATOM     29  C   UNL     1       2.757   3.994  -5.049  0.00  0.00    +0.165 C 
BRANCH  29  30
ATOM     30  C   UNL     1       3.233   3.813  -6.468  0.00  0.00    -0.027 A 
ATOM     31  C   UNL     1       4.567   4.004  -6.778  0.00  0.00    +0.009 A 
ATOM     32  C   UNL     1       5.005   3.840  -8.077  0.00  0.00    +0.046 A 
ATOM     33  C   UNL     1       4.106   3.482  -9.072  0.00  0.00    +0.120 A 
ATOM     34  C   UNL     1       2.769   3.291  -8.758  0.00  0.00    +0.046 A 
ATOM     35  C   UNL     1       2.336   3.452  -7.456  0.00  0.00    +0.009 A 
BRANCH  33  36
ATOM     36  O   UNL     1       4.536   3.320 -10.351  0.00  0.00    -0.495 OA
ATOM     37  C   UNL     1       3.555   2.952 -11.322  0.00  0.00    +0.277 C 
ENDBRANCH  33  36
ENDBRANCH  29  30
ENDBRANCH   7  29
TORSDOF 5
