REMARK  Name = ZINC04440911
REMARK  6 active torsions:
REMARK  status: ('A' for Active; 'I' for Inactive)
REMARK    1  A    between atoms: C_6  and  N_7
REMARK    2  A    between atoms: N_7  and  C_8
REMARK    3  A    between atoms: C_8  and  N_10
REMARK    4  A    between atoms: N_13  and  C_16
REMARK    5  A    between atoms: C_25  and  C_31
REMARK    6  A    between atoms: N_27  and  C_28
REMARK                            x       y       z     vdW  Elec       q    Type
REMARK                         _______ _______ _______ _____ _____    ______ ____
ROOT
ATOM      1  N   UNL     1       4.792  -2.704   0.128  0.00  0.00    -0.309 N 
ATOM      2  C   UNL     1       6.061  -1.964   0.213  0.00  0.00    +0.125 C 
ATOM      3  C   UNL     1       6.856  -2.508   1.411  0.00  0.00    +0.124 C 
ATOM      4  N   UNL     1       6.994  -3.965   1.279  0.00  0.00    -0.325 N 
ATOM      5  C   UNL     1       5.686  -4.631   1.324  0.00  0.00    +0.124 C 
ATOM      6  C   UNL     1       4.842  -4.174   0.129  0.00  0.00    +0.125 C 
ENDROOT
BRANCH   4   7
ATOM      7  C   UNL     1       7.848  -4.475   2.254  0.00  0.00    +0.067 A 
ATOM      8  C   UNL     1       7.498  -4.382   3.592  0.00  0.00    +0.052 A 
ATOM      9  C   UNL     1       8.345  -4.896   4.565  0.00  0.00    +0.055 A 
ATOM     10  C   UNL     1       9.557  -5.495   4.175  0.00  0.00    +0.049 A 
ATOM     11  C   UNL     1       9.900  -5.577   2.823  0.00  0.00    +0.054 A 
ATOM     12  C   UNL     1       9.053  -5.072   1.876  0.00  0.00    +0.145 A 
ATOM     13  F   UNL     1       9.384  -5.150   0.569  0.00  0.00    -0.204 F 
ATOM     14  C   UNL     1      10.448  -6.029   5.218  0.00  0.00    +0.204 A 
ATOM     15  O   UNL     1      11.510  -6.558   4.936  0.00  0.00    -0.286 OA
ATOM     16  C   UNL     1      10.004  -5.897   6.615  0.00  0.00    +0.126 A 
ATOM     17  C   UNL     1       8.793  -5.289   6.876  0.00  0.00    +0.105 A 
ATOM     18  N   UNL     1       8.008  -4.814   5.900  0.00  0.00    -0.343 N 
BRANCH  18  19
ATOM     19  C   UNL     1       6.738  -4.183   6.266  0.00  0.00    +0.087 C 
ATOM     20  C   UNL     1       6.424  -4.040   7.756  0.00  0.00    +0.027 C 
ATOM     21  C   UNL     1       5.670  -5.068   6.911  0.00  0.00    +0.027 C 
ENDBRANCH  18  19
BRANCH  16  22
ATOM     22  C   UNL     1      10.837  -6.405   7.714  0.00  0.00    +0.392 C 
ATOM     23  O   UNL     1      11.902  -6.939   7.473  0.00  0.00    -0.240 OA
ATOM     24  O   UNL     1      10.419  -6.279   8.990  0.00  0.00    -0.240 OA
ENDBRANCH  16  22
ENDBRANCH   4   7
BRANCH   1  25
ATOM     25  C   UNL     1       3.615  -2.052   0.044  0.00  0.00    +0.137 C 
ATOM     26  S   UNL     1       2.146  -2.930   0.082  0.00  0.00    -0.018 S 
BRANCH  25  27
ATOM     27  N   UNL     1       3.596  -0.710  -0.069  0.00  0.00    -0.297 N 
ATOM     28  H   UNL     1       4.426  -0.220  -0.178  0.00  0.00    +0.154 HD
BRANCH  27  34
ATOM     29  C   UNL     1       1.393  -0.400   0.874  0.00  0.00    +0.027 A 
ATOM     30  C   UNL     1       0.190   0.278   0.911  0.00  0.00    +0.051 A 
ATOM     31  C   UNL     1      -0.040   1.338   0.046  0.00  0.00    +0.162 A 
ATOM     32  C   UNL     1       0.943   1.720  -0.859  0.00  0.00    +0.164 A 
ATOM     33  C   UNL     1       2.150   1.040  -0.897  0.00  0.00    +0.072 A 
ATOM     34  C   UNL     1       2.376  -0.021  -0.031  0.00  0.00    +0.036 A 
ATOM     35  O   UNL     1       0.739   2.763  -1.710  0.00  0.00    -0.485 OA
ATOM     36  C   UNL     1      -0.617   3.182  -1.901  0.00  0.00    +0.270 C 
ATOM     37  C   UNL     1      -1.288   3.280  -0.524  0.00  0.00    +0.270 C 
ATOM     38  O   UNL     1      -1.236   1.988   0.092  0.00  0.00    -0.485 OA
ENDBRANCH  27  34
ENDBRANCH  25  27
ENDBRANCH   1  25
TORSDOF 6
