REMARK  Name = ZINC40110569
REMARK  13 active torsions:
REMARK  status: ('A' for Active; 'I' for Inactive)
REMARK    1  A    between atoms: C_1  and  C_2
REMARK    2  A    between atoms: C_2  and  O_3
REMARK    3  A    between atoms: O_3  and  C_4
REMARK    4  A    between atoms: C_7  and  C_10
REMARK    5  A    between atoms: C_12  and  C_21
REMARK    6  A    between atoms: N_16  and  C_17
REMARK    7  A    between atoms: C_17  and  C_18
REMARK    8  A    between atoms: C_18  and  O_19
REMARK    9  A    between atoms: C_21  and  C_23
REMARK   10  A    between atoms: C_26  and  S_29
REMARK   11  A    between atoms: S_29  and  N_32
REMARK   12  A    between atoms: N_32  and  C_33
REMARK   13  A    between atoms: N_32  and  C_34
REMARK                            x       y       z     vdW  Elec       q    Type
REMARK                         _______ _______ _______ _____ _____    ______ ____
ROOT
ATOM      1  C   UNL     1      -1.925  -5.499   0.131  0.00  0.00    +0.145 C 
ATOM      2  C   UNL     1      -2.160  -6.378   1.336  0.00  0.00    +0.076 C 
ATOM      3  C   UNL     1      -3.300  -7.069   1.100  0.00  0.00    +0.249 C 
ATOM      4  C   UNL     1      -3.837  -6.682  -0.223  0.00  0.00    +0.288 C 
ATOM      5  O   UNL     1      -4.852  -7.127  -0.721  0.00  0.00    -0.266 OA
ATOM      6  N   UNL     1      -3.034  -5.764  -0.793  0.00  0.00    -0.281 N 
ATOM      7  O   UNL     1      -3.860  -7.970   1.940  0.00  0.00    -0.282 OA
ENDROOT
BRANCH   1  11
ATOM      8  C   UNL     1      -1.929  -1.385   1.289  0.00  0.00    +0.121 A 
ATOM      9  C   UNL     1      -0.735  -2.017   0.972  0.00  0.00    +0.046 A 
ATOM     10  C   UNL     1      -0.736  -3.347   0.599  0.00  0.00    +0.009 A 
ATOM     11  C   UNL     1      -1.927  -4.048   0.539  0.00  0.00    -0.022 A 
ATOM     12  C   UNL     1      -3.118  -3.421   0.854  0.00  0.00    +0.009 A 
ATOM     13  C   UNL     1      -3.121  -2.093   1.234  0.00  0.00    +0.046 A 
BRANCH   8  14
ATOM     14  O   UNL     1      -1.930  -0.077   1.658  0.00  0.00    -0.492 OA
BRANCH  14  16
ATOM     15  C   UNL     1      -0.866   2.042   2.126  0.00  0.00    +0.048 C 
ATOM     16  C   UNL     1      -0.666   0.588   1.692  0.00  0.00    +0.225 C 
ENDBRANCH  14  16
ENDBRANCH   8  14
ENDBRANCH   1  11
BRANCH   2  17
ATOM     17  C   UNL     1      -1.316  -6.467   2.531  0.00  0.00    +0.195 C 
ATOM     18  O   UNL     1      -1.757  -6.128   3.614  0.00  0.00    -0.287 OA
BRANCH  17  19
ATOM     19  C   UNL     1       0.070  -6.970   2.422  0.00  0.00    +0.022 A 
ATOM     20  C   UNL     1       0.542  -7.465   1.204  0.00  0.00    +0.013 A 
ATOM     21  C   UNL     1       1.837  -7.931   1.109  0.00  0.00    +0.029 A 
ATOM     22  C   UNL     1       2.667  -7.911   2.216  0.00  0.00    +0.105 A 
ATOM     23  C   UNL     1       2.205  -7.422   3.426  0.00  0.00    +0.029 A 
ATOM     24  C   UNL     1       0.914  -6.947   3.534  0.00  0.00    +0.013 A 
BRANCH  22  25
ATOM     25  S   UNL     1       4.318  -8.510   2.086  0.00  0.00    +0.060 S 
ATOM     26  O   UNL     1       4.718  -8.888   3.396  0.00  0.00    -0.153 OA
ATOM     27  O   UNL     1       4.336  -9.417   0.993  0.00  0.00    -0.153 OA
BRANCH  25  28
ATOM     28  N   UNL     1       5.272  -7.228   1.652  0.00  0.00    -0.183 NA
ATOM     29  C   UNL     1       5.888  -6.391   2.685  0.00  0.00    +0.131 C 
ATOM     30  C   UNL     1       5.499  -6.930   0.236  0.00  0.00    +0.131 C 
ENDBRANCH  25  28
ENDBRANCH  22  25
ENDBRANCH  17  19
ENDBRANCH   2  17
BRANCH   6  31
ATOM     31  C   UNL     1      -3.232  -5.139  -2.104  0.00  0.00    +0.137 C 
BRANCH  31  32
ATOM     32  C   UNL     1      -2.535  -5.975  -3.178  0.00  0.00    +0.175 C 
BRANCH  32  33
ATOM     33  O   UNL     1      -3.165  -7.254  -3.270  0.00  0.00    -0.393 OA
ATOM     34  H   UNL     1      -2.773  -7.839  -3.934  0.00  0.00    +0.209 HD
ENDBRANCH  32  33
ENDBRANCH  31  32
ENDBRANCH   6  31
TORSDOF 10
