REMARK  Name = ZINC05745796
REMARK  8 active torsions:
REMARK  status: ('A' for Active; 'I' for Inactive)
REMARK    1  A    between atoms: C_1  and  C_2
REMARK    2  A    between atoms: C_5  and  N_8
REMARK    3  A    between atoms: N_8  and  S_9
REMARK    4  A    between atoms: N_8  and  S_19
REMARK    5  A    between atoms: S_9  and  C_12
REMARK    6  A    between atoms: C_15  and  C_18
REMARK    7  A    between atoms: S_19  and  C_22
REMARK    8  A    between atoms: C_25  and  C_28
REMARK                            x       y       z     vdW  Elec       q    Type
REMARK                         _______ _______ _______ _____ _____    ______ ____
ROOT
ATOM      1  N   UNL     1       1.238  -2.077  -0.021  0.00  0.00    -0.069 N 
ENDROOT
BRANCH   1   6
ATOM      2  C   UNL     1       2.021   3.538  -0.115  0.00  0.00    +0.044 C 
ATOM      3  C   UNL     1       1.813   2.046  -0.089  0.00  0.00    -0.050 A 
ATOM      4  C   UNL     1       0.708   1.493  -0.710  0.00  0.00    +0.005 A 
ATOM      5  C   UNL     1       0.514   0.126  -0.690  0.00  0.00    +0.027 A 
ATOM      6  C   UNL     1       1.431  -0.694  -0.044  0.00  0.00    +0.076 A 
ATOM      7  C   UNL     1       2.540  -0.135   0.579  0.00  0.00    +0.027 A 
ATOM      8  C   UNL     1       2.728   1.233   0.554  0.00  0.00    +0.005 A 
ENDBRANCH   1   6
BRANCH   1   9
ATOM      9  S   UNL     1       2.543  -3.096  -0.032  0.00  0.00    +0.093 S 
ATOM     10  O   UNL     1       2.123  -4.287  -0.683  0.00  0.00    -0.148 OA
ATOM     11  O   UNL     1       3.652  -2.330  -0.485  0.00  0.00    -0.148 OA
BRANCH   9  12
ATOM     12  C   UNL     1       2.881  -3.529   1.642  0.00  0.00    +0.110 A 
ATOM     13  C   UNL     1       3.752  -2.762   2.393  0.00  0.00    +0.029 A 
ATOM     14  C   UNL     1       4.013  -3.099   3.707  0.00  0.00    +0.005 A 
ATOM     15  C   UNL     1       3.411  -4.210   4.269  0.00  0.00    -0.050 A 
ATOM     16  C   UNL     1       2.543  -4.980   3.517  0.00  0.00    +0.005 A 
ATOM     17  C   UNL     1       2.279  -4.640   2.204  0.00  0.00    +0.029 A 
ATOM     18  C   UNL     1       3.699  -4.580   5.701  0.00  0.00    +0.044 C 
ENDBRANCH   9  12
ENDBRANCH   1   9
BRANCH   1  19
ATOM     19  S   UNL     1      -0.297  -2.698   0.019  0.00  0.00    +0.093 S 
ATOM     20  O   UNL     1      -0.216  -3.936   0.712  0.00  0.00    -0.148 OA
ATOM     21  O   UNL     1      -1.151  -1.644   0.439  0.00  0.00    -0.148 OA
BRANCH  19  22
ATOM     22  C   UNL     1      -0.747  -3.080  -1.641  0.00  0.00    +0.110 A 
ATOM     23  C   UNL     1      -1.378  -2.130  -2.422  0.00  0.00    +0.029 A 
ATOM     24  C   UNL     1      -1.727  -2.428  -3.726  0.00  0.00    +0.005 A 
ATOM     25  C   UNL     1      -1.454  -3.679  -4.246  0.00  0.00    -0.050 A 
ATOM     26  C   UNL     1      -0.827  -4.631  -3.464  0.00  0.00    +0.005 A 
ATOM     27  C   UNL     1      -0.474  -4.331  -2.161  0.00  0.00    +0.029 A 
ATOM     28  C   UNL     1      -1.839  -4.005  -5.666  0.00  0.00    +0.044 C 
ENDBRANCH  19  22
ENDBRANCH   1  19
TORSDOF 5
