REMARK  Name = ZINC09853616
REMARK  7 active torsions:
REMARK  status: ('A' for Active; 'I' for Inactive)
REMARK    1  A    between atoms: C_4  and  S_8
REMARK    2  A    between atoms: S_8  and  N_11
REMARK    3  A    between atoms: N_11  and  C_12
REMARK    4  A    between atoms: C_12  and  C_13
REMARK    5  A    between atoms: C_13  and  O_14
REMARK    6  A    between atoms: O_14  and  C_15
REMARK    7  A    between atoms: C_18  and  C_21
REMARK                            x       y       z     vdW  Elec       q    Type
REMARK                         _______ _______ _______ _____ _____    ______ ____
ROOT
ATOM      1  C   UNL     1      -0.729   1.579   1.267  0.00  0.00    +0.147 C 
ENDROOT
BRANCH   1   2
ATOM      2  N   UNL     1      -2.062   0.977   1.338  0.00  0.00    -0.187 NA
ATOM      3  H   UNL     1      -2.444   0.549   0.555  0.00  0.00    +0.148 HD
BRANCH   2   4
ATOM      4  S   UNL     1      -2.918   1.025   2.755  0.00  0.00    +0.061 S 
ATOM      5  O   UNL     1      -4.164   0.391   2.499  0.00  0.00    -0.153 OA
ATOM      6  O   UNL     1      -2.036   0.586   3.778  0.00  0.00    -0.153 OA
BRANCH   4  10
ATOM      7  C   UNL     1      -3.835   5.375   3.616  0.00  0.00    +0.003 A 
ATOM      8  C   UNL     1      -4.864   4.490   3.350  0.00  0.00    +0.002 A 
ATOM      9  C   UNL     1      -4.583   3.164   3.082  0.00  0.00    +0.031 A 
ATOM     10  C   UNL     1      -3.275   2.718   3.090  0.00  0.00    +0.140 A 
ATOM     11  C   UNL     1      -2.244   3.603   3.356  0.00  0.00    +0.150 A 
ATOM     12  C   UNL     1      -2.526   4.933   3.619  0.00  0.00    +0.040 A 
ATOM     13  F   UNL     1      -0.965   3.170   3.358  0.00  0.00    -0.203 F 
ENDBRANCH   4  10
ENDBRANCH   2   4
ENDBRANCH   1   2
BRANCH   1  14
ATOM     14  C   UNL     1      -0.013   1.086   0.008  0.00  0.00    +0.247 C 
BRANCH  14  15
ATOM     15  O   UNL     1      -0.704   1.559  -1.150  0.00  0.00    -0.474 OA
BRANCH  15  16
ATOM     16  C   UNL     1      -0.195   1.208  -2.358  0.00  0.00    +0.234 A 
ATOM     17  C   UNL     1      -0.820   1.636  -3.529  0.00  0.00    +0.071 A 
ATOM     18  C   UNL     1      -0.266   1.254  -4.737  0.00  0.00    +0.036 A 
ATOM     19  C   UNL     1       0.888   0.461  -4.710  0.00  0.00    +0.100 A 
ATOM     20  N   UNL     1       1.413   0.102  -3.543  0.00  0.00    -0.145 NA
ATOM     21  N   UNL     1       0.897   0.464  -2.425  0.00  0.00    -0.111 NA
BRANCH  19  22
ATOM     22  C   UNL     1       1.520   0.026  -5.972  0.00  0.00    +0.039 A 
ATOM     23  C   UNL     1       2.639  -0.743  -6.157  0.00  0.00    +0.018 A 
ATOM     24  C   UNL     1       3.044  -1.022  -7.443  0.00  0.00    +0.008 A 
ATOM     25  C   UNL     1       2.326  -0.530  -8.485  0.00  0.00    +0.046 A 
ATOM     26  S   UNL     1       1.020   0.359  -7.653  0.00  0.00    -0.095 S 
ENDBRANCH  19  22
ENDBRANCH  15  16
ENDBRANCH  14  15
ENDBRANCH   1  14
TORSDOF 7
