REMARK  Name = ZINC20355234
REMARK  8 active torsions:
REMARK  status: ('A' for Active; 'I' for Inactive)
REMARK    1  A    between atoms: C_1  and  C_2
REMARK    2  A    between atoms: C_5  and  C_8
REMARK    3  A    between atoms: C_8  and  N_9
REMARK    4  A    between atoms: C_10  and  C_12
REMARK    5  A    between atoms: C_15  and  C_18
REMARK    6  A    between atoms: N_22  and  C_30
REMARK    7  A    between atoms: C_30  and  C_31
REMARK    8  A    between atoms: C_35  and  C_37
REMARK                            x       y       z     vdW  Elec       q    Type
REMARK                         _______ _______ _______ _____ _____    ______ ____
ROOT
ATOM      1  C   UNL     1       0.140   5.172  -1.259  0.00  0.00    +0.059 C 
ATOM      2  C   UNL     1       0.025   4.193  -0.333  0.00  0.00    +0.191 C 
ATOM      3  C   UNL     1      -1.295   3.784   0.199  0.00  0.00    +0.287 C 
ATOM      4  O   UNL     1      -2.239   4.551   0.203  0.00  0.00    -0.266 OA
ATOM      5  N   UNL     1      -1.411   2.523   0.677  0.00  0.00    -0.257 N 
ATOM      6  C   UNL     1      -0.293   1.680   0.640  0.00  0.00    +0.079 A 
ATOM      7  C   UNL     1      -0.443   0.319   0.864  0.00  0.00    +0.027 A 
ATOM      8  C   UNL     1       0.660  -0.512   0.820  0.00  0.00    +0.002 A 
ATOM      9  C   UNL     1       1.914   0.007   0.553  0.00  0.00    +0.004 A 
ATOM     10  C   UNL     1       2.072   1.362   0.329  0.00  0.00    +0.048 A 
ATOM     11  C   UNL     1       0.971   2.203   0.371  0.00  0.00    +0.150 A 
ATOM     12  O   UNL     1       1.122   3.539   0.154  0.00  0.00    -0.449 OA
ENDROOT
BRANCH   1  16
ATOM     13  C   UNL     1      -3.324   6.747  -3.117  0.00  0.00    +0.037 A 
ATOM     14  C   UNL     1      -2.251   7.590  -2.812  0.00  0.00    +0.013 A 
ATOM     15  C   UNL     1      -1.133   7.083  -2.212  0.00  0.00    +0.009 A 
ATOM     16  C   UNL     1      -1.062   5.719  -1.904  0.00  0.00    -0.021 A 
ATOM     17  C   UNL     1      -2.136   4.875  -2.216  0.00  0.00    +0.009 A 
ATOM     18  C   UNL     1      -3.254   5.386  -2.810  0.00  0.00    +0.013 A 
BRANCH  13  20
ATOM     19  N   UNL     1      -5.567   6.485  -4.060  0.00  0.00    -0.307 N 
ATOM     20  C   UNL     1      -4.532   7.297  -3.765  0.00  0.00    +0.244 C 
ATOM     21  O   UNL     1      -4.593   8.481  -4.032  0.00  0.00    -0.270 OA
ATOM     22  H   UNL     1      -5.512   5.414  -3.818  0.00  0.00    +0.149 HD
BRANCH  19  23
ATOM     23  C   UNL     1      -6.765   7.030  -4.702  0.00  0.00    +0.139 C 
BRANCH  23  28
ATOM     24  C   UNL     1     -10.599   2.789  -5.543  0.00  0.00    +0.044 C 
ATOM     25  C   UNL     1      -9.600   3.895  -5.324  0.00  0.00    -0.050 A 
ATOM     26  C   UNL     1      -9.618   4.621  -4.147  0.00  0.00    +0.003 A 
ATOM     27  C   UNL     1      -8.701   5.635  -3.946  0.00  0.00    +0.005 A 
ATOM     28  C   UNL     1      -7.765   5.924  -4.922  0.00  0.00    -0.030 A 
ATOM     29  C   UNL     1      -7.750   5.202  -6.100  0.00  0.00    +0.005 A 
ATOM     30  C   UNL     1      -8.664   4.185  -6.300  0.00  0.00    +0.003 A 
ENDBRANCH  23  28
ENDBRANCH  19  23
ENDBRANCH  13  20
ENDBRANCH   1  16
BRANCH   5  31
ATOM     31  C   UNL     1      -2.683   2.050   1.229  0.00  0.00    +0.149 C 
BRANCH  31  32
ATOM     32  C   UNL     1      -2.731   2.345   2.706  0.00  0.00    -0.029 A 
ATOM     33  C   UNL     1      -3.248   3.546   3.154  0.00  0.00    +0.005 A 
ATOM     34  C   UNL     1      -3.292   3.817   4.509  0.00  0.00    +0.001 A 
ATOM     35  C   UNL     1      -2.820   2.886   5.415  0.00  0.00    +0.003 A 
ATOM     36  C   UNL     1      -2.304   1.685   4.967  0.00  0.00    -0.050 A 
ATOM     37  C   UNL     1      -2.263   1.413   3.612  0.00  0.00    +0.008 A 
ATOM     38  C   UNL     1      -1.789   0.670   5.955  0.00  0.00    +0.044 C 
ENDBRANCH  31  32
ENDBRANCH   5  31
TORSDOF 6
