REMARK  Name = ZINC66740436
REMARK  3 active torsions:
REMARK  status: ('A' for Active; 'I' for Inactive)
REMARK    1  A    between atoms: C_1  and  C_2
REMARK    2  A    between atoms: C_11  and  C_14
REMARK    3  A    between atoms: C_19  and  N_20
REMARK                            x       y       z     vdW  Elec       q    Type
REMARK                         _______ _______ _______ _____ _____    ______ ____
ROOT
ATOM      1  C   UNL     1       0.671   0.472   0.004  0.00  0.00    +0.067 C 
ATOM      2  C   UNL     1       0.500  -1.001  -0.263  0.00  0.00    +0.055 A 
ATOM      3  C   UNL     1       0.289  -1.577  -1.450  0.00  0.00    +0.082 A 
ATOM      4  C   UNL     1       0.201  -2.984  -1.192  0.00  0.00    +0.168 A 
ATOM      5  N   UNL     1       0.352  -3.148   0.089  0.00  0.00    -0.167 NA
ATOM      6  N   UNL     1       0.537  -2.006   0.662  0.00  0.00    -0.279 N 
ATOM      7  H   UNL     1       0.678  -1.879   1.613  0.00  0.00    +0.189 HD
ATOM      8  C   UNL     1      -0.015  -3.917  -2.315  0.00  0.00    +0.268 C 
ATOM      9  O   UNL     1       0.075  -5.120  -2.170  0.00  0.00    -0.268 OA
ATOM     10  N   UNL     1      -0.320  -3.368  -3.514  0.00  0.00    -0.288 N 
ATOM     11  C   UNL     1      -0.608  -1.950  -3.696  0.00  0.00    +0.192 C 
ATOM     12  N   UNL     1       0.149  -1.103  -2.761  0.00  0.00    -0.319 N 
ATOM     13  H   UNL     1      -0.348  -3.947  -4.292  0.00  0.00    +0.151 HD
ATOM     14  H   UNL     1       0.533  -0.256  -3.040  0.00  0.00    +0.148 HD
ENDROOT
BRANCH  11  15
ATOM     15  C   UNL     1      -2.081  -1.719  -3.478  0.00  0.00    +0.021 A 
ATOM     16  C   UNL     1      -2.812  -2.600  -2.703  0.00  0.00    +0.009 A 
ATOM     17  C   UNL     1      -4.163  -2.388  -2.503  0.00  0.00    +0.001 A 
ATOM     18  C   UNL     1      -4.784  -1.294  -3.078  0.00  0.00    +0.002 A 
ATOM     19  C   UNL     1      -4.053  -0.413  -3.852  0.00  0.00    +0.033 A 
ATOM     20  C   UNL     1      -2.700  -0.623  -4.048  0.00  0.00    +0.133 A 
BRANCH  20  21
ATOM     21  N   UNL     1      -1.917   0.324  -4.873  0.00  0.00    +0.057 N 
ATOM     22  O   UNL     1      -2.477   1.216  -5.467  0.00  0.00    -0.126 OA
ATOM     23  O   UNL     1      -0.716   0.206  -4.953  0.00  0.00    -0.126 OA
ENDBRANCH  20  21
ENDBRANCH  11  15
TORSDOF 2
