REMARK  Name = ZINC27574540
REMARK  9 active torsions:
REMARK  status: ('A' for Active; 'I' for Inactive)
REMARK    1  A    between atoms: C_1  and  C_2
REMARK    2  A    between atoms: N_5  and  C_8
REMARK    3  A    between atoms: C_8  and  C_10
REMARK    4  A    between atoms: C_8  and  C_26
REMARK    5  A    between atoms: C_10  and  N_11
REMARK    6  A    between atoms: C_12  and  C_14
REMARK    7  A    between atoms: C_14  and  C_15
REMARK    8  A    between atoms: C_15  and  C_16
REMARK    9  A    between atoms: C_18  and  C_21
REMARK                            x       y       z     vdW  Elec       q    Type
REMARK                         _______ _______ _______ _____ _____    ______ ____
ROOT
ATOM      1  N   UNL     1      -0.436   1.382   2.483  0.00  0.00    -0.317 N 
ATOM      2  C   UNL     1      -0.969   1.822   1.327  0.00  0.00    +0.213 C 
ATOM      3  O   UNL     1      -1.886   2.616   1.346  0.00  0.00    -0.276 OA
ATOM      4  H   UNL     1       0.396   0.662   2.466  0.00  0.00    +0.149 HD
ENDROOT
BRANCH   1   5
ATOM      5  C   UNL     1      -0.963   1.862   3.763  0.00  0.00    +0.094 C 
BRANCH   5   6
ATOM      6  C   UNL     1      -0.187   1.212   4.911  0.00  0.00    -0.013 C 
BRANCH   6  11
ATOM      7  C   UNL     1       5.308   2.784   4.984  0.00  0.00    +0.007 C 
ATOM      8  C   UNL     1       3.821   2.644   5.317  0.00  0.00    -0.018 C 
ATOM      9  C   UNL     1       3.505   1.183   5.647  0.00  0.00    -0.015 C 
ATOM     10  C   UNL     1       2.006   1.039   5.920  0.00  0.00    -0.078 C 
ATOM     11  N   UNL     1       1.249   1.466   4.737  0.00  0.00    +0.386 N 
ATOM     12  C   UNL     1       1.499   2.880   4.428  0.00  0.00    -0.078 C 
ATOM     13  C   UNL     1       2.983   3.079   4.111  0.00  0.00    -0.015 C 
ATOM     14  H   UNL     1       1.599   0.869   3.881  0.00  0.00    -0.081 HD
ENDBRANCH   6  11
BRANCH   6  15
ATOM     15  C   UNL     1      -0.646   1.796   6.222  0.00  0.00    -0.022 A 
ATOM     16  C   UNL     1      -1.403   1.228   7.191  0.00  0.00    +0.009 A 
ATOM     17  C   UNL     1      -1.703   1.961   8.324  0.00  0.00    +0.008 A 
ATOM     18  C   UNL     1      -1.230   3.227   8.432  0.00  0.00    +0.045 A 
ATOM     19  S   UNL     1      -0.325   3.414   6.904  0.00  0.00    -0.103 S 
ENDBRANCH   6  15
ENDBRANCH   5   6
ENDBRANCH   1   5
BRANCH   2  20
ATOM     20  C   UNL     1      -0.427   1.329   0.011  0.00  0.00    +0.105 C 
BRANCH  20  21
ATOM     21  C   UNL     1      -1.203   1.979  -1.137  0.00  0.00    +0.108 C 
BRANCH  21  22
ATOM     22  C   UNL     1      -0.660   1.485  -2.453  0.00  0.00    +0.228 A 
ATOM     23  N   UNL     1      -1.070   0.434  -3.117  0.00  0.00    -0.191 NA
ATOM     24  C   UNL     1      -0.300   0.383  -4.230  0.00  0.00    +0.209 A 
ATOM     25  N   UNL     1       0.525   1.400  -4.174  0.00  0.00    -0.056 NA
ATOM     26  O   UNL     1       0.326   2.042  -3.164  0.00  0.00    -0.338 OA
BRANCH  24  27
ATOM     27  C   UNL     1      -0.375  -0.628  -5.304  0.00  0.00    +0.060 A 
ATOM     28  C   UNL     1       0.369  -0.727  -6.450  0.00  0.00    +0.019 A 
ATOM     29  C   UNL     1       0.121  -1.770  -7.313  0.00  0.00    +0.008 A 
ATOM     30  C   UNL     1      -0.859  -2.661  -7.009  0.00  0.00    +0.046 A 
ATOM     31  S   UNL     1      -1.464  -2.035  -5.451  0.00  0.00    -0.093 S 
ENDBRANCH  24  27
ENDBRANCH  21  22
ENDBRANCH  20  21
ENDBRANCH   2  20
TORSDOF 8
