REMARK  Name = ZINC22064297
REMARK  15 active torsions:
REMARK  status: ('A' for Active; 'I' for Inactive)
REMARK    1  A    between atoms: C_1  and  C_2
REMARK    2  A    between atoms: C_5  and  O_19
REMARK    3  A    between atoms: C_6  and  C_10
REMARK    4  A    between atoms: C_7  and  O_8
REMARK    5  A    between atoms: O_8  and  C_9
REMARK    6  A    between atoms: C_10  and  C_11
REMARK    7  A    between atoms: C_12  and  C_13
REMARK    8  A    between atoms: C_12  and  C_14
REMARK    9  A    between atoms: C_14  and  C_15
REMARK   10  A    between atoms: C_15  and  C_16
REMARK   11  A    between atoms: O_19  and  C_20
REMARK   12  A    between atoms: C_22  and  O_36
REMARK   13  A    between atoms: C_24  and  O_35
REMARK   14  A    between atoms: C_26  and  O_34
REMARK   15  A    between atoms: C_28  and  C_31
REMARK                            x       y       z     vdW  Elec       q    Type
REMARK                         _______ _______ _______ _____ _____    ______ ____
ROOT
ATOM      1  C   UNL     1      -0.251  -6.440   4.913  0.00  0.00    +0.048 C 
ATOM      2  C   UNL     1       0.230  -5.694   3.695  0.00  0.00    -0.001 A 
ATOM      3  C   UNL     1       1.571  -5.479   3.510  0.00  0.00    +0.014 A 
ATOM      4  C   UNL     1       2.029  -4.787   2.381  0.00  0.00    +0.108 A 
ATOM      5  C   UNL     1       1.102  -4.319   1.437  0.00  0.00    +0.145 A 
ATOM      6  C   UNL     1      -0.250  -4.537   1.636  0.00  0.00    +0.041 A 
ATOM      7  C   UNL     1      -0.688  -5.225   2.759  0.00  0.00    +0.130 A 
ATOM      8  C   UNL     1       3.494  -4.712   2.455  0.00  0.00    +0.343 C 
ATOM      9  O   UNL     1       4.204  -4.175   1.628  0.00  0.00    -0.245 OA
ATOM     10  O   UNL     1       3.937  -5.322   3.568  0.00  0.00    -0.456 OA
ATOM     11  C   UNL     1       2.799  -5.844   4.308  0.00  0.00    +0.269 C 
ENDROOT
BRANCH   7  12
ATOM     12  O   UNL     1      -2.015  -5.440   2.945  0.00  0.00    -0.494 OA
ATOM     13  C   UNL     1      -2.561  -6.641   2.396  0.00  0.00    +0.277 C 
ENDBRANCH   7  12
BRANCH   6  14
ATOM     14  C   UNL     1      -1.249  -4.031   0.628  0.00  0.00    +0.069 C 
BRANCH  14  15
ATOM     15  C   UNL     1      -1.900  -2.777   1.151  0.00  0.00    -0.023 C 
ATOM     16  C   UNL     1      -3.206  -2.681   1.183  0.00  0.00    -0.076 C 
ATOM     17  C   UNL     1      -4.058  -3.870   0.821  0.00  0.00    +0.039 C 
BRANCH  16  18
ATOM     18  C   UNL     1      -3.856  -1.382   1.584  0.00  0.00    +0.041 C 
BRANCH  18  19
ATOM     19  C   UNL     1      -4.163  -0.558   0.331  0.00  0.00    +0.129 C 
BRANCH  19  20
ATOM     20  C   UNL     1      -4.916   0.688   0.721  0.00  0.00    +0.356 C 
ATOM     21  O   UNL     1      -5.184   0.893   1.881  0.00  0.00    -0.246 OA
ATOM     22  O   UNL     1      -5.293   1.567  -0.221  0.00  0.00    -0.246 OA
ENDBRANCH  19  20
ENDBRANCH  18  19
ENDBRANCH  16  18
ENDBRANCH  14  15
ENDBRANCH   6  14
BRANCH   5  23
ATOM     23  O   UNL     1       1.529  -3.651   0.336  0.00  0.00    -0.460 OA
BRANCH  23  24
ATOM     24  C   UNL     1       1.179  -2.269   0.238  0.00  0.00    +0.340 C 
ATOM     25  C   UNL     1       1.334  -1.804  -1.212  0.00  0.00    +0.214 C 
ATOM     26  C   UNL     1       2.801  -1.943  -1.631  0.00  0.00    +0.180 C 
ATOM     27  C   UNL     1       3.675  -1.136  -0.665  0.00  0.00    +0.186 C 
ATOM     28  C   UNL     1       3.430  -1.627   0.764  0.00  0.00    +0.266 C 
ATOM     29  O   UNL     1       2.042  -1.499   1.079  0.00  0.00    -0.322 OA
BRANCH  28  30
ATOM     30  C   UNL     1       4.241  -0.799   1.726  0.00  0.00    +0.387 C 
ATOM     31  O   UNL     1       3.685  -0.093   2.534  0.00  0.00    -0.243 OA
ATOM     32  O   UNL     1       5.582  -0.844   1.685  0.00  0.00    -0.243 OA
ENDBRANCH  28  30
BRANCH  27  33
ATOM     33  O   UNL     1       5.051  -1.317  -1.003  0.00  0.00    -0.386 OA
ATOM     34  H   UNL     1       5.832  -0.811  -0.416  0.00  0.00    +0.210 HD
ENDBRANCH  27  33
BRANCH  26  35
ATOM     35  O   UNL     1       2.968  -1.443  -2.959  0.00  0.00    -0.386 OA
ATOM     36  H   UNL     1       3.961  -1.460  -3.432  0.00  0.00    +0.210 HD
ENDBRANCH  26  35
BRANCH  25  37
ATOM     37  O   UNL     1       0.934  -0.437  -1.320  0.00  0.00    -0.383 OA
ATOM     38  H   UNL     1       0.977   0.073  -2.294  0.00  0.00    +0.210 HD
ENDBRANCH  25  37
ENDBRANCH  23  24
ENDBRANCH   5  23
TORSDOF 12
