REMARK  Name = ZINC00728001
REMARK  11 active torsions:
REMARK  status: ('A' for Active; 'I' for Inactive)
REMARK    1  A    between atoms: C_1  and  C_2
REMARK    2  A    between atoms: C_2  and  O_3
REMARK    3  A    between atoms: O_3  and  C_4
REMARK    4  A    between atoms: C_7  and  C_11
REMARK    5  A    between atoms: C_9  and  C_10
REMARK    6  A    between atoms: C_11  and  C_12
REMARK    7  A    between atoms: C_13  and  C_30
REMARK    8  A    between atoms: C_22  and  C_29
REMARK    9  A    between atoms: C_23  and  C_25
REMARK   10  A    between atoms: C_25  and  O_27
REMARK   11  A    between atoms: O_27  and  C_28
REMARK                            x       y       z     vdW  Elec       q    Type
REMARK                         _______ _______ _______ _____ _____    ______ ____
ROOT
ATOM      1  C   UNL     1       1.260  -4.920  -0.139  0.00  0.00    +0.077 C 
ATOM      2  C   UNL     1       1.453  -6.413  -0.269  0.00  0.00    +0.152 C 
ATOM      3  N   UNL     1       2.898  -6.641  -0.367  0.00  0.00    -0.232 N 
ATOM      4  C   UNL     1       3.532  -5.458  -0.307  0.00  0.00    +0.293 C 
ATOM      5  O   UNL     1       4.736  -5.311  -0.361  0.00  0.00    -0.266 OA
ATOM      6  C   UNL     1       2.544  -4.356  -0.170  0.00  0.00    +0.250 C 
ATOM      7  O   UNL     1       2.804  -3.168  -0.094  0.00  0.00    -0.282 OA
ATOM      8  C   UNL     1       3.509  -7.874  -0.499  0.00  0.00    +0.169 A 
ATOM      9  N   UNL     1       4.800  -8.152  -0.598  0.00  0.00    -0.229 NA
ATOM     10  C   UNL     1       5.229  -9.382  -0.714  0.00  0.00    +0.062 A 
ATOM     11  C   UNL     1       4.281 -10.397  -0.743  0.00  0.00    +0.120 A 
ATOM     12  S   UNL     1       2.776  -9.446  -0.585  0.00  0.00    -0.045 S 
ATOM     13  C   UNL     1       6.701  -9.686  -0.819  0.00  0.00    +0.067 C 
ENDROOT
BRANCH   2  14
ATOM     14  C   UNL     1       0.766  -6.916  -1.512  0.00  0.00    -0.022 A 
ATOM     15  C   UNL     1       1.372  -6.766  -2.746  0.00  0.00    +0.008 A 
ATOM     16  C   UNL     1       0.745  -7.231  -3.886  0.00  0.00    +0.038 A 
ATOM     17  C   UNL     1      -0.496  -7.838  -3.794  0.00  0.00    +0.123 A 
ATOM     18  C   UNL     1      -1.105  -7.984  -2.559  0.00  0.00    +0.038 A 
ATOM     19  C   UNL     1      -0.473  -7.522  -1.419  0.00  0.00    +0.008 A 
ATOM     20  F   UNL     1      -1.112  -8.289  -4.908  0.00  0.00    -0.205 F 
ENDBRANCH   2  14
BRANCH   1  21
ATOM     21  C   UNL     1       0.060  -4.246  -0.019  0.00  0.00    +0.195 C 
ATOM     22  O   UNL     1      -1.102  -4.934  -0.007  0.00  0.00    -0.287 OA
BRANCH  21  26
ATOM     23  C   UNL     1       0.026  -0.017   0.309  0.00  0.00    +0.123 A 
ATOM     24  C   UNL     1       0.773  -0.775   1.204  0.00  0.00    +0.046 A 
ATOM     25  C   UNL     1       0.787  -2.147   1.102  0.00  0.00    +0.015 A 
ATOM     26  C   UNL     1       0.048  -2.780   0.095  0.00  0.00    +0.023 A 
ATOM     27  C   UNL     1      -0.702  -2.011  -0.804  0.00  0.00    +0.018 A 
ATOM     28  C   UNL     1      -0.714  -0.640  -0.690  0.00  0.00    -0.008 A 
ATOM     29  C   UNL     1      -1.526   0.188  -1.653  0.00  0.00    +0.047 C 
BRANCH  23  30
ATOM     30  O   UNL     1       0.015   1.336   0.414  0.00  0.00    -0.492 OA
BRANCH  30  32
ATOM     31  C   UNL     1       0.656   3.435   1.426  0.00  0.00    +0.048 C 
ATOM     32  C   UNL     1       0.792   1.911   1.466  0.00  0.00    +0.225 C 
ENDBRANCH  30  32
ENDBRANCH  23  30
ENDBRANCH  21  26
ENDBRANCH   1  21
BRANCH  11  33
ATOM     33  C   UNL     1       4.464 -11.841  -0.869  0.00  0.00    +0.347 C 
ATOM     34  O   UNL     1       5.584 -12.306  -0.968  0.00  0.00    -0.244 OA
BRANCH  33  35
ATOM     35  O   UNL     1       3.391 -12.659  -0.876  0.00  0.00    -0.464 OA
ATOM     36  C   UNL     1       3.644 -14.060  -1.002  0.00  0.00    +0.280 C 
ENDBRANCH  33  35
ENDBRANCH  11  33
TORSDOF 7
