REMARK  Name = ZINC08918775
REMARK  4 active torsions:
REMARK  status: ('A' for Active; 'I' for Inactive)
REMARK    1  A    between atoms: N_11  and  C_12
REMARK    2  A    between atoms: C_17  and  C_18
REMARK    3  A    between atoms: C_17  and  N_52
REMARK    4  A    between atoms: N_23  and  C_24
REMARK                            x       y       z     vdW  Elec       q    Type
REMARK                         _______ _______ _______ _____ _____    ______ ____
ROOT
ATOM      1  C   UNL     1       7.138  -0.598  -0.466  0.00  0.00    +0.089 C 
ATOM      2  C   UNL     1       7.159   0.537   0.562  0.00  0.00    +0.006 C 
ATOM      3  C   UNL     1       6.081   1.563   0.203  0.00  0.00    -0.076 C 
ATOM      4  C   UNL     1       4.706  -0.152  -0.817  0.00  0.00    -0.076 C 
ATOM      5  C   UNL     1       5.743  -1.229  -0.489  0.00  0.00    +0.006 C 
ATOM      6  N   UNL     1       4.761   0.899   0.222  0.00  0.00    +0.386 N 
ATOM      7  H   UNL     1       4.619   0.465   1.142  0.00  0.00    -0.081 HD
ENDROOT
BRANCH   1  18
ATOM      8  C   UNL     1      11.484  -3.202  -1.921  0.00  0.00    +0.002 A 
ATOM      9  C   UNL     1      10.810  -2.233  -2.644  0.00  0.00    +0.002 A 
ATOM     10  C   UNL     1       9.678  -1.637  -2.124  0.00  0.00    +0.028 A 
ATOM     11  C   UNL     1       9.213  -2.013  -0.873  0.00  0.00    +0.070 A 
ATOM     12  C   UNL     1       9.892  -2.991  -0.144  0.00  0.00    +0.067 A 
ATOM     13  C   UNL     1      11.028  -3.583  -0.674  0.00  0.00    +0.028 A 
ATOM     14  N   UNL     1       9.200  -3.153   1.054  0.00  0.00    -0.306 N 
ATOM     15  H   UNL     1       9.435  -3.767   1.767  0.00  0.00    +0.170 HD
ATOM     16  C   UNL     1       8.151  -2.309   1.055  0.00  0.00    +0.328 A 
ATOM     17  O   UNL     1       7.343  -2.195   1.959  0.00  0.00    -0.247 OA
ATOM     18  N   UNL     1       8.129  -1.611  -0.096  0.00  0.00    -0.289 N 
ENDBRANCH   1  18
BRANCH   6  19
ATOM     19  C   UNL     1       3.692   1.893  -0.009  0.00  0.00    +0.019 C 
BRANCH  19  20
ATOM     20  C   UNL     1       3.612   2.805   1.188  0.00  0.00    +0.204 C 
ATOM     21  O   UNL     1       4.373   2.652   2.119  0.00  0.00    -0.277 OA
ATOM     22  N   UNL     1       2.696   3.793   1.222  0.00  0.00    -0.241 N 
ATOM     23  C   UNL     1       2.624   4.609   2.292  0.00  0.00    +0.310 C 
ATOM     24  O   UNL     1       3.387   4.455   3.226  0.00  0.00    -0.252 OA
ATOM     25  N   UNL     1       1.704   5.593   2.329  0.00  0.00    -0.267 N 
ATOM     26  H   UNL     1       2.087   3.916   0.477  0.00  0.00    +0.159 HD
ATOM     27  H   UNL     1       1.139   5.758   1.558  0.00  0.00    +0.156 HD
BRANCH  25  28
ATOM     28  C   UNL     1       1.562   6.376   3.481  0.00  0.00    +0.070 A 
ATOM     29  C   UNL     1       2.636   6.545   4.344  0.00  0.00    +0.026 A 
ATOM     30  C   UNL     1       2.495   7.323   5.477  0.00  0.00    +0.002 A 
ATOM     31  C   UNL     1       1.282   7.925   5.759  0.00  0.00    +0.003 A 
ATOM     32  C   UNL     1       0.207   7.755   4.905  0.00  0.00    +0.040 A 
ATOM     33  C   UNL     1       0.343   6.982   3.766  0.00  0.00    +0.145 A 
ATOM     34  F   UNL     1      -0.707   6.815   2.933  0.00  0.00    -0.204 F 
ENDBRANCH  25  28
ENDBRANCH  19  20
ENDBRANCH   6  19
TORSDOF 4
