REMARK  Name = ZINC38826669
REMARK  12 active torsions:
REMARK  status: ('A' for Active; 'I' for Inactive)
REMARK    1  A    between atoms: C_1  and  C_2
REMARK    2  A    between atoms: C_2  and  O_3
REMARK    3  A    between atoms: O_3  and  C_4
REMARK    4  A    between atoms: C_8  and  C_11
REMARK    5  A    between atoms: C_9  and  O_10
REMARK    6  A    between atoms: N_12  and  N_13
REMARK    7  A    between atoms: C_14  and  C_16
REMARK    8  A    between atoms: C_19  and  C_22
REMARK    9  A    between atoms: C_25  and  C_28
REMARK   10  A    between atoms: C_28  and  C_29
REMARK   11  A    between atoms: C_29  and  C_30
REMARK   12  A    between atoms: C_29  and  C_31
REMARK                            x       y       z     vdW  Elec       q    Type
REMARK                         _______ _______ _______ _____ _____    ______ ____
ROOT
ATOM      1  N   UNL     1       3.357  -4.011  -5.815  0.00  0.00    -0.205 N 
ATOM      2  C   UNL     1       3.879  -3.186  -6.745  0.00  0.00    +0.263 C 
ATOM      3  O   UNL     1       3.789  -1.984  -6.609  0.00  0.00    -0.271 OA
ATOM      4  H   UNL     1       3.429  -4.972  -5.924  0.00  0.00    +0.177 HD
ENDROOT
BRANCH   2   5
ATOM      5  C   UNL     1       4.575  -3.758  -7.953  0.00  0.00    +0.240 C 
ATOM      6  C   UNL     1       6.011  -4.124  -7.621  0.00  0.00    +0.041 C 
ATOM      7  C   UNL     1       6.741  -3.341  -8.439  0.00  0.00    +0.092 C 
ATOM      8  N   UNL     1       5.928  -2.567  -9.205  0.00  0.00    -0.153 NA
ATOM      9  N   UNL     1       4.720  -2.735  -9.002  0.00  0.00    -0.170 NA
BRANCH   7  10
ATOM     10  C   UNL     1       8.223  -3.326  -8.496  0.00  0.00    +0.002 A 
ATOM     11  C   UNL     1       8.964  -4.167  -7.668  0.00  0.00    +0.010 A 
ATOM     12  C   UNL     1      10.343  -4.149  -7.725  0.00  0.00    +0.004 A 
ATOM     13  C   UNL     1      10.990  -3.298  -8.603  0.00  0.00    -0.047 A 
ATOM     14  C   UNL     1      10.260  -2.461  -9.428  0.00  0.00    +0.004 A 
ATOM     15  C   UNL     1       8.881  -2.474  -9.382  0.00  0.00    +0.010 A 
BRANCH  13  16
ATOM     16  C   UNL     1      12.496  -3.283  -8.661  0.00  0.00    +0.038 C 
BRANCH  16  17
ATOM     17  C   UNL     1      12.977  -4.303  -9.695  0.00  0.00    -0.013 C 
ATOM     18  C   UNL     1      14.496  -4.200  -9.844  0.00  0.00    +0.007 C 
ATOM     19  C   UNL     1      12.604  -5.713  -9.232  0.00  0.00    +0.007 C 
ENDBRANCH  16  17
ENDBRANCH  13  16
ENDBRANCH   7  10
ENDBRANCH   2   5
BRANCH   1  21
ATOM     20  C   UNL     1       2.207  -4.273  -3.797  0.00  0.00    +0.142 C 
ATOM     21  N   UNL     1       2.710  -3.479  -4.692  0.00  0.00    -0.188 NA
BRANCH  20  26
ATOM     22  C   UNL     1       0.777  -1.811  -1.336  0.00  0.00    +0.162 A 
ATOM     23  C   UNL     1       0.243  -2.668  -0.387  0.00  0.00    +0.049 A 
ATOM     24  C   UNL     1       0.347  -4.039  -0.545  0.00  0.00    +0.004 A 
ATOM     25  C   UNL     1       0.983  -4.566  -1.649  0.00  0.00    +0.013 A 
ATOM     26  C   UNL     1       1.526  -3.714  -2.615  0.00  0.00    +0.040 A 
ATOM     27  C   UNL     1       1.415  -2.327  -2.457  0.00  0.00    +0.167 A 
BRANCH  27  28
ATOM     28  O   UNL     1       1.935  -1.490  -3.393  0.00  0.00    -0.503 OA
ATOM     29  H   UNL     1       2.855  -1.240  -3.229  0.00  0.00    +0.292 HD
ENDBRANCH  27  28
BRANCH  22  30
ATOM     30  O   UNL     1       0.671  -0.465  -1.174  0.00  0.00    -0.489 OA
BRANCH  30  32
ATOM     31  C   UNL     1      -0.019   1.526   0.010  0.00  0.00    +0.048 C 
ATOM     32  C   UNL     1       0.002  -0.004   0.002  0.00  0.00    +0.226 C 
ENDBRANCH  30  32
ENDBRANCH  22  30
ENDBRANCH  20  26
ENDBRANCH   1  21
TORSDOF 9
