REMARK  Name = ZINC39667411
REMARK  11 active torsions:
REMARK  status: ('A' for Active; 'I' for Inactive)
REMARK    1  A    between atoms: C_1  and  C_2
REMARK    2  A    between atoms: C_2  and  C_3
REMARK    3  A    between atoms: C_2  and  C_4
REMARK    4  A    between atoms: C_4  and  C_6
REMARK    5  A    between atoms: C_4  and  O_31
REMARK    6  A    between atoms: C_10  and  C_19
REMARK    7  A    between atoms: N_21  and  C_22
REMARK    8  A    between atoms: C_22  and  C_23
REMARK    9  A    between atoms: C_26  and  S_29
REMARK   10  A    between atoms: S_29  and  C_30
REMARK   11  A    between atoms: O_31  and  C_32
REMARK                            x       y       z     vdW  Elec       q    Type
REMARK                         _______ _______ _______ _____ _____    ______ ____
ROOT
ATOM      1  C   UNL     1      -1.135  -1.602   0.252  0.00  0.00    +0.257 C 
ATOM      2  O   UNL     1      -1.456  -2.380  -0.621  0.00  0.00    -0.272 OA
ATOM      3  N   UNL     1      -0.661  -2.064   1.426  0.00  0.00    -0.297 N 
ATOM      4  C   UNL     1      -0.335  -1.285   2.644  0.00  0.00    +0.121 C 
ATOM      5  C   UNL     1      -0.819  -2.170   3.814  0.00  0.00    +0.100 C 
ATOM      6  C   UNL     1      -0.824  -3.600   3.249  0.00  0.00    -0.004 C 
ATOM      7  C   UNL     1      -0.355  -3.467   1.793  0.00  0.00    +0.115 C 
ATOM      8  C   UNL     1       0.139  -4.483   4.037  0.00  0.00    -0.010 C 
ATOM      9  C   UNL     1       0.074  -5.913   3.494  0.00  0.00    -0.082 C 
ATOM     10  N   UNL     1      -1.298  -6.422   3.615  0.00  0.00    +0.379 N 
ATOM     11  C   UNL     1      -2.203  -5.623   2.780  0.00  0.00    -0.082 C 
ATOM     12  C   UNL     1      -2.234  -4.181   3.293  0.00  0.00    -0.010 C 
ATOM     13  H   UNL     1      -1.326  -7.385   3.313  0.00  0.00    -0.086 HD
ATOM     14  H   UNL     1      -1.593  -6.365   4.578  0.00  0.00    -0.086 HD
ENDROOT
BRANCH   5  15
ATOM     15  C   UNL     1       0.133  -2.066   4.978  0.00  0.00    +0.218 C 
ATOM     16  O   UNL     1       1.297  -1.785   4.787  0.00  0.00    -0.275 OA
ATOM     17  N   UNL     1      -0.309  -2.286   6.232  0.00  0.00    -0.311 N 
ATOM     18  H   UNL     1      -1.240  -2.511   6.386  0.00  0.00    +0.149 HD
BRANCH  17  19
ATOM     19  C   UNL     1       0.616  -2.186   7.364  0.00  0.00    +0.139 C 
BRANCH  19  20
ATOM     20  C   UNL     1      -0.124  -2.475   8.645  0.00  0.00    -0.030 A 
ATOM     21  C   UNL     1      -0.730  -1.444   9.339  0.00  0.00    +0.006 A 
ATOM     22  C   UNL     1      -1.408  -1.706  10.513  0.00  0.00    +0.015 A 
ATOM     23  C   UNL     1      -1.481  -3.007  10.997  0.00  0.00    +0.008 A 
ATOM     24  C   UNL     1      -0.871  -4.040  10.296  0.00  0.00    +0.015 A 
ATOM     25  C   UNL     1      -0.199  -3.772   9.119  0.00  0.00    +0.006 A 
BRANCH  23  26
ATOM     26  S   UNL     1      -2.344  -3.346  12.495  0.00  0.00    -0.129 S 
ATOM     27  C   UNL     1      -2.167  -5.138  12.708  0.00  0.00    +0.090 C 
ENDBRANCH  23  26
ENDBRANCH  19  20
ENDBRANCH  17  19
ENDBRANCH   5  15
BRANCH   1  28
ATOM     28  C   UNL     1      -1.268  -0.118   0.025  0.00  0.00    +0.261 C 
BRANCH  28  30
ATOM     29  C   UNL     1      -0.038   1.967  -0.594  0.00  0.00    +0.011 C 
ATOM     30  C   UNL     1       0.081   0.452  -0.418  0.00  0.00    +0.033 C 
ATOM     31  C   UNL     1       1.139   0.143   0.644  0.00  0.00    +0.011 C 
ENDBRANCH  28  30
BRANCH  28  32
ATOM     32  O   UNL     1      -2.243   0.123  -0.992  0.00  0.00    -0.479 OA
BRANCH  32  33
ATOM     33  C   UNL     1      -3.105   1.153  -0.787  0.00  0.00    +0.122 A 
ATOM     34  C   UNL     1      -4.156   1.366  -1.668  0.00  0.00    +0.045 A 
ATOM     35  C   UNL     1      -5.031   2.414  -1.458  0.00  0.00    +0.004 A 
ATOM     36  C   UNL     1      -4.861   3.251  -0.370  0.00  0.00    +0.000 A 
ATOM     37  C   UNL     1      -3.814   3.041   0.509  0.00  0.00    +0.004 A 
ATOM     38  C   UNL     1      -2.940   1.991   0.306  0.00  0.00    +0.045 A 
ENDBRANCH  32  33
ENDBRANCH  28  32
ENDBRANCH   1  28
TORSDOF 8
