REMARK  Name = ZINC27533590
REMARK  7 active torsions:
REMARK  status: ('A' for Active; 'I' for Inactive)
REMARK    1  A    between atoms: C_1  and  C_2
REMARK    2  A    between atoms: N_16  and  C_17
REMARK    3  A    between atoms: C_17  and  C_18
REMARK    4  A    between atoms: N_20  and  C_21
REMARK    5  A    between atoms: C_23  and  N_35
REMARK    6  A    between atoms: C_25  and  O_27
REMARK    7  A    between atoms: O_27  and  C_28
REMARK                            x       y       z     vdW  Elec       q    Type
REMARK                         _______ _______ _______ _____ _____    ______ ____
ROOT
ATOM      1  C   UNL     1      -3.522   0.560   0.654  0.00  0.00    +0.237 C 
ATOM      2  O   UNL     1      -2.496   0.483   1.296  0.00  0.00    -0.274 OA
ATOM      3  N   UNL     1      -4.713   0.410   1.267  0.00  0.00    -0.284 N 
ATOM      4  H   UNL     1      -5.645   0.570   0.706  0.00  0.00    +0.155 HD
ENDROOT
BRANCH   3   5
ATOM      5  C   UNL     1      -4.764   0.049   2.619  0.00  0.00    +0.039 A 
ATOM      6  C   UNL     1      -3.809   0.534   3.504  0.00  0.00    +0.056 A 
ATOM      7  C   UNL     1      -3.859   0.178   4.838  0.00  0.00    +0.131 A 
ATOM      8  C   UNL     1      -4.858  -0.660   5.295  0.00  0.00    +0.079 A 
ATOM      9  C   UNL     1      -5.814  -1.147   4.415  0.00  0.00    +0.132 A 
ATOM     10  C   UNL     1      -5.771  -0.788   3.077  0.00  0.00    +0.069 A 
BRANCH   7  11
ATOM     11  N   UNL     1      -2.840   0.695   5.779  0.00  0.00    +0.057 N 
ATOM     12  O   UNL     1      -1.959   1.434   5.377  0.00  0.00    -0.126 OA
ATOM     13  O   UNL     1      -2.883   0.382   6.955  0.00  0.00    -0.126 OA
ENDBRANCH   7  11
BRANCH   9  14
ATOM     14  O   UNL     1      -6.797  -1.971   4.867  0.00  0.00    -0.456 OA
BRANCH  14  15
ATOM     15  C   UNL     1      -6.686  -3.300   4.603  0.00  0.00    +0.129 A 
ATOM     16  C   UNL     1      -5.546  -3.793   3.986  0.00  0.00    +0.049 A 
ATOM     17  C   UNL     1      -5.433  -5.144   3.724  0.00  0.00    +0.042 A 
ATOM     18  C   UNL     1      -6.462  -6.005   4.065  0.00  0.00    +0.124 A 
ATOM     19  C   UNL     1      -7.604  -5.513   4.675  0.00  0.00    +0.042 A 
ATOM     20  C   UNL     1      -7.717  -4.163   4.944  0.00  0.00    +0.049 A 
ATOM     21  F   UNL     1      -6.353  -7.326   3.803  0.00  0.00    -0.205 F 
ENDBRANCH  14  15
ENDBRANCH   9  14
ENDBRANCH   3   5
BRANCH   1  22
ATOM     22  C   UNL     1      -3.466   0.825  -0.828  0.00  0.00    +0.218 C 
BRANCH  22  38
ATOM     23  C   UNL     1       0.689  -3.724  -2.879  0.00  0.00    +0.044 C 
ATOM     24  C   UNL     1      -0.035  -2.475  -2.449  0.00  0.00    -0.050 A 
ATOM     25  C   UNL     1      -1.361  -2.549  -2.048  0.00  0.00    +0.005 A 
ATOM     26  C   UNL     1      -2.041  -1.418  -1.651  0.00  0.00    +0.027 A 
ATOM     27  C   UNL     1      -1.395  -0.183  -1.651  0.00  0.00    +0.054 A 
ATOM     28  C   UNL     1      -0.052  -0.116  -2.058  0.00  0.00    +0.046 A 
ATOM     29  C   UNL     1       0.619  -1.274  -2.456  0.00  0.00    +0.017 A 
ATOM     30  C   UNL     1       0.634   1.189  -2.059  0.00  0.00    +0.197 A 
ATOM     31  O   UNL     1       1.797   1.292  -2.405  0.00  0.00    -0.287 OA
ATOM     32  C   UNL     1      -0.141   2.365  -1.625  0.00  0.00    +0.046 A 
ATOM     33  C   UNL     1       0.442   3.634  -1.598  0.00  0.00    +0.014 A 
ATOM     34  C   UNL     1      -0.295   4.711  -1.193  0.00  0.00    +0.001 A 
ATOM     35  C   UNL     1      -1.618   4.552  -0.806  0.00  0.00    +0.002 A 
ATOM     36  C   UNL     1      -2.212   3.309  -0.825  0.00  0.00    +0.026 A 
ATOM     37  C   UNL     1      -1.481   2.196  -1.235  0.00  0.00    +0.054 A 
ATOM     38  N   UNL     1      -2.069   0.950  -1.250  0.00  0.00    -0.331 N 
ENDBRANCH  22  38
ENDBRANCH   1  22
TORSDOF 6
