REMARK  Name = ZINC32104491
REMARK  2 active torsions:
REMARK  status: ('A' for Active; 'I' for Inactive)
REMARK    1  A    between atoms: C_5  and  C_7
REMARK    2  A    between atoms: C_7  and  N_8
REMARK                            x       y       z     vdW  Elec       q    Type
REMARK                         _______ _______ _______ _____ _____    ______ ____
ROOT
ATOM      1  N   UNL     1       1.249  -2.679   1.358  0.00  0.00    -0.246 N 
ATOM      2  C   UNL     1       2.342  -2.895   2.103  0.00  0.00    +0.128 A 
ATOM      3  C   UNL     1       1.928  -3.364   3.323  0.00  0.00    +0.032 A 
ATOM      4  C   UNL     1       0.542  -3.418   3.311  0.00  0.00    +0.141 A 
ATOM      5  N   UNL     1       0.127  -3.003   2.137  0.00  0.00    -0.177 NA
ATOM      6  C   UNL     1       2.901  -3.732   4.408  0.00  0.00    +0.111 C 
ATOM      7  C   UNL     1       4.174  -2.904   4.247  0.00  0.00    +0.122 C 
ATOM      8  C   UNL     1       4.592  -2.827   2.804  0.00  0.00    +0.220 C 
ATOM      9  O   UNL     1       5.774  -2.855   2.533  0.00  0.00    -0.275 OA
ATOM     10  N   UNL     1       3.694  -2.729   1.802  0.00  0.00    -0.270 N 
ATOM     11  C   UNL     1       3.202  -5.197   4.391  0.00  0.00    -0.005 A 
ATOM     12  C   UNL     1       3.766  -6.003   3.426  0.00  0.00    +0.026 A 
ATOM     13  C   UNL     1       3.908  -7.352   3.736  0.00  0.00    +0.041 A 
ATOM     14  C   UNL     1       3.502  -7.857   4.955  0.00  0.00    +0.022 A 
ATOM     15  C   UNL     1       2.935  -7.051   5.930  0.00  0.00    +0.025 A 
ATOM     16  C   UNL     1       2.787  -5.695   5.632  0.00  0.00    +0.038 A 
ATOM     17  N   UNL     1       2.260  -4.677   6.408  0.00  0.00    -0.284 N 
ATOM     18  C   UNL     1       2.287  -3.489   5.769  0.00  0.00    +0.233 C 
ATOM     19  O   UNL     1       1.894  -2.427   6.204  0.00  0.00    -0.274 OA
ATOM     20 CL   UNL     1       4.610  -8.424   2.564  0.00  0.00    -0.084 Cl
ATOM     21  H   UNL     1       3.982  -2.547   0.893  0.00  0.00    +0.156 HD
ATOM     22  H   UNL     1       1.912  -4.803   7.305  0.00  0.00    +0.155 HD
ENDROOT
BRANCH   1  23
ATOM     23  C   UNL     1       1.229  -2.186  -0.022  0.00  0.00    +0.182 C 
BRANCH  23  28
ATOM     24  C   UNL     1       2.233  -4.956  -2.382  0.00  0.00    +0.000 A 
ATOM     25  C   UNL     1       1.005  -5.496  -2.714  0.00  0.00    +0.001 A 
ATOM     26  C   UNL     1      -0.152  -4.965  -2.175  0.00  0.00    +0.020 A 
ATOM     27  C   UNL     1      -0.080  -3.893  -1.303  0.00  0.00    +0.046 A 
ATOM     28  C   UNL     1       1.149  -3.354  -0.971  0.00  0.00    -0.008 A 
ATOM     29  C   UNL     1       2.306  -3.885  -1.511  0.00  0.00    +0.007 A 
ATOM     30 CL   UNL     1      -1.533  -3.226  -0.626  0.00  0.00    -0.083 Cl
ENDBRANCH  23  28
ENDBRANCH   1  23
TORSDOF 2
