REMARK  Name = ZINC52094833
REMARK  3 active torsions:
REMARK  status: ('A' for Active; 'I' for Inactive)
REMARK    1  A    between atoms: C_2  and  C_9
REMARK    2  A    between atoms: C_9  and  C_11
REMARK    3  A    between atoms: C_9  and  O_24
REMARK                            x       y       z     vdW  Elec       q    Type
REMARK                         _______ _______ _______ _____ _____    ______ ____
ROOT
ATOM      1  C   UNL     1       1.402   4.093   1.409  0.00  0.00    +0.001 A 
ATOM      2  C   UNL     1       2.682   4.441   1.794  0.00  0.00    +0.035 A 
ATOM      3  C   UNL     1       2.915   4.900   3.082  0.00  0.00    +0.067 A 
ATOM      4  C   UNL     1       1.854   5.008   3.984  0.00  0.00    +0.068 A 
ATOM      5  C   UNL     1       0.573   4.655   3.590  0.00  0.00    +0.043 A 
ATOM      6  C   UNL     1       0.350   4.204   2.302  0.00  0.00    +0.026 A 
ATOM      7 BR   UNL     1      -1.399   3.731   1.760  0.00  0.00    -0.050 Br
ATOM      8  N   UNL     1       2.388   5.489   5.178  0.00  0.00    -0.306 N 
ATOM      9  H   UNL     1       1.891   5.666   5.991  0.00  0.00    +0.170 HD
ATOM     10  C   UNL     1       3.712   5.666   5.009  0.00  0.00    +0.325 A 
ATOM     11  O   UNL     1       4.479   6.076   5.861  0.00  0.00    -0.247 OA
ATOM     12  N   UNL     1       4.060   5.319   3.755  0.00  0.00    -0.306 N 
ATOM     13  H   UNL     1       4.956   5.355   3.384  0.00  0.00    +0.170 HD
ENDROOT
BRANCH   1  14
ATOM     14  C   UNL     1       1.149   3.594   0.010  0.00  0.00    +0.176 C 
BRANCH  14  16
ATOM     15  C   UNL     1      -0.017   1.379   0.010  0.00  0.00    +0.026 A 
ATOM     16  C   UNL     1       1.171   2.087   0.002  0.00  0.00    -0.012 A 
ATOM     17  C   UNL     1       2.377   1.413  -0.013  0.00  0.00    +0.026 A 
ATOM     18  C   UNL     1       2.397   0.030  -0.021  0.00  0.00    +0.043 A 
ATOM     19  C   UNL     1       1.209  -0.679  -0.013  0.00  0.00    +0.040 A 
ATOM     20  C   UNL     1       0.002  -0.004   0.002  0.00  0.00    +0.043 A 
ATOM     21 CL   UNL     1      -1.489  -0.893   0.012  0.00  0.00    -0.083 Cl
ATOM     22 CL   UNL     1       3.913  -0.817  -0.040  0.00  0.00    -0.083 Cl
ENDBRANCH  14  16
BRANCH  14  23
ATOM     23  O   UNL     1       2.167   4.089  -0.863  0.00  0.00    -0.382 OA
ATOM     24  H   UNL     1       3.062   3.815  -0.620  0.00  0.00    +0.211 HD
ENDBRANCH  14  23
ENDBRANCH   1  14
TORSDOF 3
