REMARK  Name = ZINC39835084
REMARK  10 active torsions:
REMARK  status: ('A' for Active; 'I' for Inactive)
REMARK    1  A    between atoms: C_1  and  C_2
REMARK    2  A    between atoms: C_5  and  C_8
REMARK    3  A    between atoms: C_8  and  N_9
REMARK    4  A    between atoms: C_10  and  C_22
REMARK    5  A    between atoms: N_14  and  C_15
REMARK    6  A    between atoms: C_18  and  C_21
REMARK    7  A    between atoms: C_25  and  S_28
REMARK    8  A    between atoms: S_28  and  N_31
REMARK    9  A    between atoms: N_31  and  C_32
REMARK   10  A    between atoms: N_31  and  C_33
REMARK                            x       y       z     vdW  Elec       q    Type
REMARK                         _______ _______ _______ _____ _____    ______ ____
ROOT
ATOM      1  N   UNL     1       1.413  -4.848  -0.145  0.00  0.00    -0.318 N 
ATOM      2  C   UNL     1       2.014  -4.708  -1.325  0.00  0.00    +0.058 A 
ATOM      3  C   UNL     1       3.315  -5.100  -1.463  0.00  0.00    +0.074 A 
ATOM      4  S   UNL     1       3.663  -5.691   0.188  0.00  0.00    -0.062 S 
ATOM      5  C   UNL     1       2.055  -5.354   0.892  0.00  0.00    +0.144 A 
ATOM      6  N   UNL     1       1.602  -5.569   2.184  0.00  0.00    -0.295 N 
ATOM      7  H   UNL     1       0.667  -5.425   2.400  0.00  0.00    +0.154 HD
ENDROOT
BRANCH   6   8
ATOM      8  C   UNL     1       2.491  -5.993   3.175  0.00  0.00    +0.033 A 
ATOM      9  C   UNL     1       3.802  -5.533   3.178  0.00  0.00    +0.023 A 
ATOM     10  C   UNL     1       4.678  -5.954   4.159  0.00  0.00    +0.005 A 
ATOM     11  C   UNL     1       4.251  -6.833   5.138  0.00  0.00    -0.050 A 
ATOM     12  C   UNL     1       2.947  -7.293   5.138  0.00  0.00    +0.005 A 
ATOM     13  C   UNL     1       2.064  -6.872   4.163  0.00  0.00    +0.023 A 
ATOM     14  C   UNL     1       5.210  -7.290   6.207  0.00  0.00    +0.044 C 
ENDBRANCH   6   8
BRANCH   2  15
ATOM     15  C   UNL     1       1.278  -4.133  -2.477  0.00  0.00    -0.001 A 
ATOM     16  C   UNL     1       0.200  -3.276  -2.261  0.00  0.00    +0.012 A 
ATOM     17  C   UNL     1      -0.481  -2.744  -3.336  0.00  0.00    +0.029 A 
ATOM     18  C   UNL     1      -0.097  -3.059  -4.627  0.00  0.00    +0.105 A 
ATOM     19  C   UNL     1       0.972  -3.910  -4.847  0.00  0.00    +0.029 A 
ATOM     20  C   UNL     1       1.665  -4.443  -3.780  0.00  0.00    +0.012 A 
BRANCH  18  21
ATOM     21  S   UNL     1      -0.971  -2.376  -5.996  0.00  0.00    +0.060 S 
ATOM     22  O   UNL     1      -0.760  -3.255  -7.092  0.00  0.00    -0.153 OA
ATOM     23  O   UNL     1      -2.270  -2.045  -5.523  0.00  0.00    -0.153 OA
BRANCH  21  24
ATOM     24  N   UNL     1      -0.231  -0.947  -6.386  0.00  0.00    -0.183 NA
ATOM     25  C   UNL     1       0.866  -0.931  -7.357  0.00  0.00    +0.131 C 
ATOM     26  C   UNL     1      -0.672   0.301  -5.759  0.00  0.00    +0.131 C 
ENDBRANCH  21  24
ENDBRANCH  18  21
ENDBRANCH   2  15
BRANCH   1  27
ATOM     27  C   UNL     1       0.018  -4.429   0.006  0.00  0.00    +0.159 C 
BRANCH  27  32
ATOM     28  C   UNL     1      -0.156   0.987   2.016  0.00  0.00    +0.044 C 
ATOM     29  C   UNL     1      -0.111  -0.425   1.492  0.00  0.00    -0.050 A 
ATOM     30  C   UNL     1       1.093  -1.103   1.433  0.00  0.00    +0.004 A 
ATOM     31  C   UNL     1       1.135  -2.398   0.953  0.00  0.00    +0.005 A 
ATOM     32  C   UNL     1      -0.027  -3.017   0.531  0.00  0.00    -0.028 A 
ATOM     33  C   UNL     1      -1.231  -2.340   0.591  0.00  0.00    +0.005 A 
ATOM     34  C   UNL     1      -1.274  -1.046   1.075  0.00  0.00    +0.004 A 
ENDBRANCH  27  32
ENDBRANCH   1  27
TORSDOF 6
