REMARK  Name = ZINC12660068
REMARK  10 active torsions:
REMARK  status: ('A' for Active; 'I' for Inactive)
REMARK    1  A    between atoms: C_1  and  C_2
REMARK    2  A    between atoms: C_2  and  C_3
REMARK    3  A    between atoms: C_3  and  C_5
REMARK    4  A    between atoms: C_3  and  N_74
REMARK    5  A    between atoms: C_6  and  C_7
REMARK    6  A    between atoms: C_10  and  O_37
REMARK    7  A    between atoms: C_13  and  O_36
REMARK    8  A    between atoms: C_22  and  C_35
REMARK    9  A    between atoms: C_23  and  O_34
REMARK   10  A    between atoms: C_26  and  C_28
REMARK                            x       y       z     vdW  Elec       q    Type
REMARK                         _______ _______ _______ _____ _____    ______ ____
ROOT
ATOM      1  C   UNL     1       6.776  -3.067  -2.289  0.00  0.00    +0.036 C 
ATOM      2  C   UNL     1       8.208  -2.540  -2.402  0.00  0.00    +0.018 C 
ATOM      3  C   UNL     1       8.751  -2.235  -1.004  0.00  0.00    +0.032 C 
ATOM      4  C   UNL     1       8.742  -3.513  -0.163  0.00  0.00    +0.117 C 
ATOM      5  C   UNL     1       7.310  -4.040  -0.051  0.00  0.00    +0.067 C 
ATOM      6  C   UNL     1       6.767  -4.345  -1.448  0.00  0.00    +0.079 C 
ATOM      7  C   UNL     1       5.335  -4.871  -1.336  0.00  0.00    +0.036 C 
ATOM      8  C   UNL     1       4.454  -3.814  -0.666  0.00  0.00    +0.009 C 
ATOM      9  C   UNL     1       4.465  -2.535  -1.506  0.00  0.00    +0.025 C 
ATOM     10  C   UNL     1       5.895  -2.009  -1.619  0.00  0.00    +0.009 C 
ATOM     11  C   UNL     1       5.880  -0.744  -2.483  0.00  0.00    +0.005 C 
ATOM     12  C   UNL     1       5.050   0.322  -1.773  0.00  0.00    +0.010 C 
ATOM     13  C   UNL     1       3.599  -0.138  -1.613  0.00  0.00    +0.004 C 
ATOM     14  C   UNL     1       3.537  -1.505  -0.910  0.00  0.00    +0.075 C 
ATOM     15  C   UNL     1       3.880  -1.172   0.554  0.00  0.00    +0.036 C 
ATOM     16  C   UNL     1       3.147   0.167   0.800  0.00  0.00    +0.011 C 
ATOM     17  C   UNL     1       2.941   0.816  -0.581  0.00  0.00    +0.027 C 
ATOM     18  C   UNL     1       2.853  -0.137  -2.949  0.00  0.00    +0.014 C 
ENDROOT
BRANCH  17  19
ATOM     19  C   UNL     1       1.469   0.959  -0.872  0.00  0.00    -0.022 C 
ATOM     20  C   UNL     1       0.844   2.063  -1.271  0.00  0.00    +0.094 C 
ATOM     21  C   UNL     1      -0.584   1.783  -1.443  0.00  0.00    +0.332 C 
ATOM     22  O   UNL     1      -1.415   2.592  -1.805  0.00  0.00    -0.246 OA
ATOM     23  O   UNL     1      -0.838   0.494  -1.147  0.00  0.00    -0.457 OA
ATOM     24  C   UNL     1       0.423  -0.126  -0.766  0.00  0.00    +0.264 C 
ENDBRANCH  17  19
BRANCH   1  25
ATOM     25  C   UNL     1       6.242  -3.367  -3.666  0.00  0.00    +0.060 C 
ATOM     26  N   UNL     1       7.041  -3.144  -4.684  0.00  0.00    -0.390 N 
ATOM     27  H   UNL     1       7.987  -2.778  -4.524  0.00  0.00    +0.159 HD
BRANCH  26  28
ATOM     28  C   UNL     1       6.571  -3.422  -6.085  0.00  0.00    +0.075 C 
ATOM     29  C   UNL     1       7.510  -4.454  -6.711  0.00  0.00    +0.030 C 
BRANCH  28  31
ATOM     30  C   UNL     1       5.609  -1.130  -6.333  0.00  0.00    +0.006 C 
ATOM     31  C   UNL     1       6.639  -2.119  -6.883  0.00  0.00    +0.021 C 
ENDBRANCH  28  31
ENDBRANCH  26  28
ENDBRANCH   1  25
BRANCH  14  32
ATOM     32  O   UNL     1       2.196  -1.996  -0.960  0.00  0.00    -0.388 OA
ATOM     33  H   UNL     1       2.076  -2.857  -0.536  0.00  0.00    +0.210 HD
ENDBRANCH  14  32
BRANCH   6  34
ATOM     34  O   UNL     1       7.590  -5.332  -2.073  0.00  0.00    -0.388 OA
ATOM     35  H   UNL     1       7.630  -6.171  -1.594  0.00  0.00    +0.210 HD
ENDBRANCH   6  34
BRANCH   4  36
ATOM     36  O   UNL     1       9.564  -4.500  -0.789  0.00  0.00    -0.392 OA
ATOM     37  H   UNL     1      10.488  -4.234  -0.893  0.00  0.00    +0.210 HD
ENDBRANCH   4  36
TORSDOF 7
