REMARK  Name = ZINC41586159
REMARK  9 active torsions:
REMARK  status: ('A' for Active; 'I' for Inactive)
REMARK    1  A    between atoms: C_1  and  C_2
REMARK    2  A    between atoms: C_2  and  O_3
REMARK    3  A    between atoms: O_3  and  C_4
REMARK    4  A    between atoms: C_4  and  C_6
REMARK    5  A    between atoms: N_9  and  C_12
REMARK    6  A    between atoms: C_12  and  C_13
REMARK    7  A    between atoms: C_14  and  O_32
REMARK    8  A    between atoms: C_16  and  C_31
REMARK    9  A    between atoms: C_21  and  C_22
REMARK                            x       y       z     vdW  Elec       q    Type
REMARK                         _______ _______ _______ _____ _____    ______ ____
ROOT
ATOM      1  C   UNL     1      -5.931  -6.230  -1.552  0.00  0.00    +0.020 A 
ATOM      2  C   UNL     1      -6.068  -6.781  -2.816  0.00  0.00    +0.122 A 
ATOM      3  C   UNL     1      -6.285  -8.147  -2.973  0.00  0.00    +0.050 A 
ATOM      4  C   UNL     1      -6.366  -8.960  -1.877  0.00  0.00    -0.033 A 
ATOM      5  C   UNL     1      -6.230  -8.419  -0.599  0.00  0.00    +0.071 A 
ATOM      6  C   UNL     1      -6.006  -7.043  -0.428  0.00  0.00    +0.145 A 
ATOM      7  O   UNL     1      -5.903  -6.758   0.889  0.00  0.00    -0.451 OA
ATOM      8  C   UNL     1      -6.038  -7.865   1.656  0.00  0.00    +0.176 C 
ATOM      9  C   UNL     1      -5.985  -7.914   3.010  0.00  0.00    +0.058 C 
ATOM     10  C   UNL     1      -6.266  -9.005   0.753  0.00  0.00    +0.232 C 
ATOM     11  O   UNL     1      -6.434 -10.174   1.056  0.00  0.00    -0.283 OA
ATOM     12  C   UNL     1      -6.601 -10.438  -2.050  0.00  0.00    +0.045 C 
ENDROOT
BRANCH   9  13
ATOM     13  C   UNL     1      -5.978  -9.211   3.700  0.00  0.00    -0.021 A 
ATOM     14  C   UNL     1      -5.236 -10.279   3.181  0.00  0.00    +0.011 A 
ATOM     15  C   UNL     1      -5.234 -11.493   3.832  0.00  0.00    +0.039 A 
ATOM     16  C   UNL     1      -5.965 -11.658   4.999  0.00  0.00    +0.123 A 
ATOM     17  C   UNL     1      -6.703 -10.605   5.519  0.00  0.00    +0.039 A 
ATOM     18  C   UNL     1      -6.709  -9.384   4.881  0.00  0.00    +0.011 A 
ATOM     19  F   UNL     1      -5.958 -12.851   5.633  0.00  0.00    -0.205 F 
ENDBRANCH   9  13
BRANCH   2  20
ATOM     20  O   UNL     1      -5.989  -5.982  -3.910  0.00  0.00    -0.506 OA
ATOM     21  H   UNL     1      -5.094  -5.885  -4.263  0.00  0.00    +0.292 HD
ENDBRANCH   2  20
BRANCH   1  22
ATOM     22  C   UNL     1      -5.696  -4.750  -1.397  0.00  0.00    -0.036 C 
BRANCH  22  26
ATOM     23  C   UNL     1      -1.812  -3.394  -0.286  0.00  0.00    +0.094 C 
ATOM     24  C   UNL     1      -2.528  -2.740  -1.472  0.00  0.00    -0.004 C 
ATOM     25  C   UNL     1      -4.027  -3.029  -1.378  0.00  0.00    -0.078 C 
ATOM     26  N   UNL     1      -4.253  -4.479  -1.408  0.00  0.00    +0.383 N 
ATOM     27  C   UNL     1      -3.630  -5.105  -0.236  0.00  0.00    -0.078 C 
ATOM     28  C   UNL     1      -2.115  -4.895  -0.285  0.00  0.00    -0.004 C 
ATOM     29  H   UNL     1      -3.847  -4.864  -2.248  0.00  0.00    -0.081 HD
BRANCH  23  30
ATOM     30  C   UNL     1      -0.326  -3.179  -0.414  0.00  0.00    +0.310 C 
ATOM     31  O   UNL     1       0.417  -4.129  -0.496  0.00  0.00    -0.251 OA
BRANCH  30  32
ATOM     32  O   UNL     1       0.173  -1.933  -0.436  0.00  0.00    -0.465 OA
BRANCH  32  34
ATOM     33  C   UNL     1       1.969  -0.322  -0.568  0.00  0.00    +0.048 C 
ATOM     34  C   UNL     1       1.591  -1.804  -0.560  0.00  0.00    +0.229 C 
ENDBRANCH  32  34
ENDBRANCH  30  32
ENDBRANCH  23  30
ENDBRANCH  22  26
ENDBRANCH   1  22
TORSDOF 7
