REMARK  Name = ZINC09308318
REMARK  6 active torsions:
REMARK  status: ('A' for Active; 'I' for Inactive)
REMARK    1  A    between atoms: C_1  and  C_2
REMARK    2  A    between atoms: C_5  and  S_8
REMARK    3  A    between atoms: S_8  and  N_11
REMARK    4  A    between atoms: N_11  and  C_12
REMARK    5  A    between atoms: C_15  and  C_18
REMARK    6  A    between atoms: C_23  and  O_31
REMARK                            x       y       z     vdW  Elec       q    Type
REMARK                         _______ _______ _______ _____ _____    ______ ____
ROOT
ATOM      1  C   UNL     1      -0.021   1.097   0.003  0.00  0.00    +0.077 C 
ATOM      2  C   UNL     1      -0.762   1.589  -1.242  0.00  0.00    +0.021 C 
ATOM      3  C   UNL     1      -0.039   1.092  -2.495  0.00  0.00    +0.014 C 
ATOM      4  C   UNL     1       1.392   1.633  -2.506  0.00  0.00    +0.075 C 
ATOM      5  C   UNL     1       2.133   1.140  -1.262  0.00  0.00    +0.014 C 
ATOM      6  C   UNL     1       1.410   1.637  -0.008  0.00  0.00    +0.021 C 
ENDROOT
BRANCH   4   7
ATOM      7  C   UNL     1       2.104   1.143  -3.741  0.00  0.00    +0.219 C 
ATOM      8  O   UNL     1       1.863   0.039  -4.183  0.00  0.00    -0.275 OA
ATOM      9  N   UNL     1       3.009   1.931  -4.354  0.00  0.00    -0.301 N 
ATOM     10  C   UNL     1       3.399   3.221  -3.768  0.00  0.00    +0.110 C 
ATOM     11  C   UNL     1       4.925   3.260  -3.638  0.00  0.00    +0.054 C 
ATOM     12  C   UNL     1       5.558   2.975  -5.003  0.00  0.00    +0.072 C 
ATOM     13  C   UNL     1       7.082   3.045  -4.875  0.00  0.00    +0.035 C 
ATOM     14  C   UNL     1       7.723   2.757  -6.234  0.00  0.00    +0.003 C 
ATOM     15  C   UNL     1       7.317   1.357  -6.701  0.00  0.00    +0.001 C 
ATOM     16  C   UNL     1       5.795   1.288  -6.833  0.00  0.00    +0.008 C 
ATOM     17  C   UNL     1       5.149   1.578  -5.476  0.00  0.00    +0.038 C 
ATOM     18  C   UNL     1       3.629   1.516  -5.620  0.00  0.00    +0.114 C 
BRANCH  12  19
ATOM     19  O   UNL     1       5.113   3.950  -5.948  0.00  0.00    -0.388 OA
ATOM     20  H   UNL     1       5.342   4.860  -5.712  0.00  0.00    +0.210 HD
ENDBRANCH  12  19
ENDBRANCH   4   7
BRANCH   1  21
ATOM     21  N   UNL     1      -0.714   1.573   1.203  0.00  0.00    -0.187 NA
ATOM     22  H   UNL     1      -0.524   2.457   1.554  0.00  0.00    +0.148 HD
BRANCH  21  23
ATOM     23  S   UNL     1      -1.820   0.601   1.961  0.00  0.00    +0.059 S 
ATOM     24  O   UNL     1      -2.289   1.325   3.091  0.00  0.00    -0.153 OA
ATOM     25  O   UNL     1      -2.693   0.115   0.951  0.00  0.00    -0.153 OA
BRANCH  23  30
ATOM     26  C   UNL     1       1.176  -4.180   4.099  0.00  0.00    +0.044 C 
ATOM     27  C   UNL     1       0.427  -2.986   3.566  0.00  0.00    -0.050 A 
ATOM     28  C   UNL     1       0.278  -1.857   4.349  0.00  0.00    +0.005 A 
ATOM     29  C   UNL     1      -0.408  -0.761   3.859  0.00  0.00    +0.029 A 
ATOM     30  C   UNL     1      -0.945  -0.795   2.586  0.00  0.00    +0.105 A 
ATOM     31  C   UNL     1      -0.801  -1.926   1.804  0.00  0.00    +0.029 A 
ATOM     32  C   UNL     1      -0.111  -3.020   2.292  0.00  0.00    +0.005 A 
ENDBRANCH  23  30
ENDBRANCH  21  23
ENDBRANCH   1  21
TORSDOF 5
