REMARK  Name = ZINC23580577
REMARK  10 active torsions:
REMARK  status: ('A' for Active; 'I' for Inactive)
REMARK    1  A    between atoms: C_1  and  C_2
REMARK    2  A    between atoms: C_2  and  N_3
REMARK    3  A    between atoms: N_3  and  C_4
REMARK    4  A    between atoms: N_3  and  C_12
REMARK    5  A    between atoms: C_4  and  C_5
REMARK    6  A    between atoms: C_5  and  C_6
REMARK    7  A    between atoms: C_12  and  C_13
REMARK    8  A    between atoms: C_16  and  C_19
REMARK    9  A    between atoms: C_25  and  C_27
REMARK   10  A    between atoms: C_27  and  N_28
REMARK                            x       y       z     vdW  Elec       q    Type
REMARK                         _______ _______ _______ _____ _____    ______ ____
ROOT
ATOM      1  C   UNL     1      -3.577  -0.529  -0.882  0.00  0.00    -0.064 A 
ATOM      2  C   UNL     1      -4.090  -1.764  -1.236  0.00  0.00    +0.002 A 
ATOM      3  C   UNL     1      -5.427  -2.041  -1.039  0.00  0.00    +0.012 A 
ATOM      4  C   UNL     1      -6.263  -1.073  -0.479  0.00  0.00    +0.017 A 
ATOM      5  C   UNL     1      -5.738   0.172  -0.124  0.00  0.00    +0.012 A 
ATOM      6  C   UNL     1      -4.399   0.434  -0.323  0.00  0.00    +0.002 A 
ENDROOT
BRANCH   4   7
ATOM      7  C   UNL     1      -7.696  -1.362  -0.265  0.00  0.00    +0.141 A 
ATOM      8  N   UNL     1      -8.499  -0.404   0.277  0.00  0.00    -0.307 N 
ATOM      9  H   UNL     1      -8.131   0.461   0.518  0.00  0.00    +0.170 HD
ATOM     10  C   UNL     1      -9.809  -0.662   0.475  0.00  0.00    +0.252 A 
ATOM     11  O   UNL     1     -10.543   0.184   0.958  0.00  0.00    -0.268 OA
ATOM     12  C   UNL     1     -10.312  -1.928   0.113  0.00  0.00    +0.091 A 
ATOM     13  C   UNL     1      -9.459  -2.846  -0.425  0.00  0.00    +0.031 A 
ATOM     14  N   UNL     1      -8.175  -2.541  -0.606  0.00  0.00    -0.236 NA
BRANCH  13  15
ATOM     15  C   UNL     1      -9.971  -4.207  -0.821  0.00  0.00    -0.030 C 
BRANCH  15  16
ATOM     16  N   UNL     1      -9.860  -4.367  -2.277  0.00  0.00    +0.382 N 
ATOM     17  H   UNL     1     -10.407  -3.655  -2.736  0.00  0.00    -0.090 HD
ATOM     18  H   UNL     1      -8.893  -4.278  -2.552  0.00  0.00    -0.090 HD
ATOM     19  H   UNL     1     -10.203  -5.278  -2.542  0.00  0.00    -0.090 HD
ENDBRANCH  15  16
ENDBRANCH  13  15
ENDBRANCH   4   7
BRANCH   1  20
ATOM     20  C   UNL     1      -2.116  -0.233  -1.101  0.00  0.00    -0.043 C 
BRANCH  20  21
ATOM     21  N   UNL     1      -1.373  -0.493   0.139  0.00  0.00    +0.382 N 
ATOM     22  H   UNL     1      -1.790   0.027   0.897  0.00  0.00    -0.081 HD
BRANCH  21  24
ATOM     23  C   UNL     1       0.085   1.443  -0.209  0.00  0.00    -0.017 C 
ATOM     24  C   UNL     1       0.025  -0.075  -0.031  0.00  0.00    -0.082 C 
ENDBRANCH  21  24
BRANCH  21  25
ATOM     25  C   UNL     1      -1.421  -1.929   0.447  0.00  0.00    -0.074 C 
BRANCH  25  26
ATOM     26  C   UNL     1      -0.755  -2.183   1.801  0.00  0.00    +0.012 C 
BRANCH  26  27
ATOM     27  C   UNL     1      -0.804  -3.656   2.116  0.00  0.00    -0.075 C 
ATOM     28  C   UNL     1       0.228  -4.376   1.814  0.00  0.00    -0.028 C 
ATOM     29  C   UNL     1       0.323  -5.854   2.057  0.00  0.00    +0.027 C 
ATOM     30  C   UNL     1      -0.744  -6.292   3.063  0.00  0.00    +0.004 C 
ATOM     31  C   UNL     1      -2.095  -5.719   2.618  0.00  0.00    +0.005 C 
ATOM     32  C   UNL     1      -2.044  -4.195   2.767  0.00  0.00    +0.030 C 
ENDBRANCH  26  27
ENDBRANCH  25  26
ENDBRANCH  21  25
ENDBRANCH  20  21
ENDBRANCH   1  20
TORSDOF 9
