REMARK  Name = ZINC39370817
REMARK  6 active torsions:
REMARK  status: ('A' for Active; 'I' for Inactive)
REMARK    1  A    between atoms: C_1  and  C_2
REMARK    2  A    between atoms: C_4  and  C_22
REMARK    3  A    between atoms: N_12  and  C_13
REMARK    4  A    between atoms: C_13  and  C_14
REMARK    5  A    between atoms: C_23  and  C_24
REMARK    6  A    between atoms: C_23  and  C_26
REMARK                            x       y       z     vdW  Elec       q    Type
REMARK                         _______ _______ _______ _____ _____    ______ ____
ROOT
ATOM      1  C   UNL     1       0.086   1.631  -0.001  0.00  0.00    +0.029 C 
ATOM      2  C   UNL     1       0.082   0.103  -0.076  0.00  0.00    +0.082 C 
ATOM      3  C   UNL     1      -1.361  -0.425  -0.120  0.00  0.00    +0.065 C 
ATOM      4  C   UNL     1      -1.490  -1.283   1.118  0.00  0.00    -0.018 A 
ATOM      5  C   UNL     1      -2.555  -2.013   1.608  0.00  0.00    +0.006 A 
ATOM      6  C   UNL     1      -2.425  -2.729   2.784  0.00  0.00    +0.000 A 
ATOM      7  C   UNL     1      -1.224  -2.712   3.469  0.00  0.00    +0.002 A 
ATOM      8  C   UNL     1      -0.158  -1.985   2.985  0.00  0.00    +0.023 A 
ATOM      9  C   UNL     1      -0.282  -1.260   1.798  0.00  0.00    +0.034 A 
ATOM     10  N   UNL     1       0.664  -0.468   1.141  0.00  0.00    -0.322 N 
ENDROOT
BRANCH   3  11
ATOM     11  C   UNL     1      -1.581  -1.253  -1.361  0.00  0.00    +0.001 C 
ATOM     12  C   UNL     1      -2.507  -0.893  -2.245  0.00  0.00    +0.068 C 
BRANCH  12  13
ATOM     13  C   UNL     1      -2.727  -1.721  -3.486  0.00  0.00    +0.216 C 
ATOM     14  N   UNL     1      -2.558  -0.888  -4.683  0.00  0.00    -0.359 N 
ATOM     15  C   UNL     1      -3.688  -0.901  -5.330  0.00  0.00    +0.060 A 
ATOM     16  C   UNL     1      -4.131  -0.266  -6.579  0.00  0.00    +0.027 A 
ATOM     17  C   UNL     1      -5.391  -0.464  -7.015  0.00  0.00    +0.002 A 
ATOM     18  C   UNL     1      -6.318  -1.261  -6.319  0.00  0.00    +0.002 A 
ATOM     19  C   UNL     1      -6.015  -1.887  -5.164  0.00  0.00    +0.027 A 
ATOM     20  C   UNL     1      -4.668  -1.745  -4.593  0.00  0.00    +0.060 A 
ATOM     21  N   UNL     1      -4.107  -2.221  -3.520  0.00  0.00    -0.359 N 
ATOM     22  H   UNL     1      -1.753  -0.415  -4.944  0.00  0.00    +0.162 HD
ATOM     23  H   UNL     1      -4.524  -2.801  -2.864  0.00  0.00    +0.162 HD
ENDBRANCH  12  13
BRANCH  12  24
ATOM     24  C   UNL     1      -3.297   0.280  -2.018  0.00  0.00    +0.098 C 
ATOM     25  N   UNL     1      -3.923   1.210  -1.838  0.00  0.00    -0.191 NA
ENDBRANCH  12  24
ENDBRANCH   3  11
BRANCH  10  26
ATOM     26  C   UNL     1       2.036  -0.240   1.602  0.00  0.00    +0.142 C 
BRANCH  26  27
ATOM     27  C   UNL     1       2.918  -1.368   1.131  0.00  0.00    -0.012 A 
ATOM     28  C   UNL     1       3.224  -2.410   1.987  0.00  0.00    +0.009 A 
ATOM     29  C   UNL     1       4.032  -3.444   1.556  0.00  0.00    +0.039 A 
ATOM     30  C   UNL     1       4.536  -3.438   0.267  0.00  0.00    +0.125 A 
ATOM     31  C   UNL     1       4.230  -2.396  -0.591  0.00  0.00    +0.058 A 
ATOM     32  C   UNL     1       3.416  -1.363  -0.160  0.00  0.00    +0.048 A 
ATOM     33 CL   UNL     1       3.026  -0.059  -1.236  0.00  0.00    -0.083 Cl
ATOM     34  F   UNL     1       5.327  -4.450  -0.154  0.00  0.00    -0.205 F 
ENDBRANCH  26  27
ENDBRANCH  10  26
TORSDOF 5
