REMARK  Name = ZINC39946711
REMARK  5 active torsions:
REMARK  status: ('A' for Active; 'I' for Inactive)
REMARK    1  A    between atoms: C_4  and  N_7
REMARK    2  A    between atoms: N_9  and  N_26
REMARK    3  A    between atoms: C_10  and  C_14
REMARK    4  A    between atoms: C_17  and  C_20
REMARK    5  A    between atoms: C_27  and  C_28
REMARK                            x       y       z     vdW  Elec       q    Type
REMARK                         _______ _______ _______ _____ _____    ______ ____
ROOT
ATOM      1  N   UNL     1       3.396  -0.936  -0.248  0.00  0.00    -0.225 NA
ATOM      2  C   UNL     1       3.714  -1.807   0.682  0.00  0.00    +0.177 C 
ATOM      3  N   UNL     1       4.933  -2.414   0.893  0.00  0.00    -0.193 N 
ATOM      4  C   UNL     1       5.196  -3.054   2.168  0.00  0.00    +0.140 C 
ATOM      5  C   UNL     1       3.993  -2.985   3.138  0.00  0.00    +0.106 C 
ATOM      6  S   UNL     1       2.668  -2.470   1.970  0.00  0.00    -0.087 S 
ENDROOT
BRANCH   1  10
ATOM      7  C   UNL     1      -0.443   0.598  -0.421  0.00  0.00    +0.000 A 
ATOM      8  C   UNL     1       0.643   1.445  -0.551  0.00  0.00    +0.002 A 
ATOM      9  C   UNL     1       1.926   0.940  -0.494  0.00  0.00    +0.028 A 
ATOM     10  C   UNL     1       2.126  -0.429  -0.305  0.00  0.00    +0.067 A 
ATOM     11  C   UNL     1       1.025  -1.278  -0.174  0.00  0.00    +0.028 A 
ATOM     12  C   UNL     1      -0.252  -0.759  -0.233  0.00  0.00    +0.002 A 
ENDBRANCH   1  10
BRANCH   4  13
ATOM     13  C   UNL     1       6.378  -2.380   2.816  0.00  0.00    -0.024 A 
ATOM     14  C   UNL     1       6.512  -1.005   2.748  0.00  0.00    +0.006 A 
ATOM     15  C   UNL     1       7.595  -0.387   3.342  0.00  0.00    +0.004 A 
ATOM     16  C   UNL     1       8.545  -1.142   4.005  0.00  0.00    -0.044 A 
ATOM     17  C   UNL     1       8.411  -2.516   4.073  0.00  0.00    +0.004 A 
ATOM     18  C   UNL     1       7.324  -3.134   3.482  0.00  0.00    +0.006 A 
BRANCH  16  19
ATOM     19  C   UNL     1       9.727  -0.467   4.652  0.00  0.00    +0.019 C 
ATOM     20  C   UNL     1      11.020  -0.997   4.029  0.00  0.00    +0.008 C 
ATOM     21  C   UNL     1      12.221  -0.312   4.686  0.00  0.00    +0.001 C 
ATOM     22  C   UNL     1      12.218  -0.609   6.187  0.00  0.00    +0.000 C 
ATOM     23  C   UNL     1      10.925  -0.079   6.809  0.00  0.00    +0.001 C 
ATOM     24  C   UNL     1       9.725  -0.764   6.153  0.00  0.00    +0.008 C 
ENDBRANCH  16  19
ENDBRANCH   4  13
BRANCH   3  25
ATOM     25  N   UNL     1       5.908  -2.412  -0.113  0.00  0.00    -0.185 NA
ATOM     26  C   UNL     1       7.025  -3.078   0.056  0.00  0.00    +0.136 C 
BRANCH  26  27
ATOM     27  C   UNL     1       8.052  -2.973  -0.888  0.00  0.00    +0.000 C 
ATOM     28  C   UNL     1       9.291  -3.614  -0.863  0.00  0.00    +0.004 A 
ATOM     29  C   UNL     1       9.881  -4.513   0.052  0.00  0.00    +0.010 A 
ATOM     30  C   UNL     1      11.130  -4.988  -0.182  0.00  0.00    +0.001 A 
ATOM     31  C   UNL     1      11.858  -4.609  -1.314  0.00  0.00    +0.002 A 
ATOM     32  C   UNL     1      11.354  -3.750  -2.233  0.00  0.00    +0.026 A 
ATOM     33  C   UNL     1      10.053  -3.211  -2.057  0.00  0.00    +0.043 A 
ATOM     34  N   UNL     1       9.349  -2.374  -2.792  0.00  0.00    -0.380 N 
ATOM     35  C   UNL     1       8.049  -2.145  -2.155  0.00  0.00    +0.150 C 
ATOM     36  H   UNL     1       9.644  -1.973  -3.624  0.00  0.00    +0.160 HD
ENDBRANCH  26  27
ENDBRANCH   3  25
TORSDOF 5
