REMARK  Name = ZINC15988121
REMARK  13 active torsions:
REMARK  status: ('A' for Active; 'I' for Inactive)
REMARK    1  A    between atoms: C_1  and  C_2
REMARK    2  A    between atoms: C_2  and  N_3
REMARK    3  A    between atoms: N_3  and  C_4
REMARK    4  A    between atoms: N_3  and  S_6
REMARK    5  A    between atoms: C_4  and  C_5
REMARK    6  A    between atoms: S_6  and  C_9
REMARK    7  A    between atoms: C_12  and  O_32
REMARK    8  A    between atoms: C_13  and  N_15
REMARK    9  A    between atoms: C_16  and  C_18
REMARK   10  A    between atoms: C_21  and  N_27
REMARK   11  A    between atoms: C_22  and  N_24
REMARK   12  A    between atoms: O_32  and  C_33
REMARK   13  A    between atoms: C_33  and  C_34
REMARK                            x       y       z     vdW  Elec       q    Type
REMARK                         _______ _______ _______ _____ _____    ______ ____
ROOT
ATOM      1  N   UNL     1      -1.289   3.508   0.121  0.00  0.00    -0.279 N 
ATOM      2  C   UNL     1      -1.264   2.240   0.576  0.00  0.00    +0.248 C 
ATOM      3  O   UNL     1      -2.287   1.717   0.976  0.00  0.00    -0.270 OA
ATOM      4  H   UNL     1      -0.489   3.902  -0.262  0.00  0.00    +0.155 HD
ENDROOT
BRANCH   1   9
ATOM      5  C   UNL     1      -4.864   4.374   0.134  0.00  0.00    +0.107 A 
ATOM      6  C   UNL     1      -4.806   5.738   0.354  0.00  0.00    +0.032 A 
ATOM      7  C   UNL     1      -3.583   6.367   0.498  0.00  0.00    +0.049 A 
ATOM      8  C   UNL     1      -2.412   5.631   0.421  0.00  0.00    +0.142 A 
ATOM      9  C   UNL     1      -2.470   4.257   0.199  0.00  0.00    +0.078 A 
ATOM     10  C   UNL     1      -3.700   3.634   0.051  0.00  0.00    +0.055 A 
BRANCH   5  11
ATOM     11  S   UNL     1      -6.426   3.579  -0.048  0.00  0.00    +0.061 S 
ATOM     12  O   UNL     1      -6.231   2.215   0.299  0.00  0.00    -0.153 OA
ATOM     13  O   UNL     1      -7.380   4.403   0.609  0.00  0.00    -0.153 OA
BRANCH  11  14
ATOM     14  N   UNL     1      -6.806   3.608  -1.659  0.00  0.00    -0.177 NA
BRANCH  14  16
ATOM     15  C   UNL     1      -7.529   1.494  -2.654  0.00  0.00    +0.022 C 
ATOM     16  C   UNL     1      -6.388   2.507  -2.530  0.00  0.00    +0.106 C 
ENDBRANCH  14  16
BRANCH  14  17
ATOM     17  C   UNL     1      -7.559   4.736  -2.214  0.00  0.00    +0.106 C 
ATOM     18  C   UNL     1      -6.586   5.761  -2.799  0.00  0.00    +0.022 C 
ENDBRANCH  14  17
ENDBRANCH  11  14
ENDBRANCH   5  11
BRANCH   8  19
ATOM     19  O   UNL     1      -1.208   6.249   0.562  0.00  0.00    -0.490 OA
BRANCH  19  20
ATOM     20  C   UNL     1      -1.226   7.660   0.786  0.00  0.00    +0.226 C 
ATOM     21  C   UNL     1       0.210   8.173   0.919  0.00  0.00    +0.048 C 
ENDBRANCH  19  20
ENDBRANCH   8  19
ENDBRANCH   1   9
BRANCH   2  22
ATOM     22  C   UNL     1       0.004   1.486   0.590  0.00  0.00    +0.039 A 
ATOM     23  C   UNL     1       1.179   2.084   0.126  0.00  0.00    +0.015 A 
ATOM     24  C   UNL     1       2.360   1.377   0.136  0.00  0.00    +0.026 A 
ATOM     25  C   UNL     1       2.384   0.067   0.607  0.00  0.00    +0.060 A 
ATOM     26  C   UNL     1       1.215  -0.531   1.069  0.00  0.00    +0.148 A 
ATOM     27  C   UNL     1       0.032   0.171   1.062  0.00  0.00    +0.047 A 
BRANCH  25  28
ATOM     28  N   UNL     1       3.578  -0.645   0.615  0.00  0.00    -0.328 N 
ATOM     29  C   UNL     1       4.212  -0.639  -0.728  0.00  0.00    +0.105 C 
ATOM     30  C   UNL     1       5.692  -0.979  -0.424  0.00  0.00    +0.020 C 
ATOM     31  C   UNL     1       5.953  -0.231   0.904  0.00  0.00    +0.020 C 
ATOM     32  C   UNL     1       4.561  -0.021   1.528  0.00  0.00    +0.105 C 
ENDBRANCH  25  28
BRANCH  26  33
ATOM     33  N   UNL     1       1.246  -1.924   1.569  0.00  0.00    +0.058 N 
ATOM     34  O   UNL     1       0.246  -2.416   2.062  0.00  0.00    -0.126 OA
ATOM     35  O   UNL     1       2.269  -2.579   1.487  0.00  0.00    -0.126 OA
ENDBRANCH  26  33
ENDBRANCH   2  22
TORSDOF 10
