REMARK  Name = ZINC35231498
REMARK  8 active torsions:
REMARK  status: ('A' for Active; 'I' for Inactive)
REMARK    1  A    between atoms: C_1  and  C_2
REMARK    2  A    between atoms: C_2  and  C_3
REMARK    3  A    between atoms: C_3  and  C_4
REMARK    4  A    between atoms: C_4  and  N_5
REMARK    5  A    between atoms: N_5  and  C_6
REMARK    6  A    between atoms: C_6  and  C_7
REMARK    7  A    between atoms: C_21  and  C_23
REMARK    8  A    between atoms: N_30  and  C_31
REMARK                            x       y       z     vdW  Elec       q    Type
REMARK                         _______ _______ _______ _____ _____    ______ ____
ROOT
ATOM      1  C   UNL     1      -3.421  -3.818  -1.878  0.00  0.00    +0.238 C 
ATOM      2  O   UNL     1      -2.754  -4.675  -1.337  0.00  0.00    -0.273 OA
ATOM      3  N   UNL     1      -4.101  -4.105  -3.006  0.00  0.00    -0.252 N 
ATOM      4  C   UNL     1      -4.134  -5.421  -3.487  0.00  0.00    +0.061 A 
ATOM      5  C   UNL     1      -4.038  -6.493  -2.615  0.00  0.00    +0.025 A 
ATOM      6  C   UNL     1      -4.061  -7.785  -3.104  0.00  0.00    +0.002 A 
ATOM      7  C   UNL     1      -4.179  -8.018  -4.463  0.00  0.00    +0.002 A 
ATOM      8  C   UNL     1      -4.279  -6.955  -5.343  0.00  0.00    +0.028 A 
ATOM      9  C   UNL     1      -4.263  -5.661  -4.859  0.00  0.00    +0.068 A 
ATOM     10  N   UNL     1      -4.389  -4.552  -5.709  0.00  0.00    -0.316 N 
ATOM     11  C   UNL     1      -4.300  -4.471  -7.058  0.00  0.00    +0.092 A 
ATOM     12  C   UNL     1      -4.489  -3.180  -7.415  0.00  0.00    +0.020 A 
ATOM     13  C   UNL     1      -4.705  -2.438  -6.233  0.00  0.00    +0.025 A 
ATOM     14  C   UNL     1      -4.642  -3.293  -5.208  0.00  0.00    +0.052 A 
ATOM     15  C   UNL     1      -4.814  -3.037  -3.726  0.00  0.00    +0.194 C 
ENDROOT
BRANCH  15  16
ATOM     16  C   UNL     1      -6.276  -3.065  -3.364  0.00  0.00    +0.131 A 
ATOM     17  C   UNL     1      -7.056  -1.988  -3.156  0.00  0.00    +0.047 A 
ATOM     18  C   UNL     1      -8.347  -2.472  -2.843  0.00  0.00    +0.041 A 
ATOM     19  C   UNL     1      -8.279  -3.815  -2.878  0.00  0.00    +0.195 A 
ATOM     20  O   UNL     1      -7.024  -4.168  -3.200  0.00  0.00    -0.466 OA
ENDBRANCH  15  16
BRANCH   1  21
ATOM     21  C   UNL     1      -3.488  -2.432  -1.289  0.00  0.00    +0.205 C 
BRANCH  21  22
ATOM     22  N   UNL     1      -2.773  -2.410  -0.011  0.00  0.00    -0.277 N 
ATOM     23  C   UNL     1      -3.430  -2.684   1.134  0.00  0.00    +0.307 C 
ATOM     24  O   UNL     1      -4.616  -2.950   1.105  0.00  0.00    -0.252 OA
ATOM     25  N   UNL     1      -2.772  -2.663   2.310  0.00  0.00    -0.269 N 
ATOM     26  H   UNL     1      -1.845  -2.377   2.342  0.00  0.00    +0.156 HD
BRANCH  25  27
ATOM     27  C   UNL     1      -3.425  -3.053   3.484  0.00  0.00    +0.035 A 
ATOM     28  C   UNL     1      -3.111  -2.442   4.691  0.00  0.00    +0.023 A 
ATOM     29  C   UNL     1      -3.758  -2.829   5.848  0.00  0.00    +0.002 A 
ATOM     30  C   UNL     1      -4.718  -3.823   5.806  0.00  0.00    +0.000 A 
ATOM     31  C   UNL     1      -5.032  -4.434   4.606  0.00  0.00    +0.002 A 
ATOM     32  C   UNL     1      -4.393  -4.048   3.444  0.00  0.00    +0.023 A 
ENDBRANCH  25  27
BRANCH  22  33
ATOM     33  C   UNL     1      -1.344  -2.089   0.023  0.00  0.00    +0.110 C 
BRANCH  33  34
ATOM     34  C   UNL     1      -1.164  -0.579   0.188  0.00  0.00    +0.019 C 
BRANCH  34  36
ATOM     35  C   UNL     1       0.508   1.267   0.388  0.00  0.00    +0.004 C 
ATOM     36  C   UNL     1       0.329  -0.244   0.223  0.00  0.00    -0.002 C 
ENDBRANCH  34  36
ENDBRANCH  33  34
ENDBRANCH  22  33
ENDBRANCH  21  22
ENDBRANCH   1  21
TORSDOF 7
