REMARK  Name = ZINC09217653
REMARK  10 active torsions:
REMARK  status: ('A' for Active; 'I' for Inactive)
REMARK    1  A    between atoms: C_1  and  C_2
REMARK    2  A    between atoms: C_5  and  C_8
REMARK    3  A    between atoms: C_10  and  N_13
REMARK    4  A    between atoms: C_14  and  C_16
REMARK    5  A    between atoms: C_16  and  N_56
REMARK    6  A    between atoms: C_17  and  N_56
REMARK    7  A    between atoms: C_18  and  C_19
REMARK    8  A    between atoms: C_18  and  N_56
REMARK    9  A    between atoms: N_22  and  C_24
REMARK   10  A    between atoms: C_24  and  C_25
REMARK                            x       y       z     vdW  Elec       q    Type
REMARK                         _______ _______ _______ _____ _____    ______ ____
ROOT
ATOM      1  C   UNL     1      -4.335   0.535   1.453  0.00  0.00    +0.019 C 
ENDROOT
BRANCH   1   3
ATOM      2  N   UNL     1      -5.801  -0.483   3.166  0.00  0.00    -0.256 N 
ATOM      3  C   UNL     1      -4.655   0.166   2.879  0.00  0.00    +0.203 C 
ATOM      4  O   UNL     1      -3.881   0.452   3.768  0.00  0.00    -0.277 OA
ATOM      5  H   UNL     1      -6.420  -0.712   2.455  0.00  0.00    +0.158 HD
BRANCH   2   8
ATOM      6  C   UNL     1      -7.011  -1.566   6.325  0.00  0.00    +0.115 A 
ATOM      7  C   UNL     1      -7.210  -1.470   4.923  0.00  0.00    +0.097 A 
ATOM      8  C   UNL     1      -6.096  -0.823   4.479  0.00  0.00    +0.224 A 
ATOM      9  O   UNL     1      -5.343  -0.574   5.562  0.00  0.00    -0.339 OA
ATOM     10  N   UNL     1      -5.859  -0.990   6.572  0.00  0.00    -0.076 NA
BRANCH   6  15
ATOM     11  C   UNL     1     -10.561  -3.985  10.162  0.00  0.00    +0.044 C 
ATOM     12  C   UNL     1      -9.632  -3.352   9.159  0.00  0.00    -0.050 A 
ATOM     13  C   UNL     1      -8.445  -2.782   9.582  0.00  0.00    +0.004 A 
ATOM     14  C   UNL     1      -7.590  -2.201   8.666  0.00  0.00    +0.010 A 
ATOM     15  C   UNL     1      -7.926  -2.190   7.314  0.00  0.00    +0.004 A 
ATOM     16  C   UNL     1      -9.125  -2.761   6.894  0.00  0.00    +0.010 A 
ATOM     17  C   UNL     1      -9.970  -3.343   7.817  0.00  0.00    +0.004 A 
ENDBRANCH   6  15
ENDBRANCH   2   8
ENDBRANCH   1   3
BRANCH   1  19
ATOM     18  C   UNL     1      -3.112   2.524   2.095  0.00  0.00    -0.095 C 
ATOM     19  N   UNL     1      -3.022   1.212   1.420  0.00  0.00    +0.386 N 
ATOM     20  H   UNL     1      -2.334   0.630   1.912  0.00  0.00    -0.081 HD
BRANCH  19  21
ATOM     21  C   UNL     1      -2.583   1.394   0.020  0.00  0.00    -0.040 C 
BRANCH  21  22
ATOM     22  C   UNL     1      -1.157   1.881   0.017  0.00  0.00    -0.026 A 
ATOM     23  C   UNL     1      -0.013   1.076   0.008  0.00  0.00    +0.136 A 
ATOM     24  N   UNL     1       1.037   1.857   0.002  0.00  0.00    -0.179 NA
ATOM     25  N   UNL     1       0.593   3.186   0.013  0.00  0.00    -0.267 N 
ATOM     26  C   UNL     1      -0.756   3.173   0.025  0.00  0.00    +0.110 A 
BRANCH  25  27
ATOM     27  C   UNL     1       1.444   4.379   0.011  0.00  0.00    +0.178 C 
BRANCH  27  28
ATOM     28  C   UNL     1       2.409   4.309   1.166  0.00  0.00    -0.026 A 
ATOM     29  C   UNL     1       2.062   4.848   2.391  0.00  0.00    +0.005 A 
ATOM     30  C   UNL     1       2.946   4.780   3.451  0.00  0.00    +0.000 A 
ATOM     31  C   UNL     1       4.181   4.182   3.285  0.00  0.00    +0.000 A 
ATOM     32  C   UNL     1       4.530   3.647   2.058  0.00  0.00    +0.000 A 
ATOM     33  C   UNL     1       3.644   3.711   0.999  0.00  0.00    +0.005 A 
ENDBRANCH  27  28
ENDBRANCH  25  27
ENDBRANCH  21  22
ENDBRANCH  19  21
ENDBRANCH   1  19
TORSDOF 8
