REMARK  Name = ZINC39989795
REMARK  14 active torsions:
REMARK  status: ('A' for Active; 'I' for Inactive)
REMARK    1  A    between atoms: C_1  and  C_2
REMARK    2  A    between atoms: C_2  and  N_3
REMARK    3  A    between atoms: C_4  and  N_29
REMARK    4  A    between atoms: C_5  and  C_13
REMARK    5  A    between atoms: C_6  and  C_12
REMARK    6  A    between atoms: C_7  and  C_10
REMARK    7  A    between atoms: N_17  and  C_21
REMARK    8  A    between atoms: C_21  and  C_22
REMARK    9  A    between atoms: C_22  and  C_23
REMARK   10  A    between atoms: C_23  and  C_24
REMARK   11  A    between atoms: C_24  and  C_25
REMARK   12  A    between atoms: C_25  and  C_26
REMARK   13  A    between atoms: C_31  and  C_38
REMARK   14  A    between atoms: C_34  and  C_37
REMARK                            x       y       z     vdW  Elec       q    Type
REMARK                         _______ _______ _______ _____ _____    ______ ____
ROOT
ATOM      1  N   UNL     1       0.577  -1.666   0.894  0.00  0.00    -0.295 N 
ATOM      2  C   UNL     1       1.863  -1.321   1.158  0.00  0.00    +0.112 A 
ATOM      3  C   UNL     1       2.357  -1.357   2.472  0.00  0.00    +0.019 A 
ATOM      4  C   UNL     1       1.507  -1.753   3.518  0.00  0.00    -0.017 A 
ATOM      5  C   UNL     1       0.192  -2.102   3.222  0.00  0.00    +0.120 A 
ATOM      6  C   UNL     1      -0.258  -2.044   1.879  0.00  0.00    +0.270 A 
ATOM      7  O   UNL     1      -1.409  -2.343   1.613  0.00  0.00    -0.266 OA
ATOM      8  C   UNL     1       2.010  -1.801   4.938  0.00  0.00    +0.046 C 
ENDROOT
BRANCH   3   9
ATOM      9  C   UNL     1       3.745  -0.984   2.750  0.00  0.00    +0.032 C 
ATOM     10  C   UNL     1       4.624  -1.921   3.197  0.00  0.00    +0.077 C 
ATOM     11  C   UNL     1       5.970  -1.763   3.647  0.00  0.00    +0.258 C 
ATOM     12  O   UNL     1       6.499  -0.666   3.671  0.00  0.00    -0.269 OA
ATOM     13  N   UNL     1       6.626  -2.842   4.037  0.00  0.00    -0.255 N 
ATOM     14  C   UNL     1       6.039  -4.060   4.010  0.00  0.00    +0.121 C 
ATOM     15  S   UNL     1       6.693  -5.576   4.463  0.00  0.00    -0.027 S 
ATOM     16  S   UNL     1       4.407  -3.685   3.389  0.00  0.00    -0.061 S 
BRANCH  13  17
ATOM     17  C   UNL     1       8.008  -2.718   4.505  0.00  0.00    +0.115 C 
BRANCH  17  18
ATOM     18  C   UNL     1       8.015  -2.475   6.016  0.00  0.00    +0.019 C 
BRANCH  18  19
ATOM     19  C   UNL     1       9.460  -2.345   6.504  0.00  0.00    +0.002 C 
BRANCH  19  20
ATOM     20  C   UNL     1       9.467  -2.103   8.015  0.00  0.00    +0.011 C 
BRANCH  20  21
ATOM     21  C   UNL     1      10.911  -1.972   8.504  0.00  0.00    +0.125 C 
BRANCH  21  22
ATOM     22  C   UNL     1      10.918  -1.734   9.992  0.00  0.00    +0.356 C 
ATOM     23  O   UNL     1       9.866  -1.673  10.604  0.00  0.00    -0.246 OA
ATOM     24  O   UNL     1      11.976  -1.601  10.583  0.00  0.00    -0.246 OA
ENDBRANCH  21  22
ENDBRANCH  20  21
ENDBRANCH  19  20
ENDBRANCH  18  19
ENDBRANCH  17  18
ENDBRANCH  13  17
ENDBRANCH   3   9
BRANCH   2  25
ATOM     25  N   UNL     1       2.683  -0.936   0.137  0.00  0.00    -0.315 N 
ATOM     26  C   UNL     1       3.293   0.400   0.130  0.00  0.00    +0.109 C 
ATOM     27  C   UNL     1       4.809   0.250  -0.034  0.00  0.00    +0.004 C 
ATOM     28  C   UNL     1       5.102  -0.582  -1.285  0.00  0.00    +0.009 C 
ATOM     29  C   UNL     1       4.493  -1.976  -1.127  0.00  0.00    +0.004 C 
ATOM     30  C   UNL     1       2.978  -1.853  -0.972  0.00  0.00    +0.109 C 
ATOM     31  C   UNL     1       5.077  -2.651   0.115  0.00  0.00    +0.009 C 
ATOM     32  C   UNL     1       5.447   1.633  -0.178  0.00  0.00    +0.009 C 
ENDBRANCH   2  25
BRANCH   1  34
ATOM     33  C   UNL     1      -0.581  -0.269  -0.746  0.00  0.00    +0.027 C 
ATOM     34  C   UNL     1       0.088  -1.620  -0.486  0.00  0.00    +0.123 C 
ENDBRANCH   1  34
BRANCH   5  35
ATOM     35  C   UNL     1      -0.700  -2.511   4.266  0.00  0.00    +0.105 C 
ATOM     36  N   UNL     1      -1.407  -2.835   5.093  0.00  0.00    -0.191 NA
ENDBRANCH   5  35
TORSDOF 10
