REMARK  Name = ZINC63383691
REMARK  6 active torsions:
REMARK  status: ('A' for Active; 'I' for Inactive)
REMARK    1  A    between atoms: C_1  and  C_2
REMARK    2  A    between atoms: C_2  and  C_4
REMARK    3  A    between atoms: C_2  and  N_12
REMARK    4  A    between atoms: C_4  and  C_5
REMARK    5  A    between atoms: C_5  and  C_6
REMARK    6  A    between atoms: C_15  and  C_22
REMARK                            x       y       z     vdW  Elec       q    Type
REMARK                         _______ _______ _______ _____ _____    ______ ____
ROOT
ATOM      1  N   UNL     1       0.673  -0.544   1.191  0.00  0.00    -0.258 N 
ATOM      2  C   UNL     1       1.780  -1.300   1.047  0.00  0.00    +0.265 A 
ATOM      3  O   UNL     1       2.159  -1.627  -0.065  0.00  0.00    -0.267 OA
ATOM      4  C   UNL     1       2.495  -1.707   2.187  0.00  0.00    +0.100 A 
ATOM      5  C   UNL     1       2.050  -1.327   3.418  0.00  0.00    +0.263 A 
ATOM      6  N   UNL     1       0.919  -0.557   3.520  0.00  0.00    -0.274 N 
ATOM      7  H   UNL     1       0.599  -0.284   4.394  0.00  0.00    +0.173 HD
ATOM      8  C   UNL     1       0.253  -0.175   2.414  0.00  0.00    +0.332 A 
ATOM      9  O   UNL     1      -0.745   0.510   2.523  0.00  0.00    -0.246 OA
ATOM     10  O   UNL     1       2.718  -1.704   4.529  0.00  0.00    -0.267 OA
ENDROOT
BRANCH   4  11
ATOM     11  C   UNL     1       3.735  -2.552   2.050  0.00  0.00    +0.121 C 
ATOM     12  C   UNL     1       4.910  -1.861   2.746  0.00  0.00    +0.128 C 
ATOM     13  C   UNL     1       4.579  -1.852   4.234  0.00  0.00    -0.035 C 
ATOM     14  C   UNL     1       4.671  -0.591   4.632  0.00  0.00    -0.001 A 
ATOM     15  C   UNL     1       4.551   0.030   5.961  0.00  0.00    +0.010 A 
ATOM     16  C   UNL     1       4.692   1.382   6.006  0.00  0.00    +0.001 A 
ATOM     17  C   UNL     1       4.937   2.168   4.876  0.00  0.00    +0.002 A 
ATOM     18  C   UNL     1       5.068   1.680   3.616  0.00  0.00    +0.026 A 
ATOM     19  C   UNL     1       4.946   0.271   3.442  0.00  0.00    +0.043 A 
ATOM     20  N   UNL     1       5.054  -0.461   2.350  0.00  0.00    -0.376 N 
ATOM     21  C   UNL     1       4.144  -3.105   4.956  0.00  0.00    +0.048 C 
ATOM     22  C   UNL     1       3.055  -3.749   4.080  0.00  0.00    +0.086 C 
ATOM     23  N   UNL     1       3.519  -3.858   2.693  0.00  0.00    -0.307 NA
ATOM     24  H   UNL     1       2.895  -4.431   2.145  0.00  0.00    +0.123 HD
ATOM     25  H   UNL     1       5.198  -0.139   1.446  0.00  0.00    +0.160 HD
ENDBRANCH   4  11
BRANCH   1  27
ATOM     26  C   UNL     1      -0.104   1.411  -0.055  0.00  0.00    +0.031 C 
ATOM     27  C   UNL     1      -0.075  -0.117   0.006  0.00  0.00    +0.092 C 
BRANCH  27  28
ATOM     28  C   UNL     1      -1.506  -0.652   0.086  0.00  0.00    +0.030 C 
BRANCH  28  29
ATOM     29  C   UNL     1      -1.484  -2.180   0.021  0.00  0.00    +0.037 C 
BRANCH  29  30
ATOM     30  C   UNL     1      -2.893  -2.707   0.100  0.00  0.00    -0.047 A 
ATOM     31  C   UNL     1      -3.457  -2.993   1.330  0.00  0.00    +0.003 A 
ATOM     32  C   UNL     1      -4.750  -3.476   1.402  0.00  0.00    +0.000 A 
ATOM     33  C   UNL     1      -5.480  -3.673   0.245  0.00  0.00    +0.000 A 
ATOM     34  C   UNL     1      -4.917  -3.387  -0.984  0.00  0.00    +0.000 A 
ATOM     35  C   UNL     1      -3.625  -2.900  -1.057  0.00  0.00    +0.003 A 
ENDBRANCH  29  30
ENDBRANCH  28  29
ENDBRANCH  27  28
ENDBRANCH   1  27
TORSDOF 5
