REMARK  Name = ZINC38708298
REMARK  10 active torsions:
REMARK  status: ('A' for Active; 'I' for Inactive)
REMARK    1  A    between atoms: C_1  and  C_2
REMARK    2  A    between atoms: C_2  and  C_3
REMARK    3  A    between atoms: C_2  and  C_4
REMARK    4  A    between atoms: C_4  and  C_5
REMARK    5  A    between atoms: C_5  and  N_6
REMARK    6  A    between atoms: C_9  and  N_20
REMARK    7  A    between atoms: C_15  and  C_18
REMARK    8  A    between atoms: C_15  and  C_19
REMARK    9  A    between atoms: N_20  and  S_21
REMARK   10  A    between atoms: S_21  and  C_24
REMARK                            x       y       z     vdW  Elec       q    Type
REMARK                         _______ _______ _______ _____ _____    ______ ____
ROOT
ATOM      1  N   UNL     1      -0.278  -1.292   3.344  0.00  0.00    -0.268 N 
ATOM      2  C   UNL     1      -0.276  -2.518   4.021  0.00  0.00    +0.080 A 
ATOM      3  C   UNL     1      -0.169  -3.709   3.321  0.00  0.00    +0.051 A 
ATOM      4  C   UNL     1      -0.173  -4.916   4.008  0.00  0.00    +0.050 A 
ATOM      5  C   UNL     1      -0.284  -4.927   5.392  0.00  0.00    +0.028 A 
ATOM      6  C   UNL     1      -0.389  -3.738   6.090  0.00  0.00    +0.049 A 
ATOM      7  C   UNL     1      -0.383  -2.532   5.410  0.00  0.00    +0.142 A 
ATOM      8  O   UNL     1      -0.472  -1.358   6.091  0.00  0.00    -0.489 OA
ATOM      9  C   UNL     1       0.722  -0.594   6.231  0.00  0.00    +0.244 C 
ATOM     10  C   UNL     1       1.487  -0.552   4.910  0.00  0.00    +0.076 C 
ATOM     11  C   UNL     1       0.539  -0.301   3.766  0.00  0.00    +0.229 C 
ATOM     12  O   UNL     1       0.506   0.786   3.229  0.00  0.00    -0.275 OA
ATOM     13  C   UNL     1       2.527   0.569   4.960  0.00  0.00    +0.024 C 
ATOM     14  C   UNL     1       2.197  -1.889   4.691  0.00  0.00    +0.024 C 
ENDROOT
BRANCH   4  15
ATOM     15  N   UNL     1      -0.066  -6.121   3.305  0.00  0.00    -0.216 N 
ATOM     16  H   UNL     1      -0.604  -6.270   2.513  0.00  0.00    +0.174 HD
BRANCH  15  17
ATOM     17  S   UNL     1       0.982  -7.293   3.827  0.00  0.00    +0.072 S 
ATOM     18  O   UNL     1       0.692  -7.515   5.200  0.00  0.00    -0.150 OA
ATOM     19  O   UNL     1       0.940  -8.334   2.861  0.00  0.00    -0.150 OA
BRANCH  17  20
ATOM     20  C   UNL     1       2.604  -6.608   3.759  0.00  0.00    +0.109 A 
ATOM     21  C   UNL     1       3.384  -6.802   2.621  0.00  0.00    +0.029 A 
ATOM     22  C   UNL     1       4.641  -6.287   2.537  0.00  0.00    +0.010 A 
ATOM     23  C   UNL     1       5.164  -5.549   3.612  0.00  0.00    -0.018 A 
ATOM     24  C   UNL     1       6.457  -5.002   3.562  0.00  0.00    +0.008 A 
ATOM     25  C   UNL     1       6.930  -4.292   4.622  0.00  0.00    +0.001 A 
ATOM     26  C   UNL     1       6.150  -4.098   5.761  0.00  0.00    +0.001 A 
ATOM     27  C   UNL     1       4.893  -4.613   5.845  0.00  0.00    +0.008 A 
ATOM     28  C   UNL     1       4.371  -5.352   4.770  0.00  0.00    -0.016 A 
ATOM     29  C   UNL     1       3.075  -5.894   4.818  0.00  0.00    +0.037 A 
ENDBRANCH  17  20
ENDBRANCH  15  17
ENDBRANCH   4  15
BRANCH   1  30
ATOM     30  C   UNL     1      -1.153  -1.087   2.186  0.00  0.00    +0.114 C 
BRANCH  30  31
ATOM     31  C   UNL     1      -0.417  -1.502   0.911  0.00  0.00    +0.022 C 
BRANCH  31  33
ATOM     32  C   UNL     1      -1.616   0.206  -0.463  0.00  0.00    +0.007 C 
ATOM     33  C   UNL     1      -1.330  -1.288  -0.298  0.00  0.00    -0.016 C 
ATOM     34  C   UNL     1      -0.642  -1.818  -1.557  0.00  0.00    +0.007 C 
ENDBRANCH  31  33
ENDBRANCH  30  31
ENDBRANCH   1  30
TORSDOF 6
