REMARK  Name = ZINC36309243
REMARK  18 active torsions:
REMARK  status: ('A' for Active; 'I' for Inactive)
REMARK    1  A    between atoms: C_1  and  C_2
REMARK    2  A    between atoms: C_2  and  C_3
REMARK    3  A    between atoms: C_3  and  N_4
REMARK    4  A    between atoms: N_4  and  C_5
REMARK    5  A    between atoms: N_4  and  C_14
REMARK    6  A    between atoms: C_5  and  C_6
REMARK    7  A    between atoms: C_6  and  C_8
REMARK    8  A    between atoms: C_6  and  O_13
REMARK    9  A    between atoms: C_8  and  O_9
REMARK   10  A    between atoms: O_9  and  C_10
REMARK   11  A    between atoms: C_10  and  C_11
REMARK   12  A    between atoms: C_14  and  C_15
REMARK   13  A    between atoms: C_25  and  C_27
REMARK   14  A    between atoms: C_27  and  O_28
REMARK   15  A    between atoms: O_28  and  C_29
REMARK   16  A    between atoms: C_32  and  C_35
REMARK   17  A    between atoms: C_35  and  C_36
REMARK   18  A    between atoms: C_35  and  C_37
REMARK                            x       y       z     vdW  Elec       q    Type
REMARK                         _______ _______ _______ _____ _____    ______ ____
ROOT
ATOM      1  C   UNL     1       0.176  -2.576   3.410  0.00  0.00    +0.200 C 
ATOM      2  O   UNL     1      -0.833  -1.933   3.213  0.00  0.00    -0.278 OA
ATOM      3  N   UNL     1       0.400  -3.125   4.620  0.00  0.00    -0.292 N 
ATOM      4  C   UNL     1       1.623  -3.902   4.872  0.00  0.00    +0.113 C 
ATOM      5  C   UNL     1       2.459  -3.158   5.924  0.00  0.00    +0.061 C 
ATOM      6  C   UNL     1       1.548  -2.672   7.004  0.00  0.00    -0.004 A 
ATOM      7  C   UNL     1       0.193  -2.554   6.964  0.00  0.00    -0.014 A 
ATOM      8  C   UNL     1      -0.426  -2.062   8.112  0.00  0.00    +0.013 A 
ATOM      9  C   UNL     1       0.317  -1.735   9.194  0.00  0.00    +0.046 A 
ATOM     10  S   UNL     1       1.970  -2.113   8.633  0.00  0.00    -0.101 S 
ATOM     11  C   UNL     1      -0.572  -2.951   5.708  0.00  0.00    +0.144 C 
ENDROOT
BRANCH   1  12
ATOM     12  C   UNL     1       1.180  -2.761   2.301  0.00  0.00    +0.019 C 
BRANCH  12  13
ATOM     13  N   UNL     1       0.709  -2.071   1.093  0.00  0.00    +0.387 N 
ATOM     14  H   UNL     1      -0.216  -2.399   0.858  0.00  0.00    -0.081 HD
BRANCH  13  15
ATOM     15  C   UNL     1       0.666  -0.624   1.341  0.00  0.00    -0.078 C 
BRANCH  15  17
ATOM     16  C   UNL     1       2.025   1.380   1.957  0.00  0.00    +0.002 C 
ATOM     17  C   UNL     1       2.078  -0.115   1.637  0.00  0.00    -0.022 C 
ENDBRANCH  15  17
ENDBRANCH  13  15
BRANCH  13  18
ATOM     18  C   UNL     1       1.626  -2.350  -0.020  0.00  0.00    -0.044 C 
BRANCH  18  19
ATOM     19  C   UNL     1       1.069  -1.736  -1.306  0.00  0.00    +0.124 C 
BRANCH  19  20
ATOM     20  O   UNL     1      -0.209  -2.306  -1.592  0.00  0.00    -0.391 OA
ATOM     21  H   UNL     1      -0.193  -3.265  -1.718  0.00  0.00    +0.210 HD
ENDBRANCH  19  20
BRANCH  19  22
ATOM     22  C   UNL     1       2.027  -2.022  -2.464  0.00  0.00    +0.190 C 
BRANCH  22  23
ATOM     23  O   UNL     1       1.567  -1.351  -3.639  0.00  0.00    -0.365 OA
BRANCH  23  24
ATOM     24  C   UNL     1       2.396  -1.554  -4.786  0.00  0.00    +0.248 C 
BRANCH  24  25
ATOM     25  C   UNL     1       1.834  -0.822  -5.933  0.00  0.00    -0.077 C 
ATOM     26  C   UNL     1       1.385  -0.239  -6.848  0.00  0.00    +0.006 C 
ENDBRANCH  24  25
ENDBRANCH  23  24
ENDBRANCH  22  23
ENDBRANCH  19  22
ENDBRANCH  18  19
ENDBRANCH  13  18
ENDBRANCH  12  13
ENDBRANCH   1  12
BRANCH  11  27
ATOM     27  C   UNL     1      -1.316  -4.266   5.953  0.00  0.00    +0.256 C 
BRANCH  27  28
ATOM     28  O   UNL     1      -0.396  -5.252   6.427  0.00  0.00    -0.490 OA
BRANCH  28  29
ATOM     29  C   UNL     1      -0.899  -6.486   6.695  0.00  0.00    +0.121 A 
ATOM     30  C   UNL     1      -2.248  -6.743   6.502  0.00  0.00    +0.046 A 
ATOM     31  C   UNL     1      -2.757  -7.998   6.775  0.00  0.00    +0.007 A 
ATOM     32  C   UNL     1      -1.922  -8.997   7.242  0.00  0.00    -0.045 A 
ATOM     33  C   UNL     1      -0.577  -8.743   7.436  0.00  0.00    +0.007 A 
ATOM     34  C   UNL     1      -0.063  -7.491   7.158  0.00  0.00    +0.046 A 
BRANCH  32  35
ATOM     35  C   UNL     1      -2.480 -10.365   7.540  0.00  0.00    +0.013 C 
ATOM     36  C   UNL     1      -1.777 -11.404   6.664  0.00  0.00    +0.012 C 
ATOM     37  C   UNL     1      -2.248 -10.700   9.014  0.00  0.00    +0.012 C 
ENDBRANCH  32  35
ENDBRANCH  28  29
ENDBRANCH  27  28
ENDBRANCH  11  27
TORSDOF 15
