REMARK  Name = ZINC20685501
REMARK  10 active torsions:
REMARK  status: ('A' for Active; 'I' for Inactive)
REMARK    1  A    between atoms: C_1  and  C_2
REMARK    2  A    between atoms: C_2  and  C_3
REMARK    3  A    between atoms: C_8  and  N_9
REMARK    4  A    between atoms: C_10  and  C_12
REMARK    5  A    between atoms: C_12  and  N_13
REMARK    6  A    between atoms: N_13  and  C_14
REMARK    7  A    between atoms: N_13  and  C_15
REMARK    8  A    between atoms: C_15  and  C_17
REMARK    9  A    between atoms: C_15  and  C_18
REMARK   10  A    between atoms: N_23  and  C_24
REMARK                            x       y       z     vdW  Elec       q    Type
REMARK                         _______ _______ _______ _____ _____    ______ ____
ROOT
ATOM      1  C   UNL     1      -2.464   5.585   4.170  0.00  0.00    +0.017 C 
ATOM      2  C   UNL     1      -3.929   5.148   4.105  0.00  0.00    -0.004 C 
ENDROOT
BRANCH   1   3
ATOM      3  C   UNL     1      -1.734   5.080   2.953  0.00  0.00    +0.207 C 
ATOM      4  O   UNL     1      -1.419   5.850   2.071  0.00  0.00    -0.277 OA
ATOM      5  N   UNL     1      -1.432   3.771   2.843  0.00  0.00    -0.242 N 
ATOM      6  C   UNL     1      -0.779   3.319   1.754  0.00  0.00    +0.306 C 
ATOM      7  O   UNL     1      -0.463   4.091   0.871  0.00  0.00    -0.252 OA
ATOM      8  N   UNL     1      -0.476   2.010   1.645  0.00  0.00    -0.294 N 
ATOM      9  H   UNL     1      -1.718   3.072   3.643  0.00  0.00    +0.159 HD
ATOM     10  H   UNL     1      -0.762   1.311   2.445  0.00  0.00    +0.151 HD
BRANCH   8  11
ATOM     11  C   UNL     1       0.234   1.518   0.462  0.00  0.00    +0.037 C 
ATOM     12  C   UNL     1       1.588   2.221   0.351  0.00  0.00    +0.029 C 
ATOM     13  C   UNL     1       2.329   1.708  -0.885  0.00  0.00    -0.008 C 
ATOM     14  C   UNL     1       2.547   0.199  -0.759  0.00  0.00    +0.007 C 
ATOM     15  C   UNL     1       1.192  -0.504  -0.648  0.00  0.00    -0.008 C 
ATOM     16  C   UNL     1       0.451   0.009   0.588  0.00  0.00    +0.029 C 
ATOM     17  C   UNL     1       0.361  -0.211  -1.899  0.00  0.00    +0.007 C 
ATOM     18  C   UNL     1       0.144   1.298  -2.025  0.00  0.00    -0.008 C 
ATOM     19  C   UNL     1       1.498   2.001  -2.136  0.00  0.00    +0.007 C 
ATOM     20  C   UNL     1      -0.597   1.811  -0.789  0.00  0.00    +0.029 C 
ENDBRANCH   8  11
ENDBRANCH   1   3
BRANCH   1  21
ATOM     21  N   UNL     1      -2.392   7.052   4.210  0.00  0.00    +0.391 N 
ATOM     22  C   UNL     1      -2.745   7.560   5.543  0.00  0.00    -0.094 C 
ATOM     23  H   UNL     1      -1.353   7.345   4.001  0.00  0.00    -0.080 HD
BRANCH  21  24
ATOM     24  C   UNL     1      -3.247   7.650   3.176  0.00  0.00    +0.020 C 
BRANCH  24  26
ATOM     25  N   UNL     1      -3.636   9.887   2.195  0.00  0.00    -0.287 N 
ATOM     26  C   UNL     1      -2.965   9.127   3.083  0.00  0.00    +0.201 C 
ATOM     27  O   UNL     1      -2.133   9.632   3.807  0.00  0.00    -0.278 OA
ATOM     28  H   UNL     1      -4.323   9.416   1.476  0.00  0.00    +0.155 HD
BRANCH  25  34
ATOM     29  C   UNL     1      -3.790  12.012   1.057  0.00  0.00    -0.026 A 
ATOM     30  C   UNL     1      -3.614  13.382   1.052  0.00  0.00    +0.005 A 
ATOM     31  C   UNL     1      -3.109  14.020   2.170  0.00  0.00    +0.000 A 
ATOM     32  C   UNL     1      -2.779  13.288   3.297  0.00  0.00    +0.002 A 
ATOM     33  C   UNL     1      -2.957  11.919   3.310  0.00  0.00    +0.023 A 
ATOM     34  C   UNL     1      -3.459  11.275   2.187  0.00  0.00    +0.036 A 
BRANCH  29  36
ATOM     35  C   UNL     1      -5.854  11.146  -0.011  0.00  0.00    +0.009 C 
ATOM     36  C   UNL     1      -4.341  11.318  -0.162  0.00  0.00    +0.033 C 
ENDBRANCH  29  36
ENDBRANCH  25  34
ENDBRANCH  24  26
ENDBRANCH  21  24
ENDBRANCH   1  21
TORSDOF 7
