REMARK  Name = ZINC54642932
REMARK  12 active torsions:
REMARK  status: ('A' for Active; 'I' for Inactive)
REMARK    1  A    between atoms: C_1  and  C_2
REMARK    2  A    between atoms: C_3  and  C_29
REMARK    3  A    between atoms: C_4  and  C_20
REMARK    4  A    between atoms: C_9  and  S_11
REMARK    5  A    between atoms: S_11  and  C_12
REMARK    6  A    between atoms: C_12  and  C_13
REMARK    7  A    between atoms: C_23  and  N_26
REMARK    8  A    between atoms: N_26  and  C_27
REMARK    9  A    between atoms: N_26  and  C_28
REMARK   10  A    between atoms: C_29  and  O_31
REMARK   11  A    between atoms: O_31  and  C_32
REMARK   12  A    between atoms: C_32  and  C_33
REMARK                            x       y       z     vdW  Elec       q    Type
REMARK                         _______ _______ _______ _____ _____    ______ ____
ROOT
ATOM      1  C   UNL     1      -0.018   1.503   0.010  0.00  0.00    +0.061 C 
ATOM      2  C   UNL     1       0.002  -0.004   0.002  0.00  0.00    +0.020 C 
ATOM      3  C   UNL     1      -1.164  -0.669   0.004  0.00  0.00    +0.082 C 
ATOM      4  C   UNL     1      -1.253  -2.171  -0.016  0.00  0.00    +0.179 C 
ATOM      5  N   UNL     1       0.065  -2.740   0.256  0.00  0.00    -0.220 N 
ATOM      6  C   UNL     1       1.210  -2.015   0.250  0.00  0.00    +0.219 A 
ATOM      7  N   UNL     1       2.201  -2.820   0.521  0.00  0.00    -0.187 NA
ATOM      8  C   UNL     1       1.731  -4.062   0.710  0.00  0.00    +0.211 A 
ATOM      9  N   UNL     1       0.424  -4.053   0.557  0.00  0.00    -0.141 NA
ATOM     10  N   UNL     1       1.212  -0.651  -0.013  0.00  0.00    -0.287 N 
ATOM     11  H   UNL     1       2.037  -0.173  -0.196  0.00  0.00    +0.155 HD
ENDROOT
BRANCH   4  12
ATOM     12  C   UNL     1      -1.728  -2.629  -1.371  0.00  0.00    -0.018 A 
ATOM     13  C   UNL     1      -0.989  -2.327  -2.499  0.00  0.00    +0.008 A 
ATOM     14  C   UNL     1      -1.422  -2.745  -3.743  0.00  0.00    +0.023 A 
ATOM     15  C   UNL     1      -2.602  -3.469  -3.858  0.00  0.00    +0.029 A 
ATOM     16  C   UNL     1      -3.342  -3.770  -2.722  0.00  0.00    +0.023 A 
ATOM     17  C   UNL     1      -2.901  -3.354  -1.482  0.00  0.00    +0.008 A 
BRANCH  15  18
ATOM     18  N   UNL     1      -3.042  -3.892  -5.114  0.00  0.00    -0.336 N 
ATOM     19  C   UNL     1      -2.260  -3.573  -6.311  0.00  0.00    +0.129 C 
ATOM     20  C   UNL     1      -4.287  -4.656  -5.234  0.00  0.00    +0.129 C 
ENDBRANCH  15  18
ENDBRANCH   4  12
BRANCH   3  21
ATOM     21  C   UNL     1      -2.364   0.077   0.026  0.00  0.00    +0.339 C 
ATOM     22  O   UNL     1      -2.324   1.293   0.043  0.00  0.00    -0.245 OA
BRANCH  21  23
ATOM     23  O   UNL     1      -3.554  -0.560   0.029  0.00  0.00    -0.457 OA
BRANCH  23  24
ATOM     24  C   UNL     1      -4.726   0.257   0.052  0.00  0.00    +0.268 C 
BRANCH  24  25
ATOM     25  C   UNL     1      -5.951  -0.622   0.051  0.00  0.00    -0.010 A 
ATOM     26  C   UNL     1      -6.520  -1.013  -1.146  0.00  0.00    +0.007 A 
ATOM     27  C   UNL     1      -7.643  -1.819  -1.146  0.00  0.00    +0.000 A 
ATOM     28  C   UNL     1      -8.196  -2.235   0.051  0.00  0.00    +0.000 A 
ATOM     29  C   UNL     1      -7.626  -1.845   1.248  0.00  0.00    +0.000 A 
ATOM     30  C   UNL     1      -6.500  -1.042   1.248  0.00  0.00    +0.007 A 
ENDBRANCH  24  25
ENDBRANCH  23  24
ENDBRANCH  21  23
ENDBRANCH   3  21
BRANCH   8  31
ATOM     31  S   UNL     1       2.706  -5.476   1.101  0.00  0.00    -0.080 S 
BRANCH  31  32
ATOM     32  C   UNL     1       4.401  -4.835   1.173  0.00  0.00    +0.112 C 
BRANCH  32  33
ATOM     33  C   UNL     1       5.349  -5.959   1.504  0.00  0.00    -0.037 A 
ATOM     34  C   UNL     1       5.644  -6.248   2.823  0.00  0.00    +0.004 A 
ATOM     35  C   UNL     1       6.514  -7.279   3.127  0.00  0.00    +0.000 A 
ATOM     36  C   UNL     1       7.089  -8.020   2.111  0.00  0.00    +0.000 A 
ATOM     37  C   UNL     1       6.793  -7.731   0.792  0.00  0.00    +0.000 A 
ATOM     38  C   UNL     1       5.920  -6.703   0.489  0.00  0.00    +0.004 A 
ENDBRANCH  32  33
ENDBRANCH  31  32
ENDBRANCH   8  31
TORSDOF 9
