REMARK  Name = ZINC30976484
REMARK  10 active torsions:
REMARK  status: ('A' for Active; 'I' for Inactive)
REMARK    1  A    between atoms: C_1  and  C_2
REMARK    2  A    between atoms: C_5  and  C_8
REMARK    3  A    between atoms: C_10  and  C_13
REMARK    4  A    between atoms: C_13  and  N_14
REMARK    5  A    between atoms: C_17  and  C_20
REMARK    6  A    between atoms: N_22  and  C_23
REMARK    7  A    between atoms: C_23  and  C_24
REMARK    8  A    between atoms: C_24  and  C_26
REMARK    9  A    between atoms: C_24  and  C_27
REMARK   10  A    between atoms: C_27  and  C_28
REMARK                            x       y       z     vdW  Elec       q    Type
REMARK                         _______ _______ _______ _____ _____    ______ ____
ROOT
ATOM      1  N   UNL     1      -0.397  -4.950   5.031  0.00  0.00    +0.386 N 
ATOM      2  C   UNL     1       1.025  -4.593   4.955  0.00  0.00    -0.077 C 
ATOM      3  C   UNL     1       1.167  -3.072   4.870  0.00  0.00    -0.006 C 
ATOM      4  C   UNL     1       0.427  -2.563   3.630  0.00  0.00    +0.071 C 
ATOM      5  C   UNL     1      -1.042  -2.990   3.711  0.00  0.00    -0.006 C 
ATOM      6  C   UNL     1      -1.119  -4.514   3.829  0.00  0.00    -0.077 C 
ATOM      7  H   UNL     1      -0.830  -4.421   5.893  0.00  0.00    -0.081 HD
ENDROOT
BRANCH   4   8
ATOM      8  C   UNL     1       0.512  -1.060   3.574  0.00  0.00    +0.216 C 
ATOM      9  O   UNL     1       1.106  -0.454   4.440  0.00  0.00    -0.276 OA
ATOM     10  N   UNL     1      -0.072  -0.389   2.561  0.00  0.00    -0.315 N 
ATOM     11  H   UNL     1      -0.611  -0.939   1.776  0.00  0.00    +0.149 HD
BRANCH  10  12
ATOM     12  C   UNL     1       0.011   1.072   2.506  0.00  0.00    +0.107 C 
BRANCH  12  13
ATOM     13  C   UNL     1      -0.729   1.579   1.267  0.00  0.00    +0.007 C 
ATOM     14  C   UNL     1      -0.013   1.086   0.008  0.00  0.00    +0.009 C 
BRANCH  13  15
ATOM     15  C   UNL     1      -0.750   3.109   1.275  0.00  0.00    +0.040 C 
BRANCH  15  16
ATOM     16  C   UNL     1      -1.582   3.607   0.122  0.00  0.00    -0.039 A 
ATOM     17  C   UNL     1      -0.988   3.951  -1.053  0.00  0.00    +0.004 A 
ATOM     18  C   UNL     1      -1.742   4.407  -2.132  0.00  0.00    +0.001 A 
ATOM     19  C   UNL     1      -3.094   4.532  -2.039  0.00  0.00    +0.008 A 
ATOM     20  C   UNL     1      -3.743   4.192  -0.840  0.00  0.00    -0.018 A 
ATOM     21  C   UNL     1      -2.976   3.723   0.256  0.00  0.00    -0.015 A 
ATOM     22  C   UNL     1      -3.625   3.383   1.455  0.00  0.00    +0.009 A 
ATOM     23  C   UNL     1      -4.977   3.509   1.548  0.00  0.00    +0.001 A 
ATOM     24  C   UNL     1      -5.731   3.971   0.471  0.00  0.00    +0.001 A 
ATOM     25  C   UNL     1      -5.137   4.309  -0.706  0.00  0.00    +0.008 A 
ENDBRANCH  15  16
ENDBRANCH  13  15
ENDBRANCH  12  13
ENDBRANCH  10  12
ENDBRANCH   4   8
BRANCH   1  26
ATOM     26  C   UNL     1      -0.567  -6.393   5.253  0.00  0.00    +0.022 C 
BRANCH  26  29
ATOM     27  C   UNL     1      -4.074  -7.155   5.441  0.00  0.00    +0.202 A 
ATOM     28  N   UNL     1      -2.954  -6.971   4.706  0.00  0.00    -0.193 NA
ATOM     29  C   UNL     1      -2.011  -6.686   5.569  0.00  0.00    +0.211 A 
ATOM     30  O   UNL     1      -2.568  -6.709   6.784  0.00  0.00    -0.340 OA
ATOM     31  N   UNL     1      -3.749  -6.973   6.694  0.00  0.00    -0.056 NA
BRANCH  27  36
ATOM     32  C   UNL     1      -9.302  -8.489   3.425  0.00  0.00    +0.044 C 
ATOM     33  C   UNL     1      -7.934  -8.141   3.953  0.00  0.00    -0.050 A 
ATOM     34  C   UNL     1      -7.741  -7.980   5.313  0.00  0.00    +0.004 A 
ATOM     35  C   UNL     1      -6.490  -7.660   5.801  0.00  0.00    +0.012 A 
ATOM     36  C   UNL     1      -5.421  -7.500   4.921  0.00  0.00    +0.022 A 
ATOM     37  C   UNL     1      -5.623  -7.659   3.552  0.00  0.00    +0.012 A 
ATOM     38  C   UNL     1      -6.877  -7.982   3.075  0.00  0.00    +0.004 A 
ENDBRANCH  27  36
ENDBRANCH  26  29
ENDBRANCH   1  26
TORSDOF 8
