REMARK  Name = ZINC40851995
REMARK  3 active torsions:
REMARK  status: ('A' for Active; 'I' for Inactive)
REMARK    1  A    between atoms: C_4  and  N_8
REMARK    2  A    between atoms: C_5  and  C_6
REMARK    3  A    between atoms: C_9  and  C_11
REMARK                            x       y       z     vdW  Elec       q    Type
REMARK                         _______ _______ _______ _____ _____    ______ ____
ROOT
ATOM      1  N   UNL     1       1.541  -1.965  -0.024  0.00  0.00    -0.280 N 
ATOM      2  C   UNL     1       2.824  -2.379  -0.039  0.00  0.00    +0.204 C 
ATOM      3  O   UNL     1       3.723  -1.566  -0.043  0.00  0.00    -0.277 OA
ATOM      4  H   UNL     1       0.821  -2.615  -0.021  0.00  0.00    +0.155 HD
ENDROOT
BRANCH   2   5
ATOM      5  C   UNL     1       3.140  -3.852  -0.050  0.00  0.00    +0.017 C 
ATOM      6  C   UNL     1       2.564  -4.507  -1.336  0.00  0.00    -0.005 C 
ATOM      7  C   UNL     1       3.666  -5.516  -1.697  0.00  0.00    -0.026 C 
ATOM      8  C   UNL     1       3.746  -5.890  -3.167  0.00  0.00    +0.002 C 
ATOM      9  C   UNL     1       4.975  -6.797  -3.341  0.00  0.00    +0.000 C 
ATOM     10  C   UNL     1       6.252  -6.101  -2.880  0.00  0.00    -0.002 C 
ATOM     11  C   UNL     1       6.126  -5.598  -1.432  0.00  0.00    -0.015 C 
ATOM     12  C   UNL     1       4.930  -4.678  -1.361  0.00  0.00    -0.068 C 
ATOM     13  N   UNL     1       4.612  -4.054  -0.076  0.00  0.00    +0.389 N 
ATOM     14  H   UNL     1       5.082  -3.165   0.002  0.00  0.00    -0.084 HD
ATOM     15  H   UNL     1       4.889  -4.661   0.681  0.00  0.00    -0.084 HD
ENDBRANCH   2   5
BRANCH   1  19
ATOM     16  C   UNL     1      -0.018   1.440   0.010  0.00  0.00    +0.028 A 
ATOM     17  C   UNL     1       1.187   2.043   0.002  0.00  0.00    +0.048 A 
ATOM     18  S   UNL     1       2.328   0.678  -0.017  0.00  0.00    -0.081 S 
ATOM     19  C   UNL     1       1.250  -0.608  -0.013  0.00  0.00    +0.089 A 
ATOM     20  C   UNL     1       0.002  -0.004   0.002  0.00  0.00    +0.080 A 
BRANCH  20  21
ATOM     21  C   UNL     1      -1.206  -0.773   0.010  0.00  0.00    +0.102 C 
ATOM     22  N   UNL     1      -2.164  -1.383   0.016  0.00  0.00    -0.191 NA
ENDBRANCH  20  21
ENDBRANCH   1  19
TORSDOF 3
