REMARK  Name = ZINC31843681
REMARK  12 active torsions:
REMARK  status: ('A' for Active; 'I' for Inactive)
REMARK    1  A    between atoms: C_1  and  C_2
REMARK    2  A    between atoms: C_5  and  N_8
REMARK    3  A    between atoms: C_9  and  C_26
REMARK    4  A    between atoms: C_12  and  S_13
REMARK    5  A    between atoms: S_13  and  C_14
REMARK    6  A    between atoms: C_14  and  C_15
REMARK    7  A    between atoms: N_17  and  C_18
REMARK    8  A    between atoms: N_22  and  C_23
REMARK    9  A    between atoms: C_23  and  C_24
REMARK   10  A    between atoms: C_23  and  C_25
REMARK   11  A    between atoms: C_31  and  O_32
REMARK   12  A    between atoms: O_32  and  C_33
REMARK                            x       y       z     vdW  Elec       q    Type
REMARK                         _______ _______ _______ _____ _____    ______ ____
ROOT
ATOM      1  N   UNL     1      -2.893  -6.089   5.449  0.00  0.00    -0.270 N 
ATOM      2  C   UNL     1      -2.624  -7.269   4.791  0.00  0.00    +0.173 A 
ATOM      3  N   UNL     1      -2.137  -6.951   3.614  0.00  0.00    -0.128 NA
ATOM      4  N   UNL     1      -2.087  -5.673   3.489  0.00  0.00    -0.122 NA
ATOM      5  C   UNL     1      -2.540  -5.093   4.578  0.00  0.00    +0.197 A 
ENDROOT
BRANCH   1  10
ATOM      6  C   UNL     1      -5.027  -5.481  10.673  0.00  0.00    +0.044 C 
ATOM      7  C   UNL     1      -4.460  -5.642   9.286  0.00  0.00    -0.050 A 
ATOM      8  C   UNL     1      -5.201  -5.247   8.188  0.00  0.00    +0.005 A 
ATOM      9  C   UNL     1      -4.684  -5.393   6.915  0.00  0.00    +0.026 A 
ATOM     10  C   UNL     1      -3.420  -5.938   6.740  0.00  0.00    +0.051 A 
ATOM     11  C   UNL     1      -2.680  -6.340   7.844  0.00  0.00    +0.026 A 
ATOM     12  C   UNL     1      -3.200  -6.186   9.114  0.00  0.00    +0.005 A 
ENDBRANCH   1  10
BRANCH   2  13
ATOM     13  C   UNL     1      -2.840  -8.634   5.313  0.00  0.00    +0.061 A 
ATOM     14  C   UNL     1      -4.050  -8.970   5.922  0.00  0.00    +0.015 A 
ATOM     15  C   UNL     1      -4.245 -10.247   6.407  0.00  0.00    +0.001 A 
ATOM     16  C   UNL     1      -3.245 -11.197   6.291  0.00  0.00    +0.004 A 
ATOM     17  C   UNL     1      -2.042 -10.876   5.690  0.00  0.00    +0.046 A 
ATOM     18  C   UNL     1      -1.833  -9.600   5.194  0.00  0.00    +0.131 A 
BRANCH  18  19
ATOM     19  O   UNL     1      -0.653  -9.285   4.598  0.00  0.00    -0.494 OA
ATOM     20  C   UNL     1       0.327 -10.322   4.512  0.00  0.00    +0.277 C 
ENDBRANCH  18  19
ENDBRANCH   2  13
BRANCH   5  21
ATOM     21  S   UNL     1      -2.662  -3.360   4.867  0.00  0.00    -0.076 S 
BRANCH  21  22
ATOM     22  C   UNL     1      -2.013  -2.733   3.297  0.00  0.00    +0.173 C 
BRANCH  22  23
ATOM     23  C   UNL     1      -2.023  -1.227   3.315  0.00  0.00    +0.229 C 
ATOM     24  O   UNL     1      -2.429  -0.634   4.293  0.00  0.00    -0.275 OA
ATOM     25  N   UNL     1      -1.580  -0.537   2.245  0.00  0.00    -0.270 N 
ATOM     26  H   UNL     1      -1.212  -1.074   1.359  0.00  0.00    +0.156 HD
BRANCH  25  27
ATOM     27  C   UNL     1      -1.589   0.858   2.262  0.00  0.00    +0.123 A 
ATOM     28  C   UNL     1      -2.013   1.647   3.287  0.00  0.00    +0.065 A 
ATOM     29  C   UNL     1      -1.859   2.979   2.892  0.00  0.00    +0.136 A 
ATOM     30  N   UNL     1      -1.360   2.995   1.683  0.00  0.00    -0.178 NA
ATOM     31  N   UNL     1      -1.177   1.671   1.263  0.00  0.00    -0.248 N 
BRANCH  31  32
ATOM     32  C   UNL     1      -0.640   1.244  -0.031  0.00  0.00    +0.103 C 
ATOM     33  C   UNL     1       0.778   1.793  -0.202  0.00  0.00    +0.032 C 
ATOM     34  C   UNL     1      -1.532   1.777  -1.155  0.00  0.00    +0.032 C 
ENDBRANCH  31  32
ENDBRANCH  25  27
ENDBRANCH  22  23
ENDBRANCH  21  22
ENDBRANCH   5  21
TORSDOF 8
