REMARK  Name = ZINC42030748
REMARK  6 active torsions:
REMARK  status: ('A' for Active; 'I' for Inactive)
REMARK    1  A    between atoms: C_1  and  C_2
REMARK    2  A    between atoms: C_5  and  C_10
REMARK    3  A    between atoms: N_6  and  C_7
REMARK    4  A    between atoms: C_7  and  C_8
REMARK    5  A    between atoms: C_7  and  C_9
REMARK    6  A    between atoms: C_12  and  N_18
REMARK                            x       y       z     vdW  Elec       q    Type
REMARK                         _______ _______ _______ _____ _____    ______ ____
ROOT
ATOM      1  C   UNL     1      -0.059  -3.475   1.224  0.00  0.00    +0.056 A 
ATOM      2  C   UNL     1      -0.943  -3.617   2.295  0.00  0.00    +0.040 A 
ATOM      3  C   UNL     1      -0.996  -4.813   2.990  0.00  0.00    +0.061 A 
ATOM      4  C   UNL     1      -0.169  -5.870   2.622  0.00  0.00    +0.147 A 
ATOM      5  C   UNL     1       0.709  -5.731   1.561  0.00  0.00    +0.079 A 
ATOM      6  C   UNL     1       0.764  -4.542   0.857  0.00  0.00    +0.137 A 
ATOM      7  F   UNL     1       1.617  -4.411  -0.182  0.00  0.00    -0.205 F 
ATOM      8  F   UNL     1      -0.222  -7.036   3.303  0.00  0.00    -0.203 F 
ENDROOT
BRANCH   1  13
ATOM      9  C   UNL     1       0.204   1.414   0.025  0.00  0.00    +0.088 C 
ATOM     10  C   UNL     1       0.115  -0.089  -0.044  0.00  0.00    +0.131 A 
ATOM     11  N   UNL     1       0.055  -0.810  -1.131  0.00  0.00    -0.134 NA
ATOM     12  N   UNL     1      -0.012  -2.058  -0.830  0.00  0.00    -0.129 NA
ATOM     13  C   UNL     1       0.002  -2.200   0.477  0.00  0.00    +0.167 A 
ATOM     14  N   UNL     1       0.089  -0.944   1.015  0.00  0.00    -0.308 N 
BRANCH  14  15
ATOM     15  C   UNL     1       0.140  -0.593   2.436  0.00  0.00    +0.084 C 
ATOM     16  C   UNL     1       1.366   0.283   2.701  0.00  0.00    +0.030 C 
ATOM     17  C   UNL     1      -1.127   0.175   2.818  0.00  0.00    +0.030 C 
ENDBRANCH  14  15
ENDBRANCH   1  13
BRANCH   3  18
ATOM     18  N   UNL     1      -1.882  -4.959   4.064  0.00  0.00    -0.356 N 
ATOM     19  H   UNL     1      -2.458  -4.223   4.321  0.00  0.00    +0.142 HD
ATOM     20  H   UNL     1      -1.919  -5.797   4.552  0.00  0.00    +0.142 HD
ENDBRANCH   3  18
TORSDOF 3
