REMARK  Name = ZINC06410059
REMARK  9 active torsions:
REMARK  status: ('A' for Active; 'I' for Inactive)
REMARK    1  A    between atoms: C_1  and  C_2
REMARK    2  A    between atoms: C_7  and  C_14
REMARK    3  A    between atoms: C_14  and  C_16
REMARK    4  A    between atoms: C_14  and  N_71
REMARK    5  A    between atoms: N_20  and  C_21
REMARK    6  A    between atoms: C_21  and  C_22
REMARK    7  A    between atoms: N_30  and  C_33
REMARK    8  A    between atoms: C_38  and  O_39
REMARK    9  A    between atoms: O_39  and  C_40
REMARK                            x       y       z     vdW  Elec       q    Type
REMARK                         _______ _______ _______ _____ _____    ______ ____
ROOT
ATOM      1  C   UNL     1      -1.139   2.112  -0.110  0.00  0.00    +0.039 C 
ENDROOT
BRANCH   1   8
ATOM      2  C   UNL     1       6.592   0.318  -0.914  0.00  0.00    +0.044 C 
ATOM      3  C   UNL     1       5.203   0.878  -0.742  0.00  0.00    -0.048 A 
ATOM      4  C   UNL     1       5.030   2.246  -0.579  0.00  0.00    +0.004 A 
ATOM      5  C   UNL     1       3.780   2.774  -0.421  0.00  0.00    +0.010 A 
ATOM      6  C   UNL     1       2.665   1.930  -0.424  0.00  0.00    -0.001 A 
ATOM      7  C   UNL     1       1.311   2.462  -0.259  0.00  0.00    +0.017 A 
ATOM      8  C   UNL     1       0.268   1.596  -0.271  0.00  0.00    +0.011 A 
ATOM      9  C   UNL     1       0.495   0.213  -0.441  0.00  0.00    +0.251 A 
ATOM     10  O   UNL     1      -0.457  -0.548  -0.448  0.00  0.00    -0.268 OA
ATOM     11  N   UNL     1       1.734  -0.285  -0.593  0.00  0.00    -0.322 N 
ATOM     12  H   UNL     1       1.854  -1.241  -0.707  0.00  0.00    +0.169 HD
ATOM     13  C   UNL     1       2.837   0.542  -0.590  0.00  0.00    +0.049 A 
ATOM     14  C   UNL     1       4.119   0.027  -0.748  0.00  0.00    +0.029 A 
ENDBRANCH   1   8
BRANCH   1  20
ATOM     15  C   UNL     1      -1.367   2.084  -2.521  0.00  0.00    -0.058 C 
ATOM     16  C   UNL     1      -2.205   1.530  -3.675  0.00  0.00    +0.086 C 
ATOM     17  N   UNL     1      -3.587   2.015  -3.551  0.00  0.00    -0.331 N 
ATOM     18  C   UNL     1      -4.178   1.593  -2.274  0.00  0.00    +0.086 C 
ATOM     19  C   UNL     1      -3.340   2.148  -1.119  0.00  0.00    -0.058 C 
ATOM     20  N   UNL     1      -1.959   1.634  -1.243  0.00  0.00    +0.391 N 
ATOM     21  H   UNL     1      -1.982   0.608  -1.229  0.00  0.00    -0.080 HD
BRANCH  17  22
ATOM     22  C   UNL     1      -4.368   1.587  -4.631  0.00  0.00    +0.072 A 
ATOM     23  C   UNL     1      -3.870   0.643  -5.518  0.00  0.00    +0.027 A 
ATOM     24  C   UNL     1      -4.643   0.221  -6.583  0.00  0.00    +0.002 A 
ATOM     25  C   UNL     1      -5.912   0.738  -6.768  0.00  0.00    +0.004 A 
ATOM     26  C   UNL     1      -6.415   1.679  -5.888  0.00  0.00    +0.047 A 
ATOM     27  C   UNL     1      -5.649   2.102  -4.815  0.00  0.00    +0.141 A 
BRANCH  27  28
ATOM     28  O   UNL     1      -6.144   3.024  -3.945  0.00  0.00    -0.493 OA
ATOM     29  C   UNL     1      -7.464   3.509  -4.196  0.00  0.00    +0.277 C 
ENDBRANCH  27  28
ENDBRANCH  17  22
ENDBRANCH   1  20
BRANCH   1  30
ATOM     30  C   UNL     1      -1.724   1.583   1.174  0.00  0.00    +0.143 A 
ATOM     31  N   UNL     1      -2.155   0.365   1.394  0.00  0.00    -0.115 NA
ATOM     32  N   UNL     1      -2.577   0.306   2.611  0.00  0.00    -0.023 NA
ATOM     33  N   UNL     1      -2.432   1.457   3.169  0.00  0.00    -0.044 NA
ATOM     34  N   UNL     1      -1.909   2.271   2.316  0.00  0.00    -0.228 N 
BRANCH  34  35
ATOM     35  C   UNL     1      -1.579   3.679   2.547  0.00  0.00    +0.178 C 
BRANCH  35  36
ATOM     36  C   UNL     1      -2.783   4.551   2.183  0.00  0.00    +0.140 C 
ATOM     37  C   UNL     1      -2.407   6.043   2.312  0.00  0.00    +0.035 C 
ATOM     38  C   UNL     1      -3.697   6.656   2.921  0.00  0.00    +0.031 C 
ATOM     39  C   UNL     1      -4.181   5.491   3.821  0.00  0.00    +0.160 C 
ATOM     40  O   UNL     1      -3.861   4.296   3.091  0.00  0.00    -0.375 OA
ENDBRANCH  35  36
ENDBRANCH  34  35
ENDBRANCH   1  30
TORSDOF 7
