REMARK  Name = ZINC06137476
REMARK  17 active torsions:
REMARK  status: ('A' for Active; 'I' for Inactive)
REMARK    1  A    between atoms: C_1  and  C_2
REMARK    2  A    between atoms: C_3  and  C_35
REMARK    3  A    between atoms: C_4  and  C_25
REMARK    4  A    between atoms: C_10  and  C_15
REMARK    5  A    between atoms: C_18  and  O_23
REMARK    6  A    between atoms: C_19  and  O_21
REMARK    7  A    between atoms: O_21  and  C_22
REMARK    8  A    between atoms: O_23  and  C_24
REMARK    9  A    between atoms: C_30  and  O_31
REMARK   10  A    between atoms: O_31  and  C_32
REMARK   11  A    between atoms: C_32  and  C_33
REMARK   12  A    between atoms: C_32  and  C_34
REMARK   13  A    between atoms: C_35  and  O_37
REMARK   14  A    between atoms: O_37  and  C_38
REMARK   15  A    between atoms: C_38  and  C_39
REMARK   16  A    between atoms: C_39  and  O_40
REMARK   17  A    between atoms: O_40  and  C_41
REMARK                            x       y       z     vdW  Elec       q    Type
REMARK                         _______ _______ _______ _____ _____    ______ ____
ROOT
ATOM      1  C   UNL     1      -9.344  -4.439   3.646  0.00  0.00    +0.061 C 
ATOM      2  C   UNL     1      -8.903  -3.956   2.288  0.00  0.00    +0.031 C 
ATOM      3  C   UNL     1      -9.489  -4.447   1.182  0.00  0.00    +0.154 C 
ATOM      4  C   UNL     1      -9.078  -3.989  -0.185  0.00  0.00    +0.077 C 
ATOM      5  C   UNL     1      -7.733  -3.307  -0.147  0.00  0.00    +0.025 C 
ATOM      6  C   UNL     1      -7.223  -2.855   1.017  0.00  0.00    +0.049 C 
ATOM      7  N   UNL     1      -7.910  -3.022   2.189  0.00  0.00    -0.260 NA
ATOM      8  C   UNL     1      -5.886  -2.157   1.060  0.00  0.00    +0.064 C 
ATOM      9  C   UNL     1      -4.981  -2.714  -0.044  0.00  0.00    +0.032 C 
ATOM     10  C   UNL     1      -5.674  -2.505  -1.394  0.00  0.00    +0.088 C 
ATOM     11  C   UNL     1      -7.029  -3.157  -1.355  0.00  0.00    +0.162 C 
ATOM     12  O   UNL     1      -7.523  -3.565  -2.388  0.00  0.00    -0.292 OA
ENDROOT
BRANCH   9  13
ATOM     13  C   UNL     1      -3.663  -1.985  -0.033  0.00  0.00    -0.040 A 
ATOM     14  C   UNL     1      -3.630  -0.616  -0.222  0.00  0.00    +0.008 A 
ATOM     15  C   UNL     1      -2.423   0.058  -0.208  0.00  0.00    +0.049 A 
ATOM     16  C   UNL     1      -1.242  -0.639  -0.015  0.00  0.00    +0.161 A 
ATOM     17  C   UNL     1      -1.275  -2.018   0.176  0.00  0.00    +0.162 A 
ATOM     18  C   UNL     1      -2.488  -2.687   0.166  0.00  0.00    +0.053 A 
BRANCH  17  19
ATOM     19  O   UNL     1      -0.118  -2.706   0.373  0.00  0.00    -0.491 OA
ATOM     20  C   UNL     1      -0.229  -4.118   0.562  0.00  0.00    +0.277 C 
ENDBRANCH  17  19
BRANCH  16  21
ATOM     21  O   UNL     1      -0.053   0.021  -0.005  0.00  0.00    -0.491 OA
ATOM     22  C   UNL     1      -0.096   1.435  -0.208  0.00  0.00    +0.277 C 
ENDBRANCH  16  21
ENDBRANCH   9  13
BRANCH   4  23
ATOM     23  C   UNL     1     -10.108  -3.021  -0.707  0.00  0.00    +0.003 A 
ATOM     24  C   UNL     1     -10.392  -1.866  -0.004  0.00  0.00    +0.008 A 
ATOM     25  C   UNL     1     -11.333  -0.975  -0.484  0.00  0.00    +0.001 A 
ATOM     26  C   UNL     1     -12.001  -1.242  -1.665  0.00  0.00    +0.004 A 
ATOM     27  C   UNL     1     -11.726  -2.398  -2.370  0.00  0.00    +0.046 A 
ATOM     28  C   UNL     1     -10.777  -3.291  -1.892  0.00  0.00    +0.125 A 
BRANCH  28  29
ATOM     29  O   UNL     1     -10.504  -4.428  -2.584  0.00  0.00    -0.489 OA
BRANCH  29  30
ATOM     30  C   UNL     1     -11.141  -4.584  -3.854  0.00  0.00    +0.167 C 
ATOM     31  C   UNL     1     -10.307  -5.519  -4.731  0.00  0.00    +0.051 C 
ATOM     32  C   UNL     1     -12.536  -5.180  -3.655  0.00  0.00    +0.051 C 
ENDBRANCH  29  30
ENDBRANCH  28  29
ENDBRANCH   4  23
BRANCH   3  33
ATOM     33  C   UNL     1     -10.510  -5.418   1.310  0.00  0.00    +0.317 C 
ATOM     34  O   UNL     1     -10.260  -6.593   1.119  0.00  0.00    -0.250 OA
BRANCH  33  35
ATOM     35  O   UNL     1     -11.761  -5.040   1.645  0.00  0.00    -0.462 OA
BRANCH  35  36
ATOM     36  C   UNL     1     -12.715  -6.080   1.869  0.00  0.00    +0.260 C 
BRANCH  36  37
ATOM     37  C   UNL     1     -14.093  -5.463   2.121  0.00  0.00    +0.200 C 
BRANCH  37  38
ATOM     38  O   UNL     1     -14.536  -4.789   0.942  0.00  0.00    -0.380 OA
ATOM     39  C   UNL     1     -15.767  -4.082   1.104  0.00  0.00    +0.194 C 
ENDBRANCH  37  38
ENDBRANCH  36  37
ENDBRANCH  35  36
ENDBRANCH  33  35
ENDBRANCH   3  33
TORSDOF 11
