REMARK  Name = ZINC35390171
REMARK  7 active torsions:
REMARK  status: ('A' for Active; 'I' for Inactive)
REMARK    1  A    between atoms: C_1  and  C_2
REMARK    2  A    between atoms: C_2  and  C_3
REMARK    3  A    between atoms: C_2  and  C_4
REMARK    4  A    between atoms: C_2  and  CA_5
REMARK    5  A    between atoms: CA_5  and  C_7
REMARK    6  A    between atoms: CA_5  and  N_10
REMARK    7  A    between atoms: C_11  and  CA_13
REMARK                            x       y       z     vdW  Elec       q    Type
REMARK                         _______ _______ _______ _____ _____    ______ ____
ROOT
ATOM      1  N   UNL     1       0.010  -0.012  -2.444  0.00  0.00    -0.297 N 
ATOM      2  C   UNL     1       0.111  -0.681  -3.609  0.00  0.00    +0.261 C 
ATOM      3  O   UNL     1       0.790  -1.689  -3.676  0.00  0.00    -0.269 OA
ATOM      4  H   UNL     1      -0.532   0.791  -2.391  0.00  0.00    +0.150 HD
ENDROOT
BRANCH   2   5
ATOM      5  CA  UNL     1      -0.599  -0.195  -4.798  0.00  0.00    +0.103 A 
ATOM      6  C   UNL     1      -0.591  -0.779  -6.047  0.00  0.00    +0.052 A 
ATOM      7  C   UNL     1      -1.397   0.010  -6.875  0.00  0.00    +0.059 A 
ATOM      8  C   UNL     1      -1.872   1.039  -6.133  0.00  0.00    +0.103 A 
ATOM      9  N   UNL     1      -1.398   0.923  -4.867  0.00  0.00    -0.356 N 
ATOM     10  H   UNL     1      -1.589   1.528  -4.133  0.00  0.00    +0.166 HD
ATOM     11 CL   UNL     1      -1.728  -0.278  -8.554  0.00  0.00    -0.082 Cl
ENDBRANCH   2   5
BRANCH   1  12
ATOM     12  CA  UNL     1       0.718  -0.497  -1.257  0.00  0.00    +0.192 C 
BRANCH  12  14
ATOM     13  C   UNL     1      -0.019   1.526   0.010  0.00  0.00    +0.013 C 
ATOM     14  C   UNL     1       0.002  -0.004   0.002  0.00  0.00    -0.009 C 
ATOM     15  C   UNL     1       0.742  -0.511   1.242  0.00  0.00    +0.013 C 
ATOM     16  C   UNL     1      -1.433  -0.534   0.013  0.00  0.00    +0.013 C 
ENDBRANCH  12  14
BRANCH  12  17
ATOM     17  C   UNL     1       2.132   0.024  -1.268  0.00  0.00    +0.376 C 
ATOM     18  O   UNL     1       3.025  -0.626  -0.751  0.00  0.00    -0.244 OA
ATOM     19  OXT UNL     1       2.382   1.096  -1.792  0.00  0.00    -0.244 OA
ENDBRANCH  12  17
ENDBRANCH   1  12
TORSDOF 4
