REMARK  Name = ZINC66921488
REMARK  6 active torsions:
REMARK  status: ('A' for Active; 'I' for Inactive)
REMARK    1  A    between atoms: C_1  and  C_2
REMARK    2  A    between atoms: C_7  and  C_11
REMARK    3  A    between atoms: C_11  and  N_12
REMARK    4  A    between atoms: C_13  and  C_15
REMARK    5  A    between atoms: N_20  and  C_21
REMARK    6  A    between atoms: C_21  and  C_22
REMARK                            x       y       z     vdW  Elec       q    Type
REMARK                         _______ _______ _______ _____ _____    ______ ____
ROOT
ATOM      1  N   UNL     1       1.471  -5.968   2.492  0.00  0.00    -0.311 N 
ATOM      2  C   UNL     1       1.735  -7.130   3.123  0.00  0.00    +0.200 C 
ATOM      3  O   UNL     1       0.827  -7.790   3.583  0.00  0.00    -0.278 OA
ATOM      4  H   UNL     1       2.197  -5.441   2.124  0.00  0.00    +0.149 HD
ENDROOT
BRANCH   2   5
ATOM      5  C   UNL     1       3.158  -7.609   3.255  0.00  0.00    +0.020 C 
ATOM      6  C   UNL     1       3.980  -6.592   4.074  0.00  0.00    -0.008 C 
ATOM      7  C   UNL     1       3.956  -7.195   5.504  0.00  0.00    -0.020 C 
ATOM      8  C   UNL     1       4.011  -8.713   5.204  0.00  0.00    -0.077 C 
ATOM      9  N   UNL     1       3.189  -8.890   3.984  0.00  0.00    +0.390 N 
ATOM     10  H   UNL     1       2.251  -9.158   4.242  0.00  0.00    -0.080 HD
BRANCH   9  11
ATOM     11  C   UNL     1       3.782  -9.930   3.132  0.00  0.00    -0.042 C 
BRANCH  11  12
ATOM     12  C   UNL     1       3.701 -11.261   3.833  0.00  0.00    -0.064 A 
ATOM     13  C   UNL     1       4.730 -11.671   4.660  0.00  0.00    +0.002 A 
ATOM     14  C   UNL     1       4.655 -12.892   5.303  0.00  0.00    +0.000 A 
ATOM     15  C   UNL     1       3.551 -13.704   5.120  0.00  0.00    +0.000 A 
ATOM     16  C   UNL     1       2.522 -13.294   4.294  0.00  0.00    +0.000 A 
ATOM     17  C   UNL     1       2.594 -12.070   3.654  0.00  0.00    +0.002 A 
ENDBRANCH  11  12
ENDBRANCH   9  11
ENDBRANCH   2   5
BRANCH   1  18
ATOM     18  C   UNL     1       0.088  -5.503   2.364  0.00  0.00    +0.159 C 
BRANCH  18  25
ATOM     19  C   UNL     1      -0.018   1.503   0.010  0.00  0.00    +0.045 C 
ATOM     20  C   UNL     1       0.002  -0.004   0.002  0.00  0.00    -0.034 A 
ATOM     21  C   UNL     1       0.006  -0.697  -1.220  0.00  0.00    +0.008 A 
ATOM     22  C   UNL     1       0.025  -2.057  -1.224  0.00  0.00    +0.045 A 
ATOM     23  C   UNL     1       0.040  -2.750   0.003  0.00  0.00    +0.115 A 
ATOM     24  N   UNL     1       0.059  -4.043   0.297  0.00  0.00    -0.342 N 
ATOM     25  C   UNL     1       0.067  -4.189   1.625  0.00  0.00    +0.051 A 
ATOM     26  C   UNL     1       0.053  -2.964   2.194  0.00  0.00    +0.115 A 
ATOM     27  N   UNL     1       0.036  -2.047   1.179  0.00  0.00    -0.308 N 
ATOM     28  C   UNL     1       0.022  -0.682   1.169  0.00  0.00    +0.096 A 
ATOM     29  H   UNL     1       0.066  -4.766  -0.348  0.00  0.00    +0.167 HD
ENDBRANCH  18  25
ENDBRANCH   1  18
TORSDOF 5
