REMARK  Name = ZINC63161046
REMARK  6 active torsions:
REMARK  status: ('A' for Active; 'I' for Inactive)
REMARK    1  A    between atoms: C_7  and  C_10
REMARK    2  A    between atoms: C_10  and  C_12
REMARK    3  A    between atoms: C_10  and  C_29
REMARK    4  A    between atoms: C_12  and  N_13
REMARK    5  A    between atoms: C_14  and  C_16
REMARK    6  A    between atoms: C_22  and  C_24
REMARK                            x       y       z     vdW  Elec       q    Type
REMARK                         _______ _______ _______ _____ _____    ______ ____
ROOT
ATOM      1  C   UNL     1       0.239  -2.271   0.844  0.00  0.00    +0.066 C 
ENDROOT
BRANCH   1   8
ATOM      2  C   UNL     1      -1.281   2.058   0.779  0.00  0.00    +0.001 A 
ATOM      3  C   UNL     1      -0.271   3.012   0.969  0.00  0.00    +0.002 A 
ATOM      4  C   UNL     1       1.024   2.676   1.154  0.00  0.00    +0.026 A 
ATOM      5  C   UNL     1       1.418   1.309   1.161  0.00  0.00    +0.043 A 
ATOM      6  N   UNL     1       2.588   0.739   1.317  0.00  0.00    -0.380 N 
ATOM      7  C   UNL     1       2.414  -0.716   1.234  0.00  0.00    +0.145 C 
ATOM      8  C   UNL     1       0.937  -0.944   1.001  0.00  0.00    -0.033 C 
ATOM      9  C   UNL     1       0.369   0.283   0.963  0.00  0.00    -0.000 A 
ATOM     10  C   UNL     1      -1.014   0.733   0.769  0.00  0.00    +0.010 A 
ATOM     11  H   UNL     1       3.428   1.201   1.462  0.00  0.00    +0.160 HD
ENDBRANCH   1   8
BRANCH   1  12
ATOM     12  C   UNL     1       0.812  -3.002  -0.343  0.00  0.00    -0.020 A 
ATOM     13  C   UNL     1       2.155  -3.330  -0.371  0.00  0.00    +0.006 A 
ATOM     14  C   UNL     1       2.680  -4.001  -1.459  0.00  0.00    +0.000 A 
ATOM     15  C   UNL     1       1.864  -4.343  -2.521  0.00  0.00    +0.001 A 
ATOM     16  C   UNL     1       0.522  -4.014  -2.495  0.00  0.00    +0.020 A 
ATOM     17  C   UNL     1      -0.006  -3.348  -1.403  0.00  0.00    +0.045 A 
ATOM     18 CL   UNL     1      -1.693  -2.942  -1.367  0.00  0.00    -0.083 Cl
ENDBRANCH   1  12
BRANCH   1  19
ATOM     19  C   UNL     1       0.446  -3.109   2.107  0.00  0.00    +0.116 C 
BRANCH  19  20
ATOM     20  N   UNL     1      -0.330  -4.348   2.003  0.00  0.00    -0.314 N 
ATOM     21  C   UNL     1      -0.301  -5.247   3.006  0.00  0.00    +0.216 C 
ATOM     22  O   UNL     1       0.366  -5.030   3.996  0.00  0.00    -0.276 OA
ATOM     23  H   UNL     1      -0.864  -4.521   1.212  0.00  0.00    +0.149 HD
BRANCH  21  24
ATOM     24  C   UNL     1      -1.099  -6.521   2.900  0.00  0.00    +0.078 C 
ATOM     25  C   UNL     1      -2.583  -6.181   2.747  0.00  0.00    +0.032 C 
ATOM     26  C   UNL     1      -3.387  -7.478   2.604  0.00  0.00    +0.109 C 
ATOM     27  N   UNL     1      -3.082  -8.352   3.745  0.00  0.00    -0.295 N 
ATOM     28  C   UNL     1      -1.677  -8.668   4.037  0.00  0.00    +0.109 C 
ATOM     29  C   UNL     1      -0.892  -7.359   4.163  0.00  0.00    +0.032 C 
ATOM     30  C   UNL     1      -4.072  -8.853   4.511  0.00  0.00    +0.282 C 
ATOM     31  O   UNL     1      -5.218  -8.481   4.343  0.00  0.00    -0.267 OA
BRANCH  30  32
ATOM     32  C   UNL     1      -3.767  -9.847   5.545  0.00  0.00    +0.189 A 
ATOM     33  C   UNL     1      -4.640 -10.325   6.480  0.00  0.00    +0.054 A 
ATOM     34  C   UNL     1      -3.929 -11.251   7.260  0.00  0.00    +0.042 A 
ATOM     35  C   UNL     1      -2.669 -11.296   6.772  0.00  0.00    +0.196 A 
ATOM     36  O   UNL     1      -2.577 -10.453   5.736  0.00  0.00    -0.458 OA
ENDBRANCH  30  32
ENDBRANCH  21  24
ENDBRANCH  19  20
ENDBRANCH   1  19
TORSDOF 6
