REMARK  Name = ZINC15971860
REMARK  9 active torsions:
REMARK  status: ('A' for Active; 'I' for Inactive)
REMARK    1  A    between atoms: C_1  and  C_2
REMARK    2  A    between atoms: C_9  and  C_18
REMARK    3  A    between atoms: C_12  and  C_14
REMARK    4  A    between atoms: C_14  and  C_15
REMARK    5  A    between atoms: C_15  and  S_16
REMARK    6  A    between atoms: S_16  and  C_17
REMARK    7  A    between atoms: N_20  and  C_21
REMARK    8  A    between atoms: C_24  and  O_27
REMARK    9  A    between atoms: O_27  and  C_28
REMARK                            x       y       z     vdW  Elec       q    Type
REMARK                         _______ _______ _______ _____ _____    ______ ____
ROOT
ATOM      1  C   UNL     1       3.669   2.280  -0.062  0.00  0.00    +0.044 C 
ATOM      2  C   UNL     1       2.388   1.486  -0.046  0.00  0.00    -0.050 A 
ATOM      3  C   UNL     1       2.429   0.104  -0.052  0.00  0.00    +0.005 A 
ATOM      4  C   UNL     1       1.259  -0.628  -0.038  0.00  0.00    +0.024 A 
ATOM      5  C   UNL     1       0.027   0.022  -0.017  0.00  0.00    +0.036 A 
ATOM      6  C   UNL     1      -0.001   1.413  -0.010  0.00  0.00    -0.027 A 
ATOM      7  C   UNL     1       1.168   2.139  -0.025  0.00  0.00    +0.008 A 
ATOM      8  C   UNL     1      -1.456   1.798   0.020  0.00  0.00    +0.049 C 
ATOM      9  C   UNL     1      -1.830   2.636  -1.208  0.00  0.00    +0.076 C 
ATOM     10  C   UNL     1      -2.358   3.971  -0.630  0.00  0.00    -0.004 C 
ATOM     11  C   UNL     1      -1.727   4.011   0.785  0.00  0.00    -0.068 C 
ATOM     12  C   UNL     1      -2.201   0.488   0.018  0.00  0.00    +0.211 C 
ATOM     13  O   UNL     1      -3.405   0.340   0.033  0.00  0.00    -0.277 OA
ATOM     14  N   UNL     1      -1.273  -0.487  -0.001  0.00  0.00    -0.286 N 
ATOM     15  H   UNL     1      -1.483  -1.434  -0.003  0.00  0.00    +0.155 HD
ATOM     16  N   UNL     1      -1.766   2.599   1.196  0.00  0.00    +0.394 N 
ATOM     17  H   UNL     1      -1.069   2.428   1.931  0.00  0.00    -0.083 HD
ATOM     18  H   UNL     1      -2.700   2.360   1.547  0.00  0.00    -0.083 HD
ENDROOT
BRANCH   9  19
ATOM     19  C   UNL     1      -2.907   1.947  -2.005  0.00  0.00    +0.220 C 
ATOM     20  O   UNL     1      -4.073   2.101  -1.709  0.00  0.00    -0.275 OA
ATOM     21  N   UNL     1      -2.575   1.159  -3.047  0.00  0.00    -0.285 N 
ATOM     22  H   UNL     1      -1.642   0.972  -3.235  0.00  0.00    +0.155 HD
BRANCH  21  23
ATOM     23  C   UNL     1      -3.577   0.611  -3.858  0.00  0.00    +0.034 A 
ATOM     24  C   UNL     1      -3.410  -0.653  -4.410  0.00  0.00    +0.027 A 
ATOM     25  C   UNL     1      -4.401  -1.195  -5.204  0.00  0.00    +0.047 A 
ATOM     26  C   UNL     1      -5.557  -0.474  -5.460  0.00  0.00    +0.120 A 
ATOM     27  C   UNL     1      -5.723   0.790  -4.914  0.00  0.00    +0.047 A 
ATOM     28  C   UNL     1      -4.735   1.332  -4.115  0.00  0.00    +0.027 A 
BRANCH  26  29
ATOM     29  O   UNL     1      -6.530  -1.006  -6.247  0.00  0.00    -0.495 OA
ATOM     30  C   UNL     1      -6.293  -2.313  -6.777  0.00  0.00    +0.277 C 
ENDBRANCH  26  29
ENDBRANCH  21  23
ENDBRANCH   9  19
BRANCH  11  31
ATOM     31  C   UNL     1      -2.557   4.888   1.725  0.00  0.00    -0.005 C 
BRANCH  31  32
ATOM     32  C   UNL     1      -1.902   4.915   3.108  0.00  0.00    +0.067 C 
BRANCH  32  33
ATOM     33  S   UNL     1      -2.885   5.955   4.222  0.00  0.00    -0.164 S 
ATOM     34  C   UNL     1      -1.987   5.883   5.796  0.00  0.00    +0.084 C 
ENDBRANCH  32  33
ENDBRANCH  31  32
ENDBRANCH  11  31
TORSDOF 6
