REMARK  Name = ZINC62664871
REMARK  3 active torsions:
REMARK  status: ('A' for Active; 'I' for Inactive)
REMARK    1  A    between atoms: C_1  and  C_2
REMARK    2  A    between atoms: C_7  and  C_8
REMARK    3  A    between atoms: C_8  and  C_10
REMARK                            x       y       z     vdW  Elec       q    Type
REMARK                         _______ _______ _______ _____ _____    ______ ____
ROOT
ATOM      1  C   UNL     1       0.155  -0.997   3.799  0.00  0.00    +0.038 A 
ATOM      2  C   UNL     1       0.453  -2.357   3.678  0.00  0.00    +0.040 A 
ATOM      3  C   UNL     1       0.618  -3.126   4.814  0.00  0.00    +0.068 A 
ATOM      4  C   UNL     1       0.486  -2.543   6.080  0.00  0.00    +0.068 A 
ATOM      5  C   UNL     1       0.189  -1.191   6.198  0.00  0.00    +0.043 A 
ATOM      6  C   UNL     1       0.030  -0.419   5.068  0.00  0.00    +0.031 A 
ATOM      7 BR   UNL     1      -0.365   1.423   5.231  0.00  0.00    -0.049 Br
ATOM      8  N   UNL     1       0.703  -3.551   7.010  0.00  0.00    -0.306 N 
ATOM      9  H   UNL     1       0.677  -3.447   7.974  0.00  0.00    +0.170 HD
ATOM     10  C   UNL     1       0.956  -4.695   6.349  0.00  0.00    +0.325 A 
ATOM     11  O   UNL     1       1.190  -5.769   6.871  0.00  0.00    -0.247 OA
ATOM     12  N   UNL     1       0.912  -4.473   5.021  0.00  0.00    -0.306 N 
ATOM     13  H   UNL     1       1.058  -5.136   4.329  0.00  0.00    +0.170 HD
ENDROOT
BRANCH   1  14
ATOM     14  C   UNL     1      -0.022  -0.171   2.590  0.00  0.00    +0.195 C 
ATOM     15  O   UNL     1      -0.186   1.030   2.694  0.00  0.00    -0.287 OA
BRANCH  14  22
ATOM     16  C   UNL     1       2.505  -0.968   1.429  0.00  0.00    +0.044 C 
ATOM     17  C   UNL     1       1.215  -1.190   0.683  0.00  0.00    -0.039 A 
ATOM     18  C   UNL     1       1.230  -1.784  -0.562  0.00  0.00    +0.007 A 
ATOM     19  C   UNL     1       0.047  -1.988  -1.250  0.00  0.00    +0.038 A 
ATOM     20  C   UNL     1      -1.161  -1.600  -0.692  0.00  0.00    +0.124 A 
ATOM     21  C   UNL     1      -1.190  -1.005   0.554  0.00  0.00    +0.050 A 
ATOM     22  C   UNL     1       0.001  -0.801   1.254  0.00  0.00    +0.028 A 
ATOM     23  F   UNL     1      -2.313  -1.803  -1.369  0.00  0.00    -0.205 F 
ENDBRANCH  14  22
ENDBRANCH   1  14
TORSDOF 2
