REMARK  Name = ZINC15231311
REMARK  11 active torsions:
REMARK  status: ('A' for Active; 'I' for Inactive)
REMARK    1  A    between atoms: C_1  and  O_2
REMARK    2  A    between atoms: O_2  and  C_3
REMARK    3  A    between atoms: C_6  and  C_12
REMARK    4  A    between atoms: C_8  and  N_9
REMARK    5  A    between atoms: N_13  and  N_14
REMARK    6  A    between atoms: C_15  and  C_17
REMARK    7  A    between atoms: C_17  and  N_18
REMARK    8  A    between atoms: N_18  and  C_19
REMARK    9  A    between atoms: N_18  and  S_30
REMARK   10  A    between atoms: C_23  and  C_25
REMARK   11  A    between atoms: S_30  and  C_33
REMARK                            x       y       z     vdW  Elec       q    Type
REMARK                         _______ _______ _______ _____ _____    ______ ____
ROOT
ATOM      1  N   UNL     1      -1.246   5.393   2.226  0.00  0.00    -0.206 N 
ATOM      2  C   UNL     1      -1.376   4.149   1.722  0.00  0.00    +0.251 C 
ATOM      3  O   UNL     1      -2.279   3.897   0.953  0.00  0.00    -0.272 OA
ATOM      4  H   UNL     1      -0.524   5.594   2.841  0.00  0.00    +0.177 HD
ENDROOT
BRANCH   1   6
ATOM      5  C   UNL     1      -2.031   7.591   2.346  0.00  0.00    +0.138 C 
ATOM      6  N   UNL     1      -2.156   6.394   1.861  0.00  0.00    -0.188 NA
BRANCH   5  10
ATOM      7  C   UNL     1      -4.787  10.626   1.242  0.00  0.00    +0.150 A 
ATOM      8  C   UNL     1      -4.922   9.345   0.721  0.00  0.00    +0.048 A 
ATOM      9  C   UNL     1      -4.027   8.358   1.073  0.00  0.00    +0.013 A 
ATOM     10  C   UNL     1      -2.989   8.645   1.963  0.00  0.00    -0.003 A 
ATOM     11  C   UNL     1      -2.857   9.935   2.484  0.00  0.00    +0.046 A 
ATOM     12  C   UNL     1      -3.753  10.917   2.122  0.00  0.00    +0.168 A 
BRANCH  12  13
ATOM     13  N   UNL     1      -3.615  12.284   2.674  0.00  0.00    +0.060 N 
ATOM     14  O   UNL     1      -2.709  12.540   3.446  0.00  0.00    -0.126 OA
ATOM     15  O   UNL     1      -4.407  13.152   2.355  0.00  0.00    -0.126 OA
ENDBRANCH  12  13
BRANCH   7  17
ATOM     16  C   UNL     1      -6.708  11.230  -0.021  0.00  0.00    +0.277 C 
ATOM     17  O   UNL     1      -5.669  11.597   0.888  0.00  0.00    -0.493 OA
ENDBRANCH   7  17
ENDBRANCH   5  10
ENDBRANCH   1   6
BRANCH   2  18
ATOM     18  C   UNL     1      -0.397   3.072   2.115  0.00  0.00    +0.228 C 
BRANCH  18  19
ATOM     19  N   UNL     1      -0.751   1.822   1.438  0.00  0.00    -0.199 N 
BRANCH  19  20
ATOM     20  C   UNL     1      -1.707   0.970   1.998  0.00  0.00    +0.052 A 
ATOM     21  C   UNL     1      -2.426   0.102   1.187  0.00  0.00    +0.026 A 
ATOM     22  C   UNL     1      -3.366  -0.743   1.744  0.00  0.00    +0.022 A 
ATOM     23  C   UNL     1      -3.601  -0.716   3.108  0.00  0.00    +0.053 A 
ATOM     24  C   UNL     1      -2.890   0.153   3.917  0.00  0.00    +0.075 A 
ATOM     25  C   UNL     1      -1.944   0.995   3.366  0.00  0.00    +0.038 A 
ATOM     26 CL   UNL     1      -4.789  -1.773   3.804  0.00  0.00    -0.083 Cl
BRANCH  24  27
ATOM     27  C   UNL     1      -3.148   0.178   5.402  0.00  0.00    +0.419 C 
ATOM     28  F   UNL     1      -2.315   1.128   6.003  0.00  0.00    -0.166 F 
ATOM     29  F   UNL     1      -4.485   0.515   5.637  0.00  0.00    -0.166 F 
ATOM     30  F   UNL     1      -2.882  -1.084   5.944  0.00  0.00    -0.166 F 
ENDBRANCH  24  27
ENDBRANCH  19  20
BRANCH  19  31
ATOM     31  S   UNL     1      -0.017   1.417   0.010  0.00  0.00    +0.043 S 
ATOM     32  O   UNL     1       0.002  -0.004   0.002  0.00  0.00    -0.155 OA
ATOM     33  O   UNL     1       1.195   2.158   0.002  0.00  0.00    -0.155 OA
ATOM     34  C   UNL     1      -1.135   2.034  -1.279  0.00  0.00    +0.218 C 
ENDBRANCH  19  31
ENDBRANCH  18  19
ENDBRANCH   2  18
TORSDOF 9
