REMARK  Name = ZINC13831070
REMARK  4 active torsions:
REMARK  status: ('A' for Active; 'I' for Inactive)
REMARK    1  A    between atoms: C_6  and  C_7
REMARK    2  A    between atoms: C_10  and  C_24
REMARK    3  A    between atoms: C_13  and  C_15
REMARK    4  A    between atoms: C_29  and  O_30
REMARK                            x       y       z     vdW  Elec       q    Type
REMARK                         _______ _______ _______ _____ _____    ______ ____
ROOT
ATOM      1  C   UNL     1      -1.293  -0.775   0.011  0.00  0.00    +0.081 C 
ATOM      2  N   UNL     1      -1.097  -2.056  -0.677  0.00  0.00    +0.401 N 
ATOM      3  C   UNL     1      -0.860  -1.798  -2.107  0.00  0.00    -0.028 C 
ATOM      4  C   UNL     1      -2.161  -1.274  -2.723  0.00  0.00    +0.044 C 
ATOM      5  C   UNL     1      -2.721  -0.184  -1.851  0.00  0.00    +0.040 C 
ATOM      6  N   UNL     1      -2.325   0.014  -0.649  0.00  0.00    -0.299 NA
ATOM      7  H   UNL     1      -0.299  -2.532  -0.283  0.00  0.00    -0.081 HD
ATOM      8  H   UNL     1      -1.921  -2.627  -0.569  0.00  0.00    -0.081 HD
ENDROOT
BRANCH   5   9
ATOM      9  C   UNL     1      -3.769   0.694  -2.404  0.00  0.00    -0.001 A 
ATOM     10  C   UNL     1      -4.227   0.502  -3.710  0.00  0.00    +0.013 A 
ATOM     11  C   UNL     1      -5.207   1.323  -4.224  0.00  0.00    +0.050 A 
ATOM     12  C   UNL     1      -5.742   2.343  -3.449  0.00  0.00    +0.166 A 
ATOM     13  C   UNL     1      -5.288   2.541  -2.144  0.00  0.00    +0.167 A 
ATOM     14  C   UNL     1      -4.310   1.717  -1.621  0.00  0.00    +0.059 A 
ATOM     15  O   UNL     1      -5.966   3.595  -1.603  0.00  0.00    -0.453 OA
ATOM     16  C   UNL     1      -6.542   4.296  -2.721  0.00  0.00    +0.466 C 
ATOM     17  O   UNL     1      -6.702   3.273  -3.721  0.00  0.00    -0.453 OA
ENDBRANCH   5   9
BRANCH   1  23
ATOM     18  C   UNL     1      -0.017   1.378   0.010  0.00  0.00    +0.005 A 
ATOM     19  C   UNL     1       1.171   2.086   0.002  0.00  0.00    +0.020 A 
ATOM     20  C   UNL     1       2.378   1.410  -0.013  0.00  0.00    +0.041 A 
ATOM     21  C   UNL     1       2.396   0.027  -0.021  0.00  0.00    +0.020 A 
ATOM     22  C   UNL     1       1.208  -0.679  -0.013  0.00  0.00    +0.005 A 
ATOM     23  C   UNL     1       0.002  -0.004   0.002  0.00  0.00    -0.040 A 
ATOM     24 CL   UNL     1       3.870   2.298  -0.023  0.00  0.00    -0.084 Cl
ENDBRANCH   1  23
BRANCH   3  25
ATOM     25  C   UNL     1      -0.452  -3.077  -2.793  0.00  0.00    -0.018 A 
ATOM     26  C   UNL     1      -0.834  -4.296  -2.267  0.00  0.00    +0.020 A 
ATOM     27  C   UNL     1      -0.460  -5.470  -2.896  0.00  0.00    +0.018 A 
ATOM     28  C   UNL     1       0.298  -5.426  -4.052  0.00  0.00    +0.019 A 
ATOM     29  C   UNL     1       0.683  -4.209  -4.582  0.00  0.00    +0.047 A 
ATOM     30  C   UNL     1       0.304  -3.030  -3.955  0.00  0.00    +0.119 A 
ATOM     31 BR   UNL     1      -0.985  -7.137  -2.174  0.00  0.00    -0.050 Br
BRANCH  30  32
ATOM     32  O   UNL     1       0.677  -1.832  -4.477  0.00  0.00    -0.507 OA
ATOM     33  H   UNL     1       1.526  -1.507  -4.147  0.00  0.00    +0.292 HD
ENDBRANCH  30  32
ENDBRANCH   3  25
TORSDOF 4
