REMARK  Name = ZINC14471776
REMARK  7 active torsions:
REMARK  status: ('A' for Active; 'I' for Inactive)
REMARK    1  A    between atoms: C_1  and  C_2
REMARK    2  A    between atoms: C_4  and  C_37
REMARK    3  A    between atoms: C_6  and  N_8
REMARK    4  A    between atoms: N_8  and  S_9
REMARK    5  A    between atoms: S_9  and  C_12
REMARK    6  A    between atoms: C_25  and  C_28
REMARK    7  A    between atoms: C_32  and  N_34
REMARK                            x       y       z     vdW  Elec       q    Type
REMARK                         _______ _______ _______ _____ _____    ______ ____
ROOT
ATOM      1  C   UNL     1      -1.086  -1.924  -0.929  0.00  0.00    +0.109 A 
ATOM      2  C   UNL     1       0.020  -2.336  -0.209  0.00  0.00    +0.030 A 
ATOM      3  C   UNL     1       0.911  -1.405   0.285  0.00  0.00    +0.025 A 
ATOM      4  C   UNL     1       0.705  -0.049   0.063  0.00  0.00    +0.031 A 
ATOM      5  C   UNL     1      -0.422   0.361  -0.658  0.00  0.00    -0.018 A 
ATOM      6  C   UNL     1      -1.304  -0.577  -1.151  0.00  0.00    +0.034 A 
ATOM      7  C   UNL     1      -0.615   1.814  -0.855  0.00  0.00    +0.049 C 
ATOM      8  C   UNL     1      -1.371   2.355  -2.014  0.00  0.00    -0.023 C 
ATOM      9  C   UNL     1      -0.862   3.537  -2.337  0.00  0.00    -0.030 C 
ATOM     10  C   UNL     1       0.319   3.866  -1.422  0.00  0.00    +0.033 C 
ATOM     11  C   UNL     1       0.792   2.465  -1.012  0.00  0.00    +0.029 C 
ATOM     12  C   UNL     1       1.454   2.328   0.347  0.00  0.00    +0.105 C 
ATOM     13  N   UNL     1       1.634   0.875   0.557  0.00  0.00    -0.336 N 
ATOM     14  H   UNL     1       2.410   0.556   1.045  0.00  0.00    +0.147 HD
ENDROOT
BRANCH  12  15
ATOM     15  C   UNL     1       2.791   3.023   0.347  0.00  0.00    -0.025 A 
ATOM     16  C   UNL     1       3.878   2.433  -0.270  0.00  0.00    +0.005 A 
ATOM     17  C   UNL     1       5.103   3.072  -0.274  0.00  0.00    +0.003 A 
ATOM     18  C   UNL     1       5.244   4.299   0.348  0.00  0.00    +0.033 A 
ATOM     19  C   UNL     1       4.159   4.888   0.970  0.00  0.00    +0.127 A 
ATOM     20  C   UNL     1       2.932   4.250   0.970  0.00  0.00    +0.038 A 
BRANCH  19  21
ATOM     21  N   UNL     1       4.310   6.201   1.635  0.00  0.00    +0.056 N 
ATOM     22  O   UNL     1       3.353   6.720   2.183  0.00  0.00    -0.126 OA
ATOM     23  O   UNL     1       5.390   6.763   1.635  0.00  0.00    -0.126 OA
ENDBRANCH  19  21
ENDBRANCH  12  15
BRANCH   1  24
ATOM     24  S   UNL     1      -2.218  -3.116  -1.564  0.00  0.00    +0.072 S 
ATOM     25  O   UNL     1      -2.963  -2.465  -2.584  0.00  0.00    -0.150 OA
ATOM     26  O   UNL     1      -1.470  -4.299  -1.804  0.00  0.00    -0.150 OA
BRANCH  24  27
ATOM     27  N   UNL     1      -3.288  -3.470  -0.350  0.00  0.00    -0.216 N 
ATOM     28  H   UNL     1      -3.328  -4.368   0.014  0.00  0.00    +0.174 HD
BRANCH  27  34
ATOM     29  C   UNL     1      -4.452  -0.320   3.239  0.00  0.00    +0.044 C 
ATOM     30  C   UNL     1      -4.720  -0.930   1.887  0.00  0.00    -0.048 A 
ATOM     31  C   UNL     1      -5.803  -0.505   1.140  0.00  0.00    +0.006 A 
ATOM     32  C   UNL     1      -6.053  -1.063  -0.101  0.00  0.00    -0.048 A 
ATOM     33  C   UNL     1      -5.221  -2.046  -0.598  0.00  0.00    +0.028 A 
ATOM     34  C   UNL     1      -4.131  -2.475   0.150  0.00  0.00    +0.049 A 
ATOM     35  C   UNL     1      -3.886  -1.917   1.398  0.00  0.00    +0.028 A 
ATOM     36  C   UNL     1      -7.236  -0.597  -0.911  0.00  0.00    +0.044 C 
ENDBRANCH  27  34
ENDBRANCH  24  27
ENDBRANCH   1  24
TORSDOF 5
