REMARK  Name = ZINC44243725
REMARK  4 active torsions:
REMARK  status: ('A' for Active; 'I' for Inactive)
REMARK    1  A    between atoms: C_1  and  C_2
REMARK    2  A    between atoms: C_8  and  N_10
REMARK    3  A    between atoms: N_13  and  C_14
REMARK    4  A    between atoms: C_16  and  N_21
REMARK                            x       y       z     vdW  Elec       q    Type
REMARK                         _______ _______ _______ _____ _____    ______ ____
ROOT
ATOM      1  N   UNL     1       2.110   0.037   1.226  0.00  0.00    -0.296 N 
ATOM      2  C   UNL     1       2.792   0.149   2.383  0.00  0.00    +0.304 C 
ATOM      3  O   UNL     1       2.264  -0.162   3.433  0.00  0.00    -0.253 OA
ATOM      4  N   UNL     1       4.060   0.607   2.376  0.00  0.00    -0.268 N 
ATOM      5  H   UNL     1       2.531   0.285   0.389  0.00  0.00    +0.151 HD
ATOM      6  H   UNL     1       4.509   0.776   1.534  0.00  0.00    +0.156 HD
ENDROOT
BRANCH   1  13
ATOM      7  C   UNL     1      -0.017   1.598   0.030  0.00  0.00    +0.009 C 
ATOM      8  C   UNL     1      -0.008   0.068   0.003  0.00  0.00    +0.006 C 
ATOM      9  C   UNL     1       0.701  -0.415  -1.264  0.00  0.00    +0.005 C 
ATOM     10  C   UNL     1       0.710  -1.945  -1.291  0.00  0.00    +0.000 C 
ATOM     11  C   UNL     1       1.450  -2.472  -0.060  0.00  0.00    +0.002 C 
ATOM     12  C   UNL     1       0.740  -1.989   1.207  0.00  0.00    +0.022 C 
ATOM     13  C   UNL     1       0.731  -0.459   1.234  0.00  0.00    +0.077 C 
ENDBRANCH   1  13
BRANCH   4  14
ATOM     14  C   UNL     1       4.728   0.836   3.585  0.00  0.00    +0.055 A 
ATOM     15  C   UNL     1       4.005   1.100   4.739  0.00  0.00    +0.048 A 
ATOM     16  C   UNL     1       4.670   1.327   5.935  0.00  0.00    +0.038 A 
ATOM     17  C   UNL     1       6.058   1.289   5.974  0.00  0.00    +0.025 A 
ATOM     18  C   UNL     1       6.777   1.026   4.824  0.00  0.00    +0.023 A 
ATOM     19  C   UNL     1       6.116   0.794   3.631  0.00  0.00    +0.062 A 
ATOM     20 CL   UNL     1       7.022   0.457   2.189  0.00  0.00    -0.082 Cl
BRANCH  16  21
ATOM     21  N   UNL     1       3.943   1.594   7.101  0.00  0.00    -0.271 N 
ATOM     22  C   UNL     1       2.480   1.542   7.195  0.00  0.00    +0.114 C 
ATOM     23  C   UNL     1       2.166   1.470   8.706  0.00  0.00    +0.029 C 
ATOM     24  C   UNL     1       3.419   2.136   9.320  0.00  0.00    +0.098 C 
ATOM     25  C   UNL     1       4.497   1.925   8.280  0.00  0.00    +0.220 C 
ATOM     26  O   UNL     1       5.688   2.041   8.481  0.00  0.00    -0.275 OA
ENDBRANCH  16  21
ENDBRANCH   4  14
TORSDOF 3
