REMARK  Name = ZINC13498935
REMARK  13 active torsions:
REMARK  status: ('A' for Active; 'I' for Inactive)
REMARK    1  A    between atoms: C_1  and  C_2
REMARK    2  A    between atoms: C_6  and  C_15
REMARK    3  A    between atoms: C_13  and  C_14
REMARK    4  A    between atoms: C_15  and  N_69
REMARK    5  A    between atoms: C_16  and  C_17
REMARK    6  A    between atoms: C_16  and  N_69
REMARK    7  A    between atoms: C_17  and  O_18
REMARK    8  A    between atoms: C_19  and  C_21
REMARK    9  A    between atoms: C_19  and  C_32
REMARK   10  A    between atoms: C_19  and  N_69
REMARK   11  A    between atoms: N_25  and  C_26
REMARK   12  A    between atoms: C_32  and  C_33
REMARK   13  A    between atoms: C_32  and  C_34
REMARK                            x       y       z     vdW  Elec       q    Type
REMARK                         _______ _______ _______ _____ _____    ______ ____
ROOT
ATOM      1  N   UNL     1      -5.669   4.164  -1.403  0.00  0.00    +0.391 N 
ATOM      2  H   UNL     1      -5.239   4.677  -2.181  0.00  0.00    -0.080 HD
ENDROOT
BRANCH   1   3
ATOM      3  C   UNL     1      -4.877   4.399  -0.177  0.00  0.00    -0.036 C 
BRANCH   3   9
ATOM      4  C   UNL     1       1.516   7.710  -2.121  0.00  0.00    +0.044 C 
ATOM      5  C   UNL     1       0.727   6.471  -1.786  0.00  0.00    -0.047 A 
ATOM      6  C   UNL     1      -0.597   6.577  -1.466  0.00  0.00    +0.013 A 
ATOM      7  C   UNL     1      -1.330   5.427  -1.155  0.00  0.00    -0.001 A 
ATOM      8  C   UNL     1      -2.750   5.505  -0.807  0.00  0.00    +0.017 A 
ATOM      9  C   UNL     1      -3.413   4.355  -0.532  0.00  0.00    +0.001 A 
ATOM     10  C   UNL     1      -2.735   3.118  -0.566  0.00  0.00    +0.251 A 
ATOM     11  O   UNL     1      -3.348   2.097  -0.305  0.00  0.00    -0.268 OA
ATOM     12  N   UNL     1      -1.429   3.037  -0.878  0.00  0.00    -0.322 N 
ATOM     13  H   UNL     1      -0.994   2.170  -0.891  0.00  0.00    +0.169 HD
ATOM     14  C   UNL     1      -0.701   4.168  -1.179  0.00  0.00    +0.049 A 
ATOM     15  C   UNL     1       0.649   4.085  -1.503  0.00  0.00    +0.030 A 
ATOM     16  C   UNL     1       1.351   5.232  -1.806  0.00  0.00    -0.046 A 
ATOM     17  C   UNL     1       2.813   5.139  -2.162  0.00  0.00    +0.044 C 
ENDBRANCH   3   9
ENDBRANCH   1   3
BRANCH   1  18
ATOM     18  C   UNL     1      -5.681   2.721  -1.727  0.00  0.00    -0.049 C 
BRANCH  18  19
ATOM     19  C   UNL     1      -6.210   2.542  -3.151  0.00  0.00    +0.137 C 
BRANCH  19  20
ATOM     20  O   UNL     1      -5.302   3.146  -4.075  0.00  0.00    -0.397 OA
ATOM     21  H   UNL     1      -5.574   3.070  -5.000  0.00  0.00    +0.209 HD
ENDBRANCH  19  20
ENDBRANCH  18  19
ENDBRANCH   1  18
BRANCH   1  22
ATOM     22  C   UNL     1      -7.051   4.651  -1.212  0.00  0.00    +0.006 C 
BRANCH  22  23
ATOM     23  C   UNL     1      -7.085   6.129  -1.505  0.00  0.00    +0.139 A 
ATOM     24  N   UNL     1      -6.207   7.023  -1.119  0.00  0.00    -0.115 NA
ATOM     25  N   UNL     1      -6.585   8.170  -1.567  0.00  0.00    -0.023 NA
ATOM     26  N   UNL     1      -7.682   8.031  -2.228  0.00  0.00    -0.044 NA
ATOM     27  N   UNL     1      -8.019   6.786  -2.217  0.00  0.00    -0.228 N 
BRANCH  27  28
ATOM     28  C   UNL     1      -9.199   6.198  -2.856  0.00  0.00    +0.111 C 
ATOM     29  C   UNL     1      -9.142   6.453  -4.364  0.00  0.00    +0.027 C 
ATOM     30  C   UNL     1     -10.375   5.840  -5.031  0.00  0.00    +0.002 C 
ATOM     31  C   UNL     1     -11.639   6.478  -4.453  0.00  0.00    +0.000 C 
ATOM     32  C   UNL     1     -11.696   6.223  -2.946  0.00  0.00    +0.002 C 
ATOM     33  C   UNL     1     -10.463   6.837  -2.278  0.00  0.00    +0.027 C 
ENDBRANCH  27  28
ENDBRANCH  22  23
BRANCH  22  34
ATOM     34  C   UNL     1      -7.511   4.405   0.226  0.00  0.00    -0.024 C 
ATOM     35  C   UNL     1      -8.896   5.022   0.432  0.00  0.00    +0.006 C 
ATOM     36  C   UNL     1      -7.579   2.899   0.489  0.00  0.00    +0.006 C 
ENDBRANCH  22  34
ENDBRANCH   1  22
TORSDOF 9
