REMARK  Name = ZINC13827539
REMARK  4 active torsions:
REMARK  status: ('A' for Active; 'I' for Inactive)
REMARK    1  A    between atoms: C_1  and  C_2
REMARK    2  A    between atoms: C_12  and  C_14
REMARK    3  A    between atoms: C_12  and  O_21
REMARK    4  A    between atoms: C_26  and  C_31
REMARK                            x       y       z     vdW  Elec       q    Type
REMARK                         _______ _______ _______ _____ _____    ______ ____
ROOT
ATOM      1  C   UNL     1      -0.019   1.526   0.010  0.00  0.00    +0.012 C 
ATOM      2  C   UNL     1       0.002  -0.004   0.002  0.00  0.00    +0.008 C 
ATOM      3  C   UNL     1       0.606  -0.499  -1.314  0.00  0.00    +0.010 C 
ATOM      4  C   UNL     1       1.588   0.546  -1.849  0.00  0.00    +0.032 C 
ATOM      5  C   UNL     1       2.920  -0.129  -2.182  0.00  0.00    +0.125 C 
ATOM      6  C   UNL     1       3.667  -0.448  -0.883  0.00  0.00    +0.076 C 
ATOM      7  C   UNL     1       4.715   0.637  -0.621  0.00  0.00    +0.184 C 
ATOM      8  C   UNL     1       5.774   0.599  -1.723  0.00  0.00    +0.111 C 
ATOM      9  C   UNL     1       5.089   0.360  -3.072  0.00  0.00    +0.190 C 
ATOM     10  O   UNL     1       3.716   0.749  -2.982  0.00  0.00    -0.344 OA
ATOM     11  O   UNL     1       5.320   0.406   0.654  0.00  0.00    -0.458 OA
ATOM     12  C   UNL     1       4.483   0.432   1.712  0.00  0.00    +0.332 C 
ATOM     13  O   UNL     1       3.490   1.131   1.669  0.00  0.00    -0.246 OA
ATOM     14  C   UNL     1       4.750  -0.366   2.912  0.00  0.00    +0.090 C 
ATOM     15  C   UNL     1       3.856  -0.399   3.900  0.00  0.00    -0.066 C 
ATOM     16  C   UNL     1       2.571   0.379   3.779  0.00  0.00    +0.035 C 
ATOM     17  C   UNL     1       1.414  -0.590   3.526  0.00  0.00    +0.031 C 
ATOM     18  C   UNL     1       0.584  -0.089   2.372  0.00  0.00    -0.030 C 
ATOM     19  C   UNL     1       0.835  -0.501   1.155  0.00  0.00    -0.028 C 
ATOM     20  C   UNL     1       4.129  -1.214   5.137  0.00  0.00    +0.039 C 
ENDROOT
BRANCH   9  21
ATOM     21  C   UNL     1       5.785   1.191  -4.152  0.00  0.00    +0.143 C 
ATOM     22  C   UNL     1       5.061   0.973  -5.506  0.00  0.00    +0.106 C 
ATOM     23  S   UNL     1       6.520   1.074  -6.628  0.00  0.00    -0.066 S 
ATOM     24  C   UNL     1       7.789   0.707  -5.428  0.00  0.00    +0.272 C 
ATOM     25  O   UNL     1       8.954   0.434  -5.646  0.00  0.00    -0.263 OA
ATOM     26  N   UNL     1       7.180   0.794  -4.231  0.00  0.00    -0.298 N 
ATOM     27  H   UNL     1       7.674   0.594  -3.421  0.00  0.00    +0.150 HD
ENDBRANCH   9  21
BRANCH   9  28
ATOM     28  O   UNL     1       5.171  -1.026  -3.409  0.00  0.00    -0.363 OA
ATOM     29  H   UNL     1       4.748  -1.613  -2.767  0.00  0.00    +0.213 HD
ENDBRANCH   9  28
TORSDOF 2
