REMARK  Name = ZINC24214709
REMARK  13 active torsions:
REMARK  status: ('A' for Active; 'I' for Inactive)
REMARK    1  A    between atoms: C_1  and  C_2
REMARK    2  A    between atoms: C_2  and  O_3
REMARK    3  A    between atoms: O_3  and  C_4
REMARK    4  A    between atoms: C_4  and  C_6
REMARK    5  A    between atoms: C_7  and  C_37
REMARK    6  A    between atoms: C_8  and  C_13
REMARK    7  A    between atoms: C_11  and  C_12
REMARK    8  A    between atoms: C_13  and  C_15
REMARK    9  A    between atoms: C_15  and  N_16
REMARK   10  A    between atoms: C_22  and  C_24
REMARK   11  A    between atoms: C_25  and  C_36
REMARK   12  A    between atoms: N_27  and  C_30
REMARK   13  A    between atoms: C_28  and  C_29
REMARK                            x       y       z     vdW  Elec       q    Type
REMARK                         _______ _______ _______ _____ _____    ______ ____
ROOT
ATOM      1  N   UNL     1       2.406   0.986  -0.091  0.00  0.00    +0.396 N 
ATOM      2  C   UNL     1       2.452   0.332  -1.409  0.00  0.00    -0.058 C 
ATOM      3  C   UNL     1       3.785  -0.405  -1.546  0.00  0.00    +0.085 C 
ATOM      4  N   UNL     1       4.016  -1.245  -0.374  0.00  0.00    -0.318 N 
ATOM      5  C   UNL     1       3.365  -1.074   0.782  0.00  0.00    +0.204 C 
ATOM      6  O   UNL     1       3.641  -1.797   1.716  0.00  0.00    -0.277 OA
ATOM      7  C   UNL     1       2.308  -0.023   0.972  0.00  0.00    +0.054 C 
ATOM      8  H   UNL     1       4.752  -2.061  -0.418  0.00  0.00    +0.149 HD
ATOM      9  H   UNL     1       3.339   1.552   0.052  0.00  0.00    -0.080 HD
ENDROOT
BRANCH   7  10
ATOM     10  C   UNL     1       2.499   0.641   2.312  0.00  0.00    -0.009 A 
ATOM     11  C   UNL     1       3.483   1.583   2.631  0.00  0.00    +0.063 A 
ATOM     12  N   UNL     1       3.329   1.928   3.884  0.00  0.00    -0.171 NA
ATOM     13  N   UNL     1       2.240   1.216   4.404  0.00  0.00    -0.237 N 
ATOM     14  C   UNL     1       1.744   0.436   3.416  0.00  0.00    +0.044 A 
ATOM     15  C   UNL     1       0.566  -0.497   3.527  0.00  0.00    +0.066 C 
ATOM     16  C   UNL     1       4.539   2.109   1.693  0.00  0.00    +0.068 C 
BRANCH  13  17
ATOM     17  C   UNL     1       1.748   1.301   5.713  0.00  0.00    +0.066 A 
ATOM     18  C   UNL     1       1.642   2.536   6.338  0.00  0.00    +0.028 A 
ATOM     19  C   UNL     1       1.152   2.618   7.627  0.00  0.00    +0.002 A 
ATOM     20  C   UNL     1       0.777   1.469   8.299  0.00  0.00    +0.000 A 
ATOM     21  C   UNL     1       0.887   0.236   7.682  0.00  0.00    +0.002 A 
ATOM     22  C   UNL     1       1.371   0.149   6.391  0.00  0.00    +0.028 A 
ENDBRANCH  13  17
ENDBRANCH   7  10
BRANCH   1  23
ATOM     23  C   UNL     1       1.293   1.941  -0.014  0.00  0.00    +0.005 C 
BRANCH  23  24
ATOM     24  C   UNL     1       1.544   3.083  -0.965  0.00  0.00    +0.163 C 
ATOM     25  O   UNL     1       2.595   3.149  -1.570  0.00  0.00    -0.293 OA
BRANCH  24  28
ATOM     26  C   UNL     1      -0.545   5.901  -1.848  0.00  0.00    +0.083 A 
ATOM     27  C   UNL     1       0.662   5.180  -1.973  0.00  0.00    -0.008 A 
ATOM     28  C   UNL     1       0.558   4.082  -1.148  0.00  0.00    +0.084 A 
ATOM     29  N   UNL     1      -0.673   4.129  -0.526  0.00  0.00    -0.355 N 
ATOM     30  H   UNL     1      -0.961   3.340   0.184  0.00  0.00    +0.166 HD
ATOM     31  C   UNL     1      -1.338   5.217  -0.943  0.00  0.00    +0.028 A 
ATOM     32  C   UNL     1      -2.718   5.627  -0.498  0.00  0.00    +0.064 C 
ATOM     33  C   UNL     1       1.837   5.542  -2.845  0.00  0.00    +0.047 C 
BRANCH  26  34
ATOM     34  C   UNL     1      -0.894   7.150  -2.545  0.00  0.00    +0.341 C 
ATOM     35  O   UNL     1      -0.619   8.223  -2.045  0.00  0.00    -0.245 OA
BRANCH  34  36
ATOM     36  O   UNL     1      -1.518   7.104  -3.739  0.00  0.00    -0.461 OA
BRANCH  36  38
ATOM     37  C   UNL     1      -2.533   8.122  -5.705  0.00  0.00    +0.048 C 
ATOM     38  C   UNL     1      -1.831   8.375  -4.368  0.00  0.00    +0.229 C 
ENDBRANCH  36  38
ENDBRANCH  34  36
ENDBRANCH  26  34
ENDBRANCH  24  28
ENDBRANCH  23  24
ENDBRANCH   1  23
TORSDOF 8
