REMARK  Name = ZINC48424924
REMARK  2 active torsions:
REMARK  status: ('A' for Active; 'I' for Inactive)
REMARK    1  A    between atoms: C_2  and  O_10
REMARK    2  A    between atoms: O_10  and  C_11
REMARK                            x       y       z     vdW  Elec       q    Type
REMARK                         _______ _______ _______ _____ _____    ______ ____
ROOT
ATOM      1  O   UNL     1       1.159   3.446   0.009  0.00  0.00    -0.436 OA
ENDROOT
BRANCH   1   2
ATOM      2  C   UNL     1      -0.041   4.069  -0.081  0.00  0.00    +0.226 A 
ATOM      3  C   UNL     1      -0.112   5.456  -0.189  0.00  0.00    +0.107 A 
ATOM      4  C   UNL     1      -1.359   6.049  -0.278  0.00  0.00    +0.138 A 
ATOM      5  N   UNL     1      -2.442   5.285  -0.259  0.00  0.00    -0.203 NA
ATOM      6  C   UNL     1      -2.343   3.968  -0.155  0.00  0.00    +0.217 A 
ATOM      7  N   UNL     1      -1.167   3.364  -0.073  0.00  0.00    -0.179 NA
ATOM      8  N   UNL     1      -3.497   3.204  -0.138  0.00  0.00    -0.327 N 
ATOM      9 CL   UNL     1      -1.503   7.774  -0.413  0.00  0.00    -0.062 Cl
ATOM     10  H   UNL     1      -4.364   3.634  -0.202  0.00  0.00    +0.145 HD
ATOM     11  H   UNL     1      -3.438   2.239  -0.063  0.00  0.00    +0.145 HD
ENDBRANCH   1   2
BRANCH   1  13
ATOM     12  C   UNL     1       1.197   1.430   1.271  0.00  0.00    +0.069 A 
ATOM     13  C   UNL     1       1.172   2.088   0.050  0.00  0.00    +0.150 A 
ATOM     14  C   UNL     1       1.161   1.357  -1.130  0.00  0.00    +0.085 A 
ATOM     15  C   UNL     1       1.174  -0.025  -1.086  0.00  0.00    +0.045 A 
ATOM     16  C   UNL     1       1.198  -0.679   0.133  0.00  0.00    +0.061 A 
ATOM     17  C   UNL     1       1.209   0.048   1.311  0.00  0.00    +0.063 A 
ATOM     18 CL   UNL     1       1.240  -0.775   2.839  0.00  0.00    -0.082 Cl
ATOM     19 CL   UNL     1       1.214  -2.414   0.185  0.00  0.00    -0.082 Cl
ATOM     20 CL   UNL     1       1.130   2.177  -2.659  0.00  0.00    -0.080 Cl
ENDBRANCH   1  13
TORSDOF 2
