REMARK  Name = ZINC63361947
REMARK  7 active torsions:
REMARK  status: ('A' for Active; 'I' for Inactive)
REMARK    1  A    between atoms: C_1  and  C_2
REMARK    2  A    between atoms: C_2  and  C_3
REMARK    3  A    between atoms: C_8  and  N_9
REMARK    4  A    between atoms: C_25  and  C_30
REMARK    5  A    between atoms: C_33  and  C_36
REMARK    6  A    between atoms: C_36  and  C_37
REMARK    7  A    between atoms: C_36  and  C_38
REMARK                            x       y       z     vdW  Elec       q    Type
REMARK                         _______ _______ _______ _____ _____    ______ ____
ROOT
ATOM      1  N   UNL     1      -1.754  -0.682   2.143  0.00  0.00    -0.192 N 
ATOM      2  C   UNL     1      -2.884  -1.355   1.841  0.00  0.00    +0.248 C 
ATOM      3  O   UNL     1      -2.968  -2.469   1.370  0.00  0.00    -0.273 OA
ATOM      4  C   UNL     1      -4.022  -0.431   2.213  0.00  0.00    +0.169 C 
ATOM      5  C   UNL     1      -4.894  -0.147   0.977  0.00  0.00    +0.065 C 
ATOM      6  C   UNL     1      -5.591   1.167   1.241  0.00  0.00    -0.034 C 
ATOM      7  C   UNL     1      -6.881   1.483   1.215  0.00  0.00    -0.001 A 
ATOM      8  C   UNL     1      -8.071   0.707   0.829  0.00  0.00    +0.010 A 
ATOM      9  C   UNL     1      -9.266   1.345   0.943  0.00  0.00    +0.001 A 
ATOM     10  C   UNL     1      -9.394   2.663   1.395  0.00  0.00    +0.002 A 
ATOM     11  C   UNL     1      -8.354   3.452   1.763  0.00  0.00    +0.026 A 
ATOM     12  C   UNL     1      -7.045   2.894   1.679  0.00  0.00    +0.043 A 
ATOM     13  N   UNL     1      -5.887   3.422   1.945  0.00  0.00    -0.375 N 
ATOM     14  C   UNL     1      -4.848   2.438   1.632  0.00  0.00    +0.131 C 
ATOM     15  C   UNL     1      -4.001   2.100   2.867  0.00  0.00    +0.135 C 
ATOM     16  N   UNL     1      -3.333   0.813   2.611  0.00  0.00    -0.264 N 
ATOM     17  C   UNL     1      -2.021   0.544   2.615  0.00  0.00    +0.317 C 
ATOM     18  O   UNL     1      -1.171   1.323   3.000  0.00  0.00    -0.252 OA
ATOM     19  H   UNL     1      -5.737   4.315   2.292  0.00  0.00    +0.160 HD
ENDROOT
BRANCH   1  25
ATOM     20  C   UNL     1       0.223  -1.021   0.795  0.00  0.00    -0.026 A 
ATOM     21  C   UNL     1       1.498  -1.530   0.648  0.00  0.00    +0.005 A 
ATOM     22  C   UNL     1       2.091  -2.224   1.686  0.00  0.00    +0.000 A 
ATOM     23  C   UNL     1       1.410  -2.411   2.874  0.00  0.00    +0.002 A 
ATOM     24  C   UNL     1       0.134  -1.904   3.028  0.00  0.00    +0.024 A 
ATOM     25  C   UNL     1      -0.462  -1.202   1.989  0.00  0.00    +0.049 A 
BRANCH  20  27
ATOM     26  C   UNL     1      -0.191   1.235  -0.147  0.00  0.00    +0.009 C 
ATOM     27  C   UNL     1      -0.423  -0.265  -0.337  0.00  0.00    +0.033 C 
ENDBRANCH  20  27
ENDBRANCH   1  25
BRANCH  15  28
ATOM     28  C   UNL     1      -4.887   1.968   4.079  0.00  0.00    -0.025 A 
ATOM     29  C   UNL     1      -5.793   0.927   4.163  0.00  0.00    +0.006 A 
ATOM     30  C   UNL     1      -6.606   0.807   5.275  0.00  0.00    +0.004 A 
ATOM     31  C   UNL     1      -6.513   1.727   6.302  0.00  0.00    -0.045 A 
ATOM     32  C   UNL     1      -5.606   2.767   6.218  0.00  0.00    +0.004 A 
ATOM     33  C   UNL     1      -4.790   2.885   5.109  0.00  0.00    +0.006 A 
BRANCH  31  34
ATOM     34  C   UNL     1      -7.399   1.596   7.514  0.00  0.00    +0.013 C 
ATOM     35  C   UNL     1      -6.533   1.433   8.764  0.00  0.00    +0.012 C 
ATOM     36  C   UNL     1      -8.263   2.851   7.651  0.00  0.00    +0.012 C 
ENDBRANCH  31  34
ENDBRANCH  15  28
TORSDOF 4
