REMARK  Name = ZINC45168938
REMARK  6 active torsions:
REMARK  status: ('A' for Active; 'I' for Inactive)
REMARK    1  A    between atoms: C_1  and  C_2
REMARK    2  A    between atoms: C_3  and  C_9
REMARK    3  A    between atoms: C_4  and  C_8
REMARK    4  A    between atoms: N_5  and  C_7
REMARK    5  A    between atoms: C_9  and  C_11
REMARK    6  A    between atoms: C_9  and  N_21
REMARK                            x       y       z     vdW  Elec       q    Type
REMARK                         _______ _______ _______ _____ _____    ______ ____
ROOT
ATOM      1  C   UNL     1       0.218  -0.346  -2.559  0.00  0.00    +0.027 C 
ENDROOT
BRANCH   1   2
ATOM      2  C   UNL     1       1.659   0.004  -2.825  0.00  0.00    +0.096 A 
ATOM      3  C   UNL     1       2.530  -0.777  -3.480  0.00  0.00    +0.051 A 
ATOM      4  C   UNL     1       3.801  -0.043  -3.501  0.00  0.00    +0.021 A 
ATOM      5  C   UNL     1       5.069  -0.305  -4.019  0.00  0.00    +0.012 A 
ATOM      6  C   UNL     1       6.068   0.615  -3.864  0.00  0.00    +0.002 A 
ATOM      7  C   UNL     1       5.828   1.807  -3.195  0.00  0.00    +0.019 A 
ATOM      8  C   UNL     1       4.580   2.084  -2.676  0.00  0.00    +0.061 A 
ATOM      9  C   UNL     1       3.551   1.161  -2.823  0.00  0.00    +0.149 A 
ATOM     10  O   UNL     1       2.257   1.146  -2.443  0.00  0.00    -0.460 OA
ATOM     11 BR   UNL     1       4.271   3.713  -1.767  0.00  0.00    -0.046 Br
ENDBRANCH   1   2
BRANCH   1  14
ATOM     12  C   UNL     1      -0.226  -3.358  -1.681  0.00  0.00    +0.068 C 
ATOM     13  C   UNL     1      -0.121  -2.174  -0.756  0.00  0.00    +0.062 A 
ATOM     14  C   UNL     1       0.074  -0.844  -1.144  0.00  0.00    -0.011 A 
ATOM     15  C   UNL     1       0.111  -0.085  -0.025  0.00  0.00    +0.038 A 
ATOM     16  N   UNL     1      -0.054  -0.904   1.034  0.00  0.00    -0.271 N 
ATOM     17  N   UNL     1      -0.203  -2.210   0.550  0.00  0.00    -0.176 NA
ATOM     18  C   UNL     1      -0.079  -0.499   2.442  0.00  0.00    +0.172 C 
ATOM     19  C   UNL     1       0.304   1.409   0.029  0.00  0.00    +0.065 C 
ENDBRANCH   1  14
BRANCH   1  20
ATOM     20  N   UNL     1      -0.618   0.848  -2.745  0.00  0.00    +0.387 N 
ATOM     21  H   UNL     1      -0.254   1.604  -2.184  0.00  0.00    -0.089 HD
ATOM     22  H   UNL     1      -0.609   1.117  -3.718  0.00  0.00    -0.089 HD
ATOM     23  H   UNL     1      -1.564   0.644  -2.461  0.00  0.00    -0.089 HD
ENDBRANCH   1  20
TORSDOF 3
