REMARK  Name = ZINC12497354
REMARK  11 active torsions:
REMARK  status: ('A' for Active; 'I' for Inactive)
REMARK    1  A    between atoms: C_1  and  C_2
REMARK    2  A    between atoms: C_2  and  C_3
REMARK    3  A    between atoms: C_3  and  C_4
REMARK    4  A    between atoms: C_4  and  C_30
REMARK    5  A    between atoms: C_9  and  C_11
REMARK    6  A    between atoms: C_14  and  C_17
REMARK    7  A    between atoms: N_20  and  C_23
REMARK    8  A    between atoms: C_26  and  C_29
REMARK    9  A    between atoms: C_30  and  O_32
REMARK   10  A    between atoms: O_32  and  C_33
REMARK   11  A    between atoms: C_33  and  C_34
REMARK                            x       y       z     vdW  Elec       q    Type
REMARK                         _______ _______ _______ _____ _____    ______ ____
ROOT
ATOM      1  C   UNL     1       1.775   1.921   1.412  0.00  0.00    +0.044 C 
ATOM      2  C   UNL     1       0.661   1.339   2.266  0.00  0.00    +0.086 C 
ATOM      3  C   UNL     1      -0.545   1.595   1.283  0.00  0.00    +0.077 C 
ATOM      4  C   UNL     1      -0.013   1.086   0.008  0.00  0.00    -0.027 C 
ATOM      5  C   UNL     1      -1.677   1.431   2.161  0.00  0.00    +0.229 C 
ATOM      6  O   UNL     1      -2.765   0.976   1.883  0.00  0.00    -0.275 OA
ATOM      7  N   UNL     1      -1.254   1.902   3.380  0.00  0.00    -0.210 N 
ATOM      8  C   UNL     1       0.099   2.083   3.436  0.00  0.00    +0.229 C 
ATOM      9  O   UNL     1       0.718   2.717   4.264  0.00  0.00    -0.275 OA
ATOM     10  N   UNL     1       1.379   1.638   0.007  0.00  0.00    +0.395 N 
ATOM     11  H   UNL     1       2.023   0.951  -0.403  0.00  0.00    -0.083 HD
ATOM     12  H   UNL     1       1.407   2.505  -0.542  0.00  0.00    -0.083 HD
ENDROOT
BRANCH   4  13
ATOM     13  C   UNL     1      -0.807   1.615  -1.158  0.00  0.00    -0.061 A 
ATOM     14  C   UNL     1      -0.617   2.914  -1.591  0.00  0.00    +0.002 A 
ATOM     15  C   UNL     1      -1.343   3.398  -2.663  0.00  0.00    +0.003 A 
ATOM     16  C   UNL     1      -2.265   2.586  -3.297  0.00  0.00    -0.050 A 
ATOM     17  C   UNL     1      -2.458   1.288  -2.861  0.00  0.00    +0.003 A 
ATOM     18  C   UNL     1      -1.730   0.803  -1.791  0.00  0.00    +0.002 A 
ATOM     19  C   UNL     1      -3.060   3.115  -4.463  0.00  0.00    +0.044 C 
ENDBRANCH   4  13
BRANCH   7  20
ATOM     20  C   UNL     1      -2.119   2.168   4.452  0.00  0.00    +0.044 A 
ATOM     21  C   UNL     1      -1.610   2.638   5.655  0.00  0.00    +0.024 A 
ATOM     22  C   UNL     1      -2.464   2.905   6.707  0.00  0.00    +0.005 A 
ATOM     23  C   UNL     1      -3.824   2.693   6.566  0.00  0.00    -0.050 A 
ATOM     24  C   UNL     1      -4.332   2.221   5.371  0.00  0.00    +0.005 A 
ATOM     25  C   UNL     1      -3.484   1.957   4.313  0.00  0.00    +0.024 A 
ATOM     26  C   UNL     1      -4.752   2.980   7.718  0.00  0.00    +0.044 C 
ENDBRANCH   7  20
BRANCH   1  27
ATOM     27  C   UNL     1       3.086   1.251   1.735  0.00  0.00    +0.297 C 
ATOM     28  O   UNL     1       3.270   0.781   2.833  0.00  0.00    -0.252 OA
BRANCH  27  29
ATOM     29  O   UNL     1       4.049   1.176   0.803  0.00  0.00    -0.466 OA
BRANCH  29  30
ATOM     30  C   UNL     1       5.285   0.517   1.184  0.00  0.00    +0.228 C 
ATOM     31  C   UNL     1       6.255   0.529   0.000  0.00  0.00    +0.048 C 
ENDBRANCH  29  30
ENDBRANCH  27  29
ENDBRANCH   1  27
BRANCH   1  32
ATOM     32  C   UNL     1       1.883   3.430   1.641  0.00  0.00    -0.001 C 
BRANCH  32  34
ATOM     33  C   UNL     1       2.986   5.536   0.872  0.00  0.00    +0.004 C 
ATOM     34  C   UNL     1       2.878   4.027   0.644  0.00  0.00    -0.004 C 
ENDBRANCH  32  34
ENDBRANCH   1  32
TORSDOF 7
