REMARK  Name = ZINC62934702
REMARK  5 active torsions:
REMARK  status: ('A' for Active; 'I' for Inactive)
REMARK    1  A    between atoms: C_1  and  C_2
REMARK    2  A    between atoms: C_4  and  C_7
REMARK    3  A    between atoms: C_7  and  N_8
REMARK    4  A    between atoms: C_14  and  C_16
REMARK    5  A    between atoms: C_14  and  C_17
REMARK                            x       y       z     vdW  Elec       q    Type
REMARK                         _______ _______ _______ _____ _____    ______ ____
ROOT
ATOM      1  N   UNL     1      -1.691  -3.832  -1.387  0.00  0.00    -0.294 N 
ATOM      2  C   UNL     1      -2.442  -4.923  -1.635  0.00  0.00    +0.303 C 
ATOM      3  O   UNL     1      -2.961  -5.526  -0.715  0.00  0.00    -0.253 OA
ATOM      4  N   UNL     1      -2.619  -5.346  -2.902  0.00  0.00    -0.285 N 
ATOM      5  C   UNL     1      -2.058  -4.739  -4.132  0.00  0.00    +0.110 C 
ATOM      6  C   UNL     1      -3.221  -4.859  -5.149  0.00  0.00    +0.038 C 
ATOM      7  C   UNL     1      -3.843  -6.231  -4.800  0.00  0.00    +0.086 C 
ATOM      8  C   UNL     1      -3.403  -6.513  -3.348  0.00  0.00    +0.127 C 
ATOM      9  C   UNL     1      -3.299  -7.314  -5.734  0.00  0.00    +0.024 C 
ATOM     10  H   UNL     1      -1.278  -3.351  -2.121  0.00  0.00    +0.151 HD
ENDROOT
BRANCH   7  11
ATOM     11  C   UNL     1      -5.345  -6.164  -4.892  0.00  0.00    +0.363 C 
ATOM     12  O   UNL     1      -5.982  -7.158  -5.197  0.00  0.00    -0.246 OA
ATOM     13  O   UNL     1      -5.924  -5.116  -4.662  0.00  0.00    -0.246 OA
ENDBRANCH   7  11
BRANCH   1  14
ATOM     14  C   UNL     1      -1.500  -3.372  -0.010  0.00  0.00    +0.164 C 
BRANCH  14  18
ATOM     15  C   UNL     1      -0.018   1.503   0.010  0.00  0.00    +0.089 C 
ATOM     16  C   UNL     1       0.002  -0.004   0.002  0.00  0.00    +0.135 A 
ATOM     17  C   UNL     1      -1.077  -0.810   0.003  0.00  0.00    +0.072 A 
ATOM     18  C   UNL     1      -0.627  -2.143  -0.007  0.00  0.00    +0.101 A 
ATOM     19  N   UNL     1       0.676  -2.130  -0.013  0.00  0.00    -0.081 NA
ATOM     20  O   UNL     1       1.098  -0.778  -0.013  0.00  0.00    -0.360 OA
ENDBRANCH  14  18
ENDBRANCH   1  14
TORSDOF 3
