REMARK  Name = ZINC12576405
REMARK  4 active torsions:
REMARK  status: ('A' for Active; 'I' for Inactive)
REMARK    1  A    between atoms: C_6  and  C_9
REMARK    2  A    between atoms: N_10  and  C_11
REMARK    3  A    between atoms: C_23  and  N_25
REMARK    4  A    between atoms: C_26  and  C_27
REMARK                            x       y       z     vdW  Elec       q    Type
REMARK                         _______ _______ _______ _____ _____    ______ ____
ROOT
ATOM      1  C   UNL     1       8.410  -0.588  -0.084  0.00  0.00    +0.066 A 
ATOM      2  C   UNL     1       9.406  -0.152  -0.940  0.00  0.00    +0.054 A 
ATOM      3  C   UNL     1      10.645  -0.819  -0.958  0.00  0.00    +0.049 A 
ATOM      4  N   UNL     1      11.619  -0.421  -1.771  0.00  0.00    -0.354 N 
ATOM      5  C   UNL     1      12.796  -1.040  -1.800  0.00  0.00    +0.049 A 
ATOM      6  C   UNL     1      13.058  -2.191  -0.929  0.00  0.00    -0.001 A 
ATOM      7  C   UNL     1      12.061  -2.640  -0.060  0.00  0.00    +0.020 A 
ATOM      8  C   UNL     1      10.839  -1.963  -0.060  0.00  0.00    -0.001 A 
ATOM      9  C   UNL     1       9.787  -2.361   0.791  0.00  0.00    +0.012 A 
ATOM     10  C   UNL     1       8.614  -1.684   0.777  0.00  0.00    +0.028 A 
ATOM     11  C   UNL     1      14.317  -2.827  -0.982  0.00  0.00    +0.012 A 
ATOM     12  C   UNL     1      15.267  -2.372  -1.833  0.00  0.00    +0.028 A 
ATOM     13  C   UNL     1      15.030  -1.268  -2.675  0.00  0.00    +0.066 A 
ATOM     14  C   UNL     1      13.816  -0.605  -2.666  0.00  0.00    +0.054 A 
ATOM     15  H   UNL     1      11.468   0.338  -2.356  0.00  0.00    +0.166 HD
ENDROOT
BRANCH   1  17
ATOM     16  C   UNL     1       6.098  -0.622  -0.061  0.00  0.00    +0.119 C 
ATOM     17  N   UNL     1       7.208   0.062  -0.068  0.00  0.00    -0.255 NA
BRANCH  16  23
ATOM     18  C   UNL     1      -0.017   1.389   0.010  0.00  0.00    +0.001 A 
ATOM     19  C   UNL     1       1.141   2.107   0.003  0.00  0.00    +0.008 A 
ATOM     20  C   UNL     1       2.375   1.437  -0.013  0.00  0.00    -0.018 A 
ATOM     21  C   UNL     1       2.395   0.019  -0.021  0.00  0.00    -0.017 A 
ATOM     22  C   UNL     1       3.624  -0.655  -0.036  0.00  0.00    +0.018 A 
ATOM     23  C   UNL     1       4.803   0.077  -0.044  0.00  0.00    -0.006 A 
ATOM     24  C   UNL     1       4.769   1.485  -0.036  0.00  0.00    +0.010 A 
ATOM     25  C   UNL     1       3.588   2.152  -0.021  0.00  0.00    +0.009 A 
ATOM     26  C   UNL     1       1.179  -0.688  -0.013  0.00  0.00    +0.008 A 
ATOM     27  C   UNL     1       0.002  -0.004   0.002  0.00  0.00    +0.001 A 
ENDBRANCH  16  23
ENDBRANCH   1  17
BRANCH  13  28
ATOM     28  N   UNL     1      16.019  -0.843  -3.517  0.00  0.00    -0.255 NA
ATOM     29  C   UNL     1      17.242  -0.727  -3.080  0.00  0.00    +0.119 C 
BRANCH  29  30
ATOM     30  C   UNL     1      18.307  -0.270  -3.987  0.00  0.00    -0.006 A 
ATOM     31  C   UNL     1      19.608  -0.154  -3.519  0.00  0.00    +0.018 A 
ATOM     32  C   UNL     1      20.618   0.282  -4.389  0.00  0.00    -0.017 A 
ATOM     33  C   UNL     1      20.293   0.598  -5.734  0.00  0.00    -0.018 A 
ATOM     34  C   UNL     1      18.964   0.470  -6.179  0.00  0.00    +0.009 A 
ATOM     35  C   UNL     1      18.000   0.041  -5.326  0.00  0.00    +0.010 A 
ATOM     36  C   UNL     1      21.308   1.033  -6.601  0.00  0.00    +0.008 A 
ATOM     37  C   UNL     1      22.585   1.147  -6.143  0.00  0.00    +0.001 A 
ATOM     38  C   UNL     1      22.905   0.837  -4.822  0.00  0.00    +0.001 A 
ATOM     39  C   UNL     1      21.948   0.412  -3.952  0.00  0.00    +0.008 A 
ENDBRANCH  29  30
ENDBRANCH  13  28
TORSDOF 4
