REMARK  Name = ZINC35036983
REMARK  14 active torsions:
REMARK  status: ('A' for Active; 'I' for Inactive)
REMARK    1  A    between atoms: C_1  and  C_2
REMARK    2  A    between atoms: C_4  and  C_38
REMARK    3  A    between atoms: C_5  and  S_9
REMARK    4  A    between atoms: C_6  and  C_8
REMARK    5  A    between atoms: S_9  and  N_12
REMARK    6  A    between atoms: N_12  and  C_13
REMARK    7  A    between atoms: N_12  and  C_18
REMARK    8  A    between atoms: C_13  and  C_14
REMARK    9  A    between atoms: C_14  and  N_15
REMARK   10  A    between atoms: N_15  and  C_16
REMARK   11  A    between atoms: N_15  and  C_17
REMARK   12  A    between atoms: C_18  and  C_20
REMARK   13  A    between atoms: C_18  and  C_21
REMARK   14  A    between atoms: N_31  and  C_32
REMARK                            x       y       z     vdW  Elec       q    Type
REMARK                         _______ _______ _______ _____ _____    ______ ____
ROOT
ATOM      1  N   UNL     1      -1.385  -4.689   1.491  0.00  0.00    -0.168 NA
ENDROOT
BRANCH   1   2
ATOM      2  S   UNL     1      -2.320  -3.439   0.940  0.00  0.00    +0.062 S 
ATOM      3  O   UNL     1      -3.549  -3.507   1.651  0.00  0.00    -0.153 OA
ATOM      4  O   UNL     1      -2.258  -3.480  -0.479  0.00  0.00    -0.153 OA
BRANCH   2   9
ATOM      5  C   UNL     1       0.374   1.685   2.640  0.00  0.00    +0.044 C 
ATOM      6  C   UNL     1      -0.299   0.406   2.215  0.00  0.00    -0.050 A 
ATOM      7  C   UNL     1      -1.324  -0.123   2.978  0.00  0.00    +0.008 A 
ATOM      8  C   UNL     1      -1.941  -1.297   2.589  0.00  0.00    -0.024 A 
ATOM      9  C   UNL     1      -1.534  -1.942   1.436  0.00  0.00    +0.111 A 
ATOM     10  C   UNL     1      -0.510  -1.413   0.672  0.00  0.00    -0.024 A 
ATOM     11  C   UNL     1       0.104  -0.237   1.060  0.00  0.00    +0.008 A 
ATOM     12  C   UNL     1      -0.067  -2.117  -0.584  0.00  0.00    +0.046 C 
ATOM     13  C   UNL     1      -3.057  -1.873   3.421  0.00  0.00    +0.046 C 
ENDBRANCH   2   9
ENDBRANCH   1   2
BRANCH   1  14
ATOM     14  C   UNL     1      -0.426  -5.337   0.593  0.00  0.00    +0.143 C 
ATOM     15  C   UNL     1       0.998  -5.059   1.080  0.00  0.00    +0.034 C 
BRANCH  14  16
ATOM     16  C   UNL     1      -0.672  -6.824   0.584  0.00  0.00    +0.136 A 
ATOM     17  N   UNL     1       0.143  -7.588   1.245  0.00  0.00    -0.231 NA
ATOM     18  C   UNL     1      -0.015  -8.934   1.282  0.00  0.00    +0.078 A 
ATOM     19  C   UNL     1       0.861  -9.756   1.994  0.00  0.00    +0.028 A 
ATOM     20  C   UNL     1       0.662 -11.118   2.004  0.00  0.00    +0.002 A 
ATOM     21  C   UNL     1      -0.401 -11.688   1.315  0.00  0.00    +0.001 A 
ATOM     22  C   UNL     1      -1.279 -10.898   0.605  0.00  0.00    +0.015 A 
ATOM     23  C   UNL     1      -1.096  -9.517   0.582  0.00  0.00    +0.065 A 
ATOM     24  C   UNL     1      -2.001  -8.625  -0.157  0.00  0.00    +0.266 A 
ATOM     25  O   UNL     1      -2.951  -9.062  -0.780  0.00  0.00    -0.267 OA
ATOM     26  N   UNL     1      -1.741  -7.297  -0.113  0.00  0.00    -0.263 N 
BRANCH  26  27
ATOM     27  C   UNL     1      -2.575  -6.403  -0.795  0.00  0.00    +0.051 A 
ATOM     28  C   UNL     1      -2.163  -5.848  -2.000  0.00  0.00    +0.026 A 
ATOM     29  C   UNL     1      -2.989  -4.967  -2.670  0.00  0.00    +0.002 A 
ATOM     30  C   UNL     1      -4.224  -4.638  -2.144  0.00  0.00    +0.000 A 
ATOM     31  C   UNL     1      -4.638  -5.189  -0.945  0.00  0.00    +0.002 A 
ATOM     32  C   UNL     1      -3.819  -6.075  -0.272  0.00  0.00    +0.026 A 
ENDBRANCH  26  27
ENDBRANCH  14  16
ENDBRANCH   1  14
BRANCH   1  33
ATOM     33  C   UNL     1      -1.516  -5.147   2.877  0.00  0.00    +0.092 C 
BRANCH  33  34
ATOM     34  C   UNL     1      -2.536  -6.285   2.943  0.00  0.00    -0.062 C 
BRANCH  34  35
ATOM     35  N   UNL     1      -2.759  -6.661   4.346  0.00  0.00    +0.377 N 
ATOM     36  C   UNL     1      -3.825  -7.670   4.418  0.00  0.00    -0.097 C 
ATOM     37  C   UNL     1      -1.521  -7.216   4.908  0.00  0.00    -0.097 C 
ATOM     38  H   UNL     1      -3.032  -5.845   4.873  0.00  0.00    -0.083 HD
ENDBRANCH  34  35
ENDBRANCH  33  34
ENDBRANCH   1  33
TORSDOF 8
