REMARK  Name = ZINC59474381
REMARK  5 active torsions:
REMARK  status: ('A' for Active; 'I' for Inactive)
REMARK    1  A    between atoms: C_1  and  C_2
REMARK    2  A    between atoms: C_5  and  N_9
REMARK    3  A    between atoms: C_6  and  C_8
REMARK    4  A    between atoms: N_9  and  C_10
REMARK    5  A    between atoms: C_10  and  N_11
REMARK                            x       y       z     vdW  Elec       q    Type
REMARK                         _______ _______ _______ _____ _____    ______ ____
ROOT
ATOM      1  C   UNL     1      -0.049  -4.894  -1.288  0.00  0.00    +0.234 C 
ENDROOT
BRANCH   1   2
ATOM      2  N   UNL     1      -1.460  -5.156  -1.584  0.00  0.00    -0.258 N 
ATOM      3  C   UNL     1      -2.217  -6.227  -1.110  0.00  0.00    +0.093 A 
ATOM      4  C   UNL     1      -1.931  -7.303  -0.284  0.00  0.00    +0.049 A 
ATOM      5  C   UNL     1      -2.918  -8.225   0.010  0.00  0.00    +0.043 A 
ATOM      6  C   UNL     1      -4.190  -8.075  -0.518  0.00  0.00    +0.024 A 
ATOM      7  C   UNL     1      -4.481  -7.005  -1.342  0.00  0.00    +0.050 A 
ATOM      8  C   UNL     1      -3.498  -6.076  -1.641  0.00  0.00    +0.157 A 
ATOM      9  O   UNL     1      -3.488  -4.953  -2.401  0.00  0.00    -0.407 OA
ATOM     10  C   UNL     1      -2.265  -4.402  -2.358  0.00  0.00    +0.423 A 
ATOM     11  O   UNL     1      -1.934  -3.381  -2.931  0.00  0.00    -0.223 OA
ATOM     12 CL   UNL     1      -2.562  -9.573   1.044  0.00  0.00    -0.083 Cl
ENDBRANCH   1   2
BRANCH   1  13
ATOM     13  N   UNL     1       0.060  -4.195  -0.006  0.00  0.00    -0.326 N 
ATOM     14  H   UNL     1       0.079  -4.700   0.822  0.00  0.00    +0.148 HD
BRANCH  13  19
ATOM     15  C   UNL     1       0.367   1.466   0.120  0.00  0.00    +0.044 C 
ATOM     16  C   UNL     1       0.286  -0.038   0.086  0.00  0.00    -0.050 A 
ATOM     17  C   UNL     1       0.308  -0.704  -1.126  0.00  0.00    +0.005 A 
ATOM     18  C   UNL     1       0.234  -2.082  -1.160  0.00  0.00    +0.023 A 
ATOM     19  C   UNL     1       0.136  -2.801   0.025  0.00  0.00    +0.031 A 
ATOM     20  C   UNL     1       0.114  -2.129   1.241  0.00  0.00    -0.029 A 
ATOM     21  C   UNL     1       0.194  -0.751   1.268  0.00  0.00    +0.008 A 
ATOM     22  C   UNL     1       0.007  -2.904   2.529  0.00  0.00    +0.045 C 
ENDBRANCH  13  19
ENDBRANCH   1  13
TORSDOF 3
