REMARK  Name = ZINC61094979
REMARK  3 active torsions:
REMARK  status: ('A' for Active; 'I' for Inactive)
REMARK    1  A    between atoms: C_3  and  N_21
REMARK    2  A    between atoms: C_6  and  C_7
REMARK    3  A    between atoms: N_11  and  C_12
REMARK                            x       y       z     vdW  Elec       q    Type
REMARK                         _______ _______ _______ _____ _____    ______ ____
ROOT
ATOM      1  C   UNL     1      -1.243  -0.906   0.329  0.00  0.00    +0.187 A 
ATOM      2  N   UNL     1      -2.433  -0.392   0.564  0.00  0.00    -0.108 NA
ATOM      3  N   UNL     1      -3.352  -1.141   0.070  0.00  0.00    -0.022 NA
ATOM      4  N   UNL     1      -2.836  -2.171  -0.507  0.00  0.00    -0.039 NA
ATOM      5  N   UNL     1      -1.441  -2.061  -0.369  0.00  0.00    -0.190 N 
ENDROOT
BRANCH   5   6
ATOM      6  C   UNL     1      -0.465  -2.948  -0.845  0.00  0.00    +0.107 A 
ATOM      7  C   UNL     1       0.518  -2.498  -1.716  0.00  0.00    +0.072 A 
ATOM      8  C   UNL     1       1.480  -3.374  -2.184  0.00  0.00    +0.161 A 
ATOM      9  C   UNL     1       1.463  -4.702  -1.784  0.00  0.00    +0.161 A 
ATOM     10  C   UNL     1       0.484  -5.153  -0.916  0.00  0.00    +0.081 A 
ATOM     11  C   UNL     1      -0.476  -4.278  -0.441  0.00  0.00    +0.152 A 
ATOM     12  F   UNL     1      -1.429  -4.717   0.411  0.00  0.00    -0.203 F 
ATOM     13  F   UNL     1       2.404  -5.557  -2.243  0.00  0.00    -0.202 F 
ATOM     14  F   UNL     1       2.437  -2.937  -3.032  0.00  0.00    -0.202 F 
ENDBRANCH   5   6
BRANCH   1  20
ATOM     15  C   UNL     1       0.156   1.015   1.076  0.00  0.00    +0.013 A 
ATOM     16  C   UNL     1       1.370   1.542   1.458  0.00  0.00    +0.023 A 
ATOM     17  C   UNL     1       2.498   0.730   1.507  0.00  0.00    +0.025 A 
ATOM     18  C   UNL     1       2.404  -0.617   1.173  0.00  0.00    +0.023 A 
ATOM     19  C   UNL     1       1.193  -1.150   0.790  0.00  0.00    +0.013 A 
ATOM     20  C   UNL     1       0.059  -0.337   0.739  0.00  0.00    +0.021 A 
BRANCH  17  21
ATOM     21  N   UNL     1       3.726   1.267   1.893  0.00  0.00    -0.358 N 
ATOM     22  H   UNL     1       3.793   2.206   2.127  0.00  0.00    +0.142 HD
ATOM     23  H   UNL     1       4.513   0.701   1.928  0.00  0.00    +0.142 HD
ENDBRANCH  17  21
ENDBRANCH   1  20
TORSDOF 3
