REMARK  Name = ZINC39895223
REMARK  13 active torsions:
REMARK  status: ('A' for Active; 'I' for Inactive)
REMARK    1  A    between atoms: C_1  and  C_2
REMARK    2  A    between atoms: C_2  and  C_3
REMARK    3  A    between atoms: C_10  and  N_17
REMARK    4  A    between atoms: C_11  and  C_12
REMARK    5  A    between atoms: C_12  and  O_14
REMARK    6  A    between atoms: O_14  and  C_15
REMARK    7  A    between atoms: C_15  and  C_16
REMARK    8  A    between atoms: C_18  and  C_20
REMARK    9  A    between atoms: C_20  and  S_21
REMARK   10  A    between atoms: S_21  and  C_22
REMARK   11  A    between atoms: N_26  and  C_27
REMARK   12  A    between atoms: C_30  and  C_34
REMARK   13  A    between atoms: C_31  and  C_33
REMARK                            x       y       z     vdW  Elec       q    Type
REMARK                         _______ _______ _______ _____ _____    ______ ____
ROOT
ATOM      1  N   UNL     1       1.320  -2.047  -7.403  0.00  0.00    -0.279 N 
ATOM      2  C   UNL     1       0.720  -1.298  -8.349  0.00  0.00    +0.228 C 
ATOM      3  O   UNL     1       0.007  -0.372  -8.027  0.00  0.00    -0.275 OA
ATOM      4  H   UNL     1       1.891  -2.788  -7.660  0.00  0.00    +0.155 HD
ENDROOT
BRANCH   1  11
ATOM      5  C   UNL     1       0.718  -0.497  -1.257  0.00  0.00    -0.006 C 
ATOM      6  C   UNL     1       0.845  -2.023  -1.210  0.00  0.00    +0.008 C 
ATOM      7  C   UNL     1       1.769  -2.503  -2.332  0.00  0.00    +0.037 C 
ATOM      8  C   UNL     1       1.285  -1.912  -3.648  0.00  0.00    -0.021 A 
ATOM      9  C   UNL     1       0.457  -0.847  -3.677  0.00  0.00    -0.004 A 
ATOM     10  S   UNL     1       0.183  -0.536  -5.396  0.00  0.00    -0.077 S 
ATOM     11  C   UNL     1       1.121  -1.759  -6.062  0.00  0.00    +0.086 A 
ATOM     12  C   UNL     1       1.652  -2.416  -4.961  0.00  0.00    +0.091 A 
ATOM     13  C   UNL     1      -0.094  -0.102  -2.499  0.00  0.00    +0.046 C 
BRANCH   5  15
ATOM     14  C   UNL     1      -0.019   1.526   0.010  0.00  0.00    +0.004 C 
ATOM     15  C   UNL     1       0.002  -0.004   0.002  0.00  0.00    +0.000 C 
ENDBRANCH   5  15
BRANCH  12  16
ATOM     16  C   UNL     1       2.543  -3.567  -5.115  0.00  0.00    +0.342 C 
ATOM     17  O   UNL     1       2.082  -4.691  -5.164  0.00  0.00    -0.245 OA
BRANCH  16  18
ATOM     18  O   UNL     1       3.876  -3.381  -5.203  0.00  0.00    -0.461 OA
BRANCH  18  19
ATOM     19  C   UNL     1       4.686  -4.549  -5.352  0.00  0.00    +0.229 C 
ATOM     20  C   UNL     1       6.159  -4.141  -5.434  0.00  0.00    +0.048 C 
ENDBRANCH  18  19
ENDBRANCH  16  18
ENDBRANCH  12  16
ENDBRANCH   1  11
BRANCH   2  21
ATOM     21  C   UNL     1       0.936  -1.611  -9.807  0.00  0.00    +0.173 C 
BRANCH  21  22
ATOM     22  S   UNL     1       0.003  -0.434 -10.823  0.00  0.00    -0.075 S 
BRANCH  22  23
ATOM     23  C   UNL     1       0.354  -0.926 -12.478  0.00  0.00    +0.214 A 
ATOM     24  N   UNL     1       1.120  -1.930 -12.850  0.00  0.00    -0.101 NA
ATOM     25  N   UNL     1       1.162  -2.013 -14.130  0.00  0.00    -0.022 NA
ATOM     26  N   UNL     1       0.441  -1.088 -14.665  0.00  0.00    -0.038 NA
ATOM     27  N   UNL     1      -0.118  -0.346 -13.610  0.00  0.00    -0.187 N 
BRANCH  27  28
ATOM     28  C   UNL     1      -0.977   0.758 -13.707  0.00  0.00    +0.070 A 
ATOM     29  C   UNL     1      -1.974   0.948 -12.760  0.00  0.00    +0.028 A 
ATOM     30  C   UNL     1      -2.819   2.037 -12.857  0.00  0.00    +0.006 A 
ATOM     31  C   UNL     1      -2.672   2.936 -13.898  0.00  0.00    -0.047 A 
ATOM     32  C   UNL     1      -1.681   2.749 -14.842  0.00  0.00    -0.046 A 
ATOM     33  C   UNL     1      -0.829   1.665 -14.747  0.00  0.00    +0.031 A 
ATOM     34  C   UNL     1      -1.525   3.731 -15.975  0.00  0.00    +0.044 C 
ATOM     35  C   UNL     1      -3.596   4.122 -14.002  0.00  0.00    +0.044 C 
ENDBRANCH  27  28
ENDBRANCH  22  23
ENDBRANCH  21  22
ENDBRANCH   2  21
TORSDOF 9
