REMARK  Name = ZINC36598915
REMARK  20 active torsions:
REMARK  status: ('A' for Active; 'I' for Inactive)
REMARK    1  A    between atoms: C_1  and  C_2
REMARK    2  A    between atoms: C_2  and  C_3
REMARK    3  A    between atoms: C_3  and  C_4
REMARK    4  A    between atoms: C_3  and  C_6
REMARK    5  A    between atoms: C_4  and  C_5
REMARK    6  A    between atoms: C_6  and  C_8
REMARK    7  A    between atoms: C_6  and  N_19
REMARK    8  A    between atoms: N_10  and  C_11
REMARK    9  A    between atoms: C_11  and  C_12
REMARK   10  A    between atoms: C_11  and  C_13
REMARK   11  A    between atoms: C_11  and  C_14
REMARK   12  A    between atoms: C_14  and  C_15
REMARK   13  A    between atoms: C_15  and  C_16
REMARK   14  A    between atoms: C_15  and  C_17
REMARK   15  A    between atoms: C_15  and  C_18
REMARK   16  A    between atoms: N_19  and  C_20
REMARK   17  A    between atoms: C_20  and  C_21
REMARK   18  A    between atoms: C_24  and  C_26
REMARK   19  A    between atoms: C_27  and  C_29
REMARK   20  A    between atoms: C_29  and  C_30
REMARK                            x       y       z     vdW  Elec       q    Type
REMARK                         _______ _______ _______ _____ _____    ______ ____
ROOT
ATOM      1  N   UNL     1      -0.353   3.102  -3.903  0.00  0.00    -0.282 N 
ATOM      2  C   UNL     1      -1.294   3.613  -3.085  0.00  0.00    +0.221 C 
ATOM      3  O   UNL     1      -2.007   2.871  -2.442  0.00  0.00    -0.275 OA
ENDROOT
BRANCH   1   4
ATOM      4  C   UNL     1      -0.192   1.651  -4.017  0.00  0.00    +0.165 C 
BRANCH   4   5
ATOM      5  C   UNL     1      -0.598   1.207  -5.399  0.00  0.00    +0.234 C 
ATOM      6  O   UNL     1       0.091   1.493  -6.355  0.00  0.00    -0.274 OA
ATOM      7  N   UNL     1      -1.727   0.492  -5.572  0.00  0.00    -0.309 N 
ATOM      8  H   UNL     1      -2.312   0.318  -4.818  0.00  0.00    +0.149 HD
BRANCH   7   9
ATOM      9  C   UNL     1      -2.072  -0.022  -6.900  0.00  0.00    +0.030 C 
ATOM     10  C   UNL     1      -2.563   1.128  -7.781  0.00  0.00    +0.031 C 
ATOM     11  C   UNL     1      -0.836  -0.661  -7.537  0.00  0.00    +0.031 C 
BRANCH   9  12
ATOM     12  C   UNL     1      -3.178  -1.072  -6.769  0.00  0.00    +0.031 C 
BRANCH  12  13
ATOM     13  C   UNL     1      -2.825  -2.047  -5.644  0.00  0.00    -0.036 C 
ATOM     14  C   UNL     1      -3.081  -1.379  -4.292  0.00  0.00    +0.010 C 
ATOM     15  C   UNL     1      -3.692  -3.302  -5.766  0.00  0.00    +0.010 C 
ATOM     16  C   UNL     1      -1.349  -2.434  -5.750  0.00  0.00    +0.010 C 
ENDBRANCH  12  13
ENDBRANCH   9  12
ENDBRANCH   7   9
ENDBRANCH   4   5
BRANCH   4  17
ATOM     17  C   UNL     1       1.272   1.280  -3.772  0.00  0.00    +0.018 C 
BRANCH  17  19
ATOM     18  C   UNL     1       1.907   3.217  -2.328  0.00  0.00    +0.004 C 
ATOM     19  C   UNL     1       1.677   1.705  -2.359  0.00  0.00    +0.002 C 
ENDBRANCH  17  19
BRANCH  17  20
ATOM     20  C   UNL     1       1.447  -0.233  -3.919  0.00  0.00    +0.002 C 
ATOM     21  C   UNL     1       1.409  -0.609  -5.402  0.00  0.00    +0.004 C 
ENDBRANCH  17  20
ENDBRANCH   4  17
ENDBRANCH   1   4
BRANCH   1  22
ATOM     22  C   UNL     1       0.507   3.998  -4.679  0.00  0.00    +0.182 C 
BRANCH  22  23
ATOM     23  C   UNL     1      -0.209   4.420  -5.936  0.00  0.00    +0.122 A 
ATOM     24  C   UNL     1      -1.055   5.460  -6.048  0.00  0.00    +0.046 A 
ATOM     25  C   UNL     1      -1.493   5.489  -7.393  0.00  0.00    +0.045 A 
ATOM     26  C   UNL     1      -0.888   4.464  -8.021  0.00  0.00    +0.102 A 
ATOM     27  O   UNL     1      -0.108   3.824  -7.136  0.00  0.00    -0.463 OA
ATOM     28  C   UNL     1      -1.054   4.101  -9.474  0.00  0.00    +0.086 C 
ENDBRANCH  22  23
ENDBRANCH   1  22
BRANCH   2  29
ATOM     29  C   UNL     1      -1.461   5.106  -2.967  0.00  0.00    +0.131 C 
BRANCH  29  30
ATOM     30  C   UNL     1      -2.571   5.413  -1.996  0.00  0.00    -0.035 A 
ATOM     31  C   UNL     1      -3.872   5.531  -2.449  0.00  0.00    +0.008 A 
ATOM     32  C   UNL     1      -4.893   5.812  -1.561  0.00  0.00    +0.050 A 
ATOM     33  C   UNL     1      -4.615   5.977  -0.214  0.00  0.00    +0.166 A 
ATOM     34  C   UNL     1      -3.305   5.859   0.242  0.00  0.00    +0.166 A 
ATOM     35  C   UNL     1      -2.287   5.572  -0.652  0.00  0.00    +0.053 A 
ATOM     36  O   UNL     1      -3.293   6.063   1.592  0.00  0.00    -0.453 OA
ATOM     37  C   UNL     1      -4.544   6.709   1.894  0.00  0.00    +0.466 C 
ATOM     38  O   UNL     1      -5.425   6.255   0.849  0.00  0.00    -0.453 OA
ENDBRANCH  29  30
ENDBRANCH   2  29
TORSDOF 12
