REMARK  Name = ZINC17852128
REMARK  9 active torsions:
REMARK  status: ('A' for Active; 'I' for Inactive)
REMARK    1  A    between atoms: C_1  and  C_2
REMARK    2  A    between atoms: C_4  and  C_29
REMARK    3  A    between atoms: N_5  and  C_7
REMARK    4  A    between atoms: C_10  and  C_13
REMARK    5  A    between atoms: N_15  and  C_16
REMARK    6  A    between atoms: C_16  and  C_18
REMARK    7  A    between atoms: C_16  and  C_19
REMARK    8  A    between atoms: C_22  and  S_25
REMARK    9  A    between atoms: S_25  and  N_28
REMARK                            x       y       z     vdW  Elec       q    Type
REMARK                         _______ _______ _______ _____ _____    ______ ____
ROOT
ATOM      1  C   UNL     1      -4.600   4.938   5.448  0.00  0.00    +0.245 C 
ATOM      2  O   UNL     1      -5.249   4.186   6.149  0.00  0.00    -0.270 OA
ATOM      3  N   UNL     1      -3.522   4.478   4.784  0.00  0.00    -0.305 N 
ATOM      4  H   UNL     1      -3.004   5.079   4.225  0.00  0.00    +0.150 HD
ENDROOT
BRANCH   1   8
ATOM      5  C   UNL     1      -5.733   9.017   5.095  0.00  0.00    +0.066 A 
ATOM      6  C   UNL     1      -6.477   8.157   5.896  0.00  0.00    +0.028 A 
ATOM      7  C   UNL     1      -6.112   6.834   6.013  0.00  0.00    +0.015 A 
ATOM      8  C   UNL     1      -4.994   6.356   5.325  0.00  0.00    +0.037 A 
ATOM      9  C   UNL     1      -4.247   7.223   4.525  0.00  0.00    +0.015 A 
ATOM     10  C   UNL     1      -4.620   8.544   4.409  0.00  0.00    +0.028 A 
BRANCH   5  15
ATOM     11  C   UNL     1      -8.547  13.087   4.799  0.00  0.00    +0.069 C 
ATOM     12  C   UNL     1      -7.363  12.156   4.849  0.00  0.00    +0.079 A 
ATOM     13  C   UNL     1      -6.018  12.536   4.767  0.00  0.00    +0.085 A 
ATOM     14  C   UNL     1      -5.261  11.417   4.854  0.00  0.00    +0.060 A 
ATOM     15  N   UNL     1      -6.106  10.359   4.978  0.00  0.00    -0.235 N 
ATOM     16  N   UNL     1      -7.417  10.855   4.975  0.00  0.00    -0.170 NA
ATOM     17  C   UNL     1      -3.756  11.355   4.817  0.00  0.00    +0.067 C 
ATOM     18 CL   UNL     1      -5.424  14.158   4.593  0.00  0.00    -0.080 Cl
ENDBRANCH   5  15
ENDBRANCH   1   8
BRANCH   3  19
ATOM     19  C   UNL     1      -3.131   3.072   4.906  0.00  0.00    +0.100 C 
ATOM     20  C   UNL     1      -2.259   2.891   6.150  0.00  0.00    +0.033 C 
BRANCH  19  21
ATOM     21  C   UNL     1      -2.353   2.659   3.683  0.00  0.00    -0.027 A 
ATOM     22  C   UNL     1      -2.559   1.412   3.122  0.00  0.00    +0.007 A 
ATOM     23  C   UNL     1      -1.846   1.033   2.000  0.00  0.00    +0.029 A 
ATOM     24  C   UNL     1      -0.927   1.900   1.439  0.00  0.00    +0.105 A 
ATOM     25  C   UNL     1      -0.717   3.145   2.004  0.00  0.00    +0.029 A 
ATOM     26  C   UNL     1      -1.435   3.526   3.122  0.00  0.00    +0.007 A 
BRANCH  24  27
ATOM     27  S   UNL     1      -0.017   1.417   0.010  0.00  0.00    +0.056 S 
ATOM     28  O   UNL     1       0.002  -0.004   0.002  0.00  0.00    -0.153 OA
ATOM     29  O   UNL     1       1.172   2.195   0.003  0.00  0.00    -0.153 OA
BRANCH  27  30
ATOM     30  N   UNL     1      -0.897   1.885  -1.312  0.00  0.00    -0.204 NA
ATOM     31  H   UNL     1      -1.747   2.338  -1.194  0.00  0.00    +0.144 HD
ATOM     32  H   UNL     1      -0.563   1.708  -2.205  0.00  0.00    +0.144 HD
ENDBRANCH  27  30
ENDBRANCH  24  27
ENDBRANCH  19  21
ENDBRANCH   3  19
TORSDOF 6
