REMARK  Name = ZINC15402323
REMARK  10 active torsions:
REMARK  status: ('A' for Active; 'I' for Inactive)
REMARK    1  A    between atoms: C_1  and  C_2
REMARK    2  A    between atoms: C_2  and  O_3
REMARK    3  A    between atoms: O_3  and  C_4
REMARK    4  A    between atoms: C_4  and  C_6
REMARK    5  A    between atoms: C_12  and  C_13
REMARK    6  A    between atoms: C_12  and  N_68
REMARK    7  A    between atoms: N_15  and  C_16
REMARK    8  A    between atoms: C_17  and  C_28
REMARK    9  A    between atoms: C_18  and  C_27
REMARK   10  A    between atoms: C_19  and  C_21
REMARK                            x       y       z     vdW  Elec       q    Type
REMARK                         _______ _______ _______ _____ _____    ______ ____
ROOT
ATOM      1  C   UNL     1      -1.238   0.867 -10.807  0.00  0.00    +0.085 A 
ATOM      2  C   UNL     1      -0.875   0.673 -12.138  0.00  0.00    +0.069 A 
ATOM      3  C   UNL     1      -1.796   1.038 -13.120  0.00  0.00    -0.022 A 
ATOM      4  C   UNL     1      -2.985   1.558 -12.710  0.00  0.00    +0.025 A 
ATOM      5  S   UNL     1      -2.831   1.536 -10.934  0.00  0.00    -0.072 S 
ATOM      6  C   UNL     1      -1.486   0.863 -14.584  0.00  0.00    +0.046 C 
ENDROOT
BRANCH   2   7
ATOM      7  C   UNL     1       0.430   0.106 -12.494  0.00  0.00    +0.249 C 
ATOM      8  O   UNL     1       0.558  -1.099 -12.614  0.00  0.00    -0.270 OA
ATOM      9  N   UNL     1       1.488   0.918 -12.689  0.00  0.00    -0.293 N 
ATOM     10  C   UNL     1       1.357   2.378 -12.555  0.00  0.00    +0.136 C 
ATOM     11  C   UNL     1       2.473   2.876 -11.623  0.00  0.00    +0.179 C 
ATOM     12  O   UNL     1       3.731   2.393 -12.100  0.00  0.00    -0.377 OA
ATOM     13  C   UNL     1       3.851   0.969 -12.097  0.00  0.00    +0.179 C 
ATOM     14  C   UNL     1       2.807   0.372 -13.047  0.00  0.00    +0.136 C 
ENDBRANCH   2   7
BRANCH   4  15
ATOM     15  C   UNL     1      -4.123   2.020 -13.532  0.00  0.00    -0.011 A 
ATOM     16  C   UNL     1      -4.729   3.248 -13.262  0.00  0.00    +0.009 A 
ATOM     17  C   UNL     1      -5.788   3.676 -14.036  0.00  0.00    +0.001 A 
ATOM     18  C   UNL     1      -6.255   2.886 -15.072  0.00  0.00    +0.000 A 
ATOM     19  C   UNL     1      -5.661   1.666 -15.342  0.00  0.00    +0.001 A 
ATOM     20  C   UNL     1      -4.599   1.228 -14.578  0.00  0.00    +0.009 A 
ENDBRANCH   4  15
BRANCH   1  23
ATOM     21  C   UNL     1      -1.031   0.846  -8.449  0.00  0.00    +0.201 C 
ATOM     22  O   UNL     1      -2.142   1.324  -8.357  0.00  0.00    -0.278 OA
ATOM     23  N   UNL     1      -0.507   0.587  -9.664  0.00  0.00    -0.281 N 
ATOM     24  H   UNL     1       0.381   0.205  -9.737  0.00  0.00    +0.155 HD
BRANCH  21  25
ATOM     25  C   UNL     1      -0.236   0.542  -7.205  0.00  0.00    +0.019 C 
BRANCH  25  31
ATOM     26  C   UNL     1      -1.911   2.987  -4.882  0.00  0.00    +0.081 C 
ATOM     27  C   UNL     1      -1.317   2.496  -3.559  0.00  0.00    +0.011 C 
ATOM     28  C   UNL     1      -1.208   0.969  -3.592  0.00  0.00    -0.018 C 
ATOM     29  C   UNL     1      -0.348   0.550  -4.787  0.00  0.00    -0.078 C 
ATOM     30  C   UNL     1      -1.031   2.509  -6.039  0.00  0.00    -0.064 C 
ATOM     31  N   UNL     1      -0.987   1.032  -6.030  0.00  0.00    +0.386 N 
ATOM     32  H   UNL     1      -1.947   0.670  -6.074  0.00  0.00    -0.081 HD
BRANCH  26  33
ATOM     33  C   UNL     1      -1.967   4.493  -4.880  0.00  0.00    +0.308 C 
ATOM     34  O   UNL     1      -1.364   5.120  -5.718  0.00  0.00    -0.251 OA
BRANCH  33  35
ATOM     35  O   UNL     1      -2.686   5.136  -3.947  0.00  0.00    -0.465 OA
BRANCH  35  37
ATOM     36  C   UNL     1      -3.560   7.139  -2.872  0.00  0.00    +0.048 C 
ATOM     37  C   UNL     1      -2.694   6.587  -4.006  0.00  0.00    +0.229 C 
ENDBRANCH  35  37
ENDBRANCH  33  35
ENDBRANCH  26  33
ENDBRANCH  25  31
ENDBRANCH  21  25
ENDBRANCH   1  23
TORSDOF 8
