REMARK  Name = ZINC38903467
REMARK  11 active torsions:
REMARK  status: ('A' for Active; 'I' for Inactive)
REMARK    1  A    between atoms: C_1  and  C_2
REMARK    2  A    between atoms: C_2  and  C_4
REMARK    3  A    between atoms: C_2  and  N_11
REMARK    4  A    between atoms: C_12  and  C_14
REMARK    5  A    between atoms: N_19  and  C_21
REMARK    6  A    between atoms: C_21  and  C_22
REMARK    7  A    between atoms: C_24  and  C_27
REMARK    8  A    between atoms: C_30  and  C_33
REMARK    9  A    between atoms: C_33  and  C_34
REMARK   10  A    between atoms: C_33  and  C_35
REMARK   11  A    between atoms: C_33  and  C_36
REMARK                            x       y       z     vdW  Elec       q    Type
REMARK                         _______ _______ _______ _____ _____    ______ ____
ROOT
ATOM      1  C   UNL     1       0.712  -1.094  -3.598  0.00  0.00    +0.058 C 
ATOM      2  C   UNL     1       1.282  -2.493  -3.347  0.00  0.00    +0.009 C 
ATOM      3  C   UNL     1       1.928  -3.009  -4.636  0.00  0.00    -0.018 C 
ATOM      4  C   UNL     1       0.890  -3.000  -5.760  0.00  0.00    -0.078 C 
ATOM      5  N   UNL     1       0.402  -1.632  -5.969  0.00  0.00    +0.386 N 
ATOM      6  C   UNL     1      -0.282  -1.155  -4.761  0.00  0.00    -0.065 C 
ATOM      7  H   UNL     1       1.182  -1.025  -6.173  0.00  0.00    -0.081 HD
ENDROOT
BRANCH   1   9
ATOM      8  N   UNL     1       0.688  -0.476  -1.203  0.00  0.00    -0.309 N 
ATOM      9  C   UNL     1       0.006  -0.608  -2.358  0.00  0.00    +0.215 C 
ATOM     10  O   UNL     1      -1.175  -0.336  -2.400  0.00  0.00    -0.276 OA
ATOM     11  H   UNL     1       1.632  -0.695  -1.170  0.00  0.00    +0.149 HD
BRANCH   8  13
ATOM     12  C   UNL     1      -0.019   1.526   0.010  0.00  0.00    +0.033 C 
ATOM     13  C   UNL     1       0.002  -0.004   0.002  0.00  0.00    +0.100 C 
BRANCH  13  14
ATOM     14  C   UNL     1       0.731  -0.503   1.223  0.00  0.00    -0.027 A 
ATOM     15  C   UNL     1       2.113  -0.513   1.246  0.00  0.00    +0.008 A 
ATOM     16  C   UNL     1       2.783  -0.971   2.365  0.00  0.00    +0.038 A 
ATOM     17  C   UNL     1       2.068  -1.419   3.464  0.00  0.00    +0.123 A 
ATOM     18  C   UNL     1       0.684  -1.408   3.439  0.00  0.00    +0.038 A 
ATOM     19  C   UNL     1       0.017  -0.945   2.321  0.00  0.00    +0.008 A 
ATOM     20  F   UNL     1       2.722  -1.866   4.558  0.00  0.00    -0.205 F 
ENDBRANCH  13  14
ENDBRANCH   8  13
ENDBRANCH   1   9
BRANCH   5  21
ATOM     21  C   UNL     1      -0.536  -1.615  -7.099  0.00  0.00    +0.022 C 
BRANCH  21  22
ATOM     22  C   UNL     1       0.197  -1.976  -8.366  0.00  0.00    +0.211 A 
ATOM     23  N   UNL     1       0.345  -3.179  -8.842  0.00  0.00    -0.193 NA
ATOM     24  C   UNL     1       1.051  -3.137  -9.987  0.00  0.00    +0.202 A 
ATOM     25  N   UNL     1       1.357  -1.890 -10.244  0.00  0.00    -0.056 NA
ATOM     26  O   UNL     1       0.800  -1.114  -9.194  0.00  0.00    -0.340 OA
BRANCH  24  27
ATOM     27  C   UNL     1       1.421  -4.309 -10.819  0.00  0.00    +0.022 A 
ATOM     28  C   UNL     1       1.029  -5.590 -10.437  0.00  0.00    +0.012 A 
ATOM     29  C   UNL     1       1.377  -6.676 -11.214  0.00  0.00    +0.005 A 
ATOM     30  C   UNL     1       2.114  -6.495 -12.370  0.00  0.00    -0.042 A 
ATOM     31  C   UNL     1       2.506  -5.225 -12.755  0.00  0.00    +0.005 A 
ATOM     32  C   UNL     1       2.158  -4.131 -11.988  0.00  0.00    +0.012 A 
BRANCH  30  33
ATOM     33  C   UNL     1       2.491  -7.685 -13.215  0.00  0.00    -0.013 C 
ATOM     34  C   UNL     1       1.222  -8.395 -13.691  0.00  0.00    +0.015 C 
ATOM     35  C   UNL     1       3.297  -7.215 -14.427  0.00  0.00    +0.015 C 
ATOM     36  C   UNL     1       3.336  -8.652 -12.384  0.00  0.00    +0.015 C 
ENDBRANCH  30  33
ENDBRANCH  24  27
ENDBRANCH  21  22
ENDBRANCH   5  21
TORSDOF 7
