REMARK  Name = ZINC38546141
REMARK  9 active torsions:
REMARK  status: ('A' for Active; 'I' for Inactive)
REMARK    1  A    between atoms: C_1  and  O_2
REMARK    2  A    between atoms: O_2  and  C_3
REMARK    3  A    between atoms: C_7  and  C_11
REMARK    4  A    between atoms: C_8  and  O_9
REMARK    5  A    between atoms: O_9  and  C_10
REMARK    6  A    between atoms: C_11  and  C_13
REMARK    7  A    between atoms: C_11  and  N_30
REMARK    8  A    between atoms: C_17  and  N_18
REMARK    9  A    between atoms: C_19  and  C_21
REMARK                            x       y       z     vdW  Elec       q    Type
REMARK                         _______ _______ _______ _____ _____    ______ ____
ROOT
ATOM      1  C   UNL     1      -2.551  -4.174   0.008  0.00  0.00    -0.000 C 
ENDROOT
BRANCH   1   2
ATOM      2  C   UNL     1      -2.408  -4.948  -1.278  0.00  0.00    -0.025 A 
ATOM      3  C   UNL     1      -3.459  -4.981  -2.194  0.00  0.00    -0.033 A 
ATOM      4  C   UNL     1      -3.254  -5.700  -3.330  0.00  0.00    -0.005 A 
ATOM      5  S   UNL     1      -1.609  -6.334  -3.142  0.00  0.00    -0.078 S 
ATOM      6  C   UNL     1      -1.251  -5.610  -1.549  0.00  0.00    +0.074 A 
ATOM      7  C   UNL     1      -4.205  -5.902  -4.465  0.00  0.00    +0.043 C 
ATOM      8  C   UNL     1      -5.606  -5.474  -4.003  0.00  0.00    +0.005 C 
ATOM      9  C   UNL     1      -5.500  -4.112  -3.312  0.00  0.00    +0.005 C 
ATOM     10  C   UNL     1      -4.785  -4.261  -1.968  0.00  0.00    +0.036 C 
BRANCH   6  11
ATOM     11  N   UNL     1      -0.088  -5.701  -0.781  0.00  0.00    -0.273 N 
ATOM     12  C   UNL     1       0.924  -6.494  -1.184  0.00  0.00    +0.284 C 
ATOM     13  O   UNL     1       0.825  -7.131  -2.217  0.00  0.00    -0.266 OA
ATOM     14  H   UNL     1      -0.009  -5.194   0.042  0.00  0.00    +0.156 HD
BRANCH  12  15
ATOM     15  C   UNL     1       2.145  -6.590  -0.378  0.00  0.00    +0.189 A 
ATOM     16  C   UNL     1       3.243  -7.347  -0.672  0.00  0.00    +0.054 A 
ATOM     17  C   UNL     1       4.167  -7.138   0.364  0.00  0.00    +0.042 A 
ATOM     18  C   UNL     1       3.599  -6.273   1.234  0.00  0.00    +0.196 A 
ATOM     19  O   UNL     1       2.383  -5.941   0.780  0.00  0.00    -0.458 OA
ENDBRANCH  12  15
ENDBRANCH   6  11
ENDBRANCH   1   2
BRANCH   1  20
ATOM     20  N   UNL     1      -3.836  -4.505   0.638  0.00  0.00    +0.387 N 
ATOM     21  C   UNL     1      -3.913  -3.864   1.956  0.00  0.00    -0.078 C 
ATOM     22  C   UNL     1      -5.282  -4.139   2.582  0.00  0.00    -0.019 C 
ATOM     23  C   UNL     1      -5.473  -5.651   2.736  0.00  0.00    -0.004 C 
ATOM     24  C   UNL     1      -5.317  -6.317   1.366  0.00  0.00    -0.019 C 
ATOM     25  C   UNL     1      -3.947  -5.962   0.785  0.00  0.00    -0.078 C 
ATOM     26  H   UNL     1      -4.590  -4.169   0.058  0.00  0.00    -0.080 HD
ENDBRANCH   1  20
BRANCH   1  31
ATOM     27  C   UNL     1      -1.245  -0.718  -0.816  0.00  0.00    +0.162 A 
ATOM     28  C   UNL     1      -2.418   0.020  -0.826  0.00  0.00    +0.049 A 
ATOM     29  C   UNL     1      -3.626  -0.600  -0.568  0.00  0.00    +0.004 A 
ATOM     30  C   UNL     1      -3.668  -1.955  -0.299  0.00  0.00    +0.006 A 
ATOM     31  C   UNL     1      -2.502  -2.697  -0.286  0.00  0.00    -0.011 A 
ATOM     32  C   UNL     1      -1.288  -2.083  -0.551  0.00  0.00    +0.163 A 
BRANCH  27  34
ATOM     33  C   UNL     1      -0.088   1.294  -1.334  0.00  0.00    +0.277 C 
ATOM     34  O   UNL     1      -0.055  -0.110  -1.070  0.00  0.00    -0.491 OA
ENDBRANCH  27  34
BRANCH  32  35
ATOM     35  O   UNL     1      -0.140  -2.813  -0.545  0.00  0.00    -0.491 OA
ATOM     36  C   UNL     1       0.552  -2.924   0.700  0.00  0.00    +0.277 C 
ENDBRANCH  32  35
ENDBRANCH   1  31
TORSDOF 7
