REMARK  Name = ZINC48149761
REMARK  7 active torsions:
REMARK  status: ('A' for Active; 'I' for Inactive)
REMARK    1  A    between atoms: C_1  and  C_2
REMARK    2  A    between atoms: C_2  and  C_4
REMARK    3  A    between atoms: C_2  and  N_14
REMARK    4  A    between atoms: C_7  and  S_10
REMARK    5  A    between atoms: S_10  and  N_13
REMARK    6  A    between atoms: N_17  and  C_18
REMARK    7  A    between atoms: C_23  and  N_24
REMARK                            x       y       z     vdW  Elec       q    Type
REMARK                         _______ _______ _______ _____ _____    ______ ____
ROOT
ATOM      1  N   UNL     1      -1.393  -0.485   0.002  0.00  0.00    -0.293 N 
ATOM      2  C   UNL     1      -2.041  -0.643   1.173  0.00  0.00    +0.304 C 
ATOM      3  O   UNL     1      -1.486  -0.361   2.217  0.00  0.00    -0.252 OA
ATOM      4  N   UNL     1      -3.304  -1.113   1.186  0.00  0.00    -0.268 N 
ATOM      5  H   UNL     1      -1.836  -0.710  -0.832  0.00  0.00    +0.151 HD
ATOM      6  H   UNL     1      -3.770  -1.276   0.351  0.00  0.00    +0.156 HD
ENDROOT
BRANCH   4   7
ATOM      7  C   UNL     1      -3.944  -1.366   2.406  0.00  0.00    +0.060 A 
ATOM      8  C   UNL     1      -3.699  -0.552   3.502  0.00  0.00    +0.025 A 
ATOM      9  C   UNL     1      -4.332  -0.804   4.705  0.00  0.00    +0.002 A 
ATOM     10  C   UNL     1      -5.209  -1.867   4.820  0.00  0.00    +0.002 A 
ATOM     11  C   UNL     1      -5.459  -2.683   3.733  0.00  0.00    +0.029 A 
ATOM     12  C   UNL     1      -4.833  -2.434   2.520  0.00  0.00    +0.087 A 
BRANCH  12  13
ATOM     13  N   UNL     1      -5.089  -3.258   1.415  0.00  0.00    -0.238 N 
ATOM     14  C   UNL     1      -6.002  -4.253   1.359  0.00  0.00    +0.114 A 
ATOM     15  C   UNL     1      -5.938  -4.802   0.123  0.00  0.00    +0.041 A 
ATOM     16  C   UNL     1      -4.954  -4.119  -0.601  0.00  0.00    +0.135 A 
ATOM     17  N   UNL     1      -4.449  -3.190   0.170  0.00  0.00    -0.175 NA
ENDBRANCH  12  13
ENDBRANCH   4   7
BRANCH   1  19
ATOM     18  C   UNL     1      -0.045   1.556   0.011  0.00  0.00    +0.033 C 
ATOM     19  C   UNL     1      -0.020   0.026  -0.013  0.00  0.00    +0.102 C 
BRANCH  19  20
ATOM     20  C   UNL     1       0.678  -0.445  -1.263  0.00  0.00    -0.027 A 
ATOM     21  C   UNL     1      -0.000  -0.466  -2.467  0.00  0.00    +0.007 A 
ATOM     22  C   UNL     1       0.640  -0.898  -3.613  0.00  0.00    +0.029 A 
ATOM     23  C   UNL     1       1.959  -1.308  -3.555  0.00  0.00    +0.105 A 
ATOM     24  C   UNL     1       2.637  -1.286  -2.351  0.00  0.00    +0.029 A 
ATOM     25  C   UNL     1       1.998  -0.850  -1.206  0.00  0.00    +0.007 A 
BRANCH  23  26
ATOM     26  S   UNL     1       2.775  -1.860  -5.016  0.00  0.00    +0.056 S 
ATOM     27  O   UNL     1       3.837  -2.705  -4.594  0.00  0.00    -0.153 OA
ATOM     28  O   UNL     1       1.759  -2.301  -5.907  0.00  0.00    -0.153 OA
BRANCH  26  29
ATOM     29  N   UNL     1       3.475  -0.533  -5.717  0.00  0.00    -0.204 NA
ATOM     30  H   UNL     1       3.383   0.339  -5.303  0.00  0.00    +0.144 HD
ATOM     31  H   UNL     1       3.978  -0.629  -6.541  0.00  0.00    +0.144 HD
ENDBRANCH  26  29
ENDBRANCH  23  26
ENDBRANCH  19  20
ENDBRANCH   1  19
TORSDOF 6
