REMARK  Name = ZINC21579688
REMARK  11 active torsions:
REMARK  status: ('A' for Active; 'I' for Inactive)
REMARK    1  A    between atoms: C_1  and  C_2
REMARK    2  A    between atoms: C_2  and  C_3
REMARK    3  A    between atoms: C_3  and  C_28
REMARK    4  A    between atoms: N_6  and  N_10
REMARK    5  A    between atoms: C_11  and  C_13
REMARK    6  A    between atoms: C_13  and  N_14
REMARK    7  A    between atoms: N_14  and  C_15
REMARK    8  A    between atoms: N_14  and  C_16
REMARK    9  A    between atoms: C_16  and  C_17
REMARK   10  A    between atoms: N_19  and  C_20
REMARK   11  A    between atoms: C_25  and  C_26
REMARK                            x       y       z     vdW  Elec       q    Type
REMARK                         _______ _______ _______ _____ _____    ______ ____
ROOT
ATOM      1  C   UNL     1      -0.018   1.508   0.038  0.00  0.00    +0.020 C 
ENDROOT
BRANCH   1   3
ATOM      2  N   UNL     1      -1.158  -0.687   0.048  0.00  0.00    -0.225 N 
ATOM      3  C   UNL     1       0.001   0.001   0.031  0.00  0.00    +0.213 C 
ATOM      4  O   UNL     1       1.058  -0.593   0.009  0.00  0.00    -0.276 OA
ATOM      5  H   UNL     1      -2.117  -0.149   0.067  0.00  0.00    +0.173 HD
BRANCH   2   9
ATOM      6  C   UNL     1      -1.290  -4.282  -0.579  0.00  0.00    +0.111 C 
ATOM      7  C   UNL     1      -1.444  -2.844  -1.033  0.00  0.00    +0.263 C 
ATOM      8  O   UNL     1      -1.771  -2.455  -2.134  0.00  0.00    -0.271 OA
ATOM      9  N   UNL     1      -1.141  -2.088   0.041  0.00  0.00    -0.137 N 
ATOM     10  C   UNL     1      -0.827  -2.841   1.101  0.00  0.00    +0.326 C 
ATOM     11  O   UNL     1      -0.522  -2.386   2.186  0.00  0.00    -0.251 OA
ATOM     12  N   UNL     1      -0.887  -4.158   0.833  0.00  0.00    -0.284 N 
ATOM     13  C   UNL     1      -0.204  -4.993  -1.388  0.00  0.00    +0.041 C 
ATOM     14  H   UNL     1      -0.703  -5.061   1.433  0.00  0.00    +0.151 HD
BRANCH   6  16
ATOM     15  C   UNL     1      -2.501  -6.394  -0.018  0.00  0.00    +0.006 C 
ATOM     16  C   UNL     1      -2.621  -5.028  -0.695  0.00  0.00    +0.032 C 
ENDBRANCH   6  16
ENDBRANCH   2   9
ENDBRANCH   1   3
BRANCH   1  17
ATOM     17  N   UNL     1       1.361   2.014   0.016  0.00  0.00    +0.389 N 
ATOM     18  C   UNL     1       2.069   1.667   1.256  0.00  0.00    -0.095 C 
ATOM     19  H   UNL     1       1.886   1.529  -0.820  0.00  0.00    -0.081 HD
BRANCH  17  20
ATOM     20  C   UNL     1       1.385   3.465  -0.216  0.00  0.00    +0.019 C 
BRANCH  20  21
ATOM     21  C   UNL     1       2.802   3.908  -0.476  0.00  0.00    +0.201 C 
ATOM     22  O   UNL     1       3.703   3.096  -0.469  0.00  0.00    -0.278 OA
ATOM     23  N   UNL     1       3.068   5.207  -0.717  0.00  0.00    -0.287 N 
ATOM     24  H   UNL     1       2.244   5.929  -0.813  0.00  0.00    +0.155 HD
BRANCH  23  25
ATOM     25  C   UNL     1       4.394   5.638  -0.843  0.00  0.00    +0.036 A 
ATOM     26  C   UNL     1       5.419   4.920  -0.242  0.00  0.00    +0.024 A 
ATOM     27  C   UNL     1       6.726   5.348  -0.368  0.00  0.00    +0.017 A 
ATOM     28  C   UNL     1       7.014   6.490  -1.094  0.00  0.00    +0.018 A 
ATOM     29  C   UNL     1       5.995   7.207  -1.694  0.00  0.00    +0.020 A 
ATOM     30  C   UNL     1       4.686   6.781  -1.576  0.00  0.00    -0.028 A 
ATOM     31  C   UNL     1       3.577   7.559  -2.236  0.00  0.00    +0.046 C 
ATOM     32 BR   UNL     1       8.805   7.073  -1.265  0.00  0.00    -0.050 Br
ENDBRANCH  23  25
ENDBRANCH  20  21
ENDBRANCH  17  20
ENDBRANCH   1  17
TORSDOF 7
