REMARK  Name = ZINC09380440
REMARK  16 active torsions:
REMARK  status: ('A' for Active; 'I' for Inactive)
REMARK    1  A    between atoms: C_1  and  C_2
REMARK    2  A    between atoms: C_2  and  N_65
REMARK    3  A    between atoms: C_3  and  C_4
REMARK    4  A    between atoms: C_3  and  N_65
REMARK    5  A    between atoms: C_5  and  C_6
REMARK    6  A    between atoms: C_5  and  N_65
REMARK    7  A    between atoms: C_6  and  N_7
REMARK    8  A    between atoms: C_8  and  C_24
REMARK    9  A    between atoms: C_10  and  C_15
REMARK   10  A    between atoms: C_11  and  O_14
REMARK   11  A    between atoms: C_15  and  C_17
REMARK   12  A    between atoms: C_20  and  C_23
REMARK   13  A    between atoms: C_27  and  O_32
REMARK   14  A    between atoms: C_28  and  O_30
REMARK   15  A    between atoms: O_30  and  C_31
REMARK   16  A    between atoms: O_32  and  C_33
REMARK                            x       y       z     vdW  Elec       q    Type
REMARK                         _______ _______ _______ _____ _____    ______ ____
ROOT
ATOM      1  N   UNL     1      -1.649   8.186   0.350  0.00  0.00    -0.285 N 
ATOM      2  C   UNL     1      -1.190   7.876   1.709  0.00  0.00    +0.144 C 
ATOM      3  C   UNL     1       0.094   8.647   1.907  0.00  0.00    +0.071 C 
ATOM      4  C   UNL     1       0.325   9.324   0.757  0.00  0.00    +0.188 C 
ATOM      5  C   UNL     1      -0.760   9.033  -0.203  0.00  0.00    +0.282 C 
ATOM      6  O   UNL     1      -0.838   9.489  -1.327  0.00  0.00    -0.267 OA
ENDROOT
BRANCH   2   7
ATOM      7  C   UNL     1      -0.933   6.397   1.844  0.00  0.00    -0.019 A 
ATOM      8  C   UNL     1      -0.280   5.716   0.834  0.00  0.00    +0.009 A 
ATOM      9  C   UNL     1      -0.036   4.361   0.956  0.00  0.00    +0.050 A 
ATOM     10  C   UNL     1      -0.458   3.680   2.087  0.00  0.00    +0.162 A 
ATOM     11  C   UNL     1      -1.116   4.366   3.103  0.00  0.00    +0.162 A 
ATOM     12  C   UNL     1      -1.351   5.726   2.977  0.00  0.00    +0.055 A 
BRANCH  11  13
ATOM     13  O   UNL     1      -1.526   3.704   4.218  0.00  0.00    -0.491 OA
ATOM     14  C   UNL     1      -2.089   4.490   5.270  0.00  0.00    +0.277 C 
ENDBRANCH  11  13
BRANCH  10  15
ATOM     15  O   UNL     1      -0.224   2.345   2.206  0.00  0.00    -0.491 OA
ATOM     16  C   UNL     1       0.456   1.707   1.124  0.00  0.00    +0.277 C 
ENDBRANCH  10  15
ENDBRANCH   2   7
BRANCH   4  17
ATOM     17  O   UNL     1       1.381  10.137   0.525  0.00  0.00    -0.502 OA
ATOM     18  H   UNL     1       1.315  10.513  -0.399  0.00  0.00    +0.292 HD
ENDBRANCH   4  17
BRANCH   3  19
ATOM     19  C   UNL     1       0.929   8.659   3.111  0.00  0.00    +0.195 C 
ATOM     20  O   UNL     1       2.043   8.169   3.085  0.00  0.00    -0.287 OA
BRANCH  19  21
ATOM     21  C   UNL     1       0.419   9.267   4.359  0.00  0.00    +0.022 A 
ATOM     22  C   UNL     1      -0.885   9.763   4.415  0.00  0.00    +0.012 A 
ATOM     23  C   UNL     1      -1.356  10.325   5.583  0.00  0.00    +0.004 A 
ATOM     24  C   UNL     1      -0.537  10.406   6.695  0.00  0.00    -0.050 A 
ATOM     25  C   UNL     1       0.759   9.921   6.645  0.00  0.00    +0.004 A 
ATOM     26  C   UNL     1       1.241   9.353   5.485  0.00  0.00    +0.012 A 
ATOM     27  C   UNL     1      -1.057  11.026   7.967  0.00  0.00    +0.044 C 
ENDBRANCH  19  21
ENDBRANCH   3  19
BRANCH   1  28
ATOM     28  C   UNL     1      -2.860   7.666  -0.291  0.00  0.00    +0.090 C 
BRANCH  28  29
ATOM     29  C   UNL     1      -4.033   8.606  -0.004  0.00  0.00    -0.060 C 
BRANCH  29  30
ATOM     30  N   UNL     1      -5.241   8.080  -0.673  0.00  0.00    +0.380 N 
ATOM     31  H   UNL     1      -5.023   7.900  -1.661  0.00  0.00    -0.082 HD
BRANCH  30  33
ATOM     32  C   UNL     1      -6.075   7.057   1.417  0.00  0.00    -0.017 C 
ATOM     33  C   UNL     1      -5.660   6.814  -0.036  0.00  0.00    -0.082 C 
ENDBRANCH  30  33
BRANCH  30  34
ATOM     34  C   UNL     1      -6.334   9.072  -0.596  0.00  0.00    -0.082 C 
ATOM     35  C   UNL     1      -7.526   8.559  -1.407  0.00  0.00    -0.017 C 
ENDBRANCH  30  34
ENDBRANCH  29  30
ENDBRANCH  28  29
ENDBRANCH   1  28
TORSDOF 11
