REMARK  Name = ZINC09200900
REMARK  10 active torsions:
REMARK  status: ('A' for Active; 'I' for Inactive)
REMARK    1  A    between atoms: C_1  and  C_2
REMARK    2  A    between atoms: C_2  and  O_3
REMARK    3  A    between atoms: O_3  and  C_4
REMARK    4  A    between atoms: C_6  and  C_23
REMARK    5  A    between atoms: C_9  and  O_10
REMARK    6  A    between atoms: O_10  and  C_11
REMARK    7  A    between atoms: C_11  and  C_12
REMARK    8  A    between atoms: N_24  and  N_25
REMARK    9  A    between atoms: C_26  and  C_28
REMARK   10  A    between atoms: C_33  and  C_34
REMARK                            x       y       z     vdW  Elec       q    Type
REMARK                         _______ _______ _______ _____ _____    ______ ____
ROOT
ATOM      1  C   UNL     1      -6.341   1.836   1.050  0.00  0.00    +0.164 A 
ATOM      2  C   UNL     1      -7.531   2.538   1.100  0.00  0.00    +0.059 A 
ATOM      3  C   UNL     1      -8.120   2.994  -0.082  0.00  0.00    -0.001 A 
ATOM      4  C   UNL     1      -7.500   2.744  -1.309  0.00  0.00    +0.028 A 
ATOM      5  C   UNL     1      -6.310   2.048  -1.351  0.00  0.00    +0.064 A 
ATOM      6  C   UNL     1      -5.726   1.595  -0.176  0.00  0.00    +0.176 A 
ATOM      7 BR   UNL     1      -5.473   1.710  -3.013  0.00  0.00    -0.046 Br
ENDROOT
BRANCH   3   8
ATOM      8  C   UNL     1      -9.392   3.739  -0.034  0.00  0.00    +0.138 C 
ATOM      9  N   UNL     1      -9.937   4.163  -1.133  0.00  0.00    -0.187 NA
BRANCH   9  10
ATOM     10  N   UNL     1     -11.145   4.870  -1.088  0.00  0.00    -0.203 N 
ATOM     11  C   UNL     1     -11.711   5.311  -2.229  0.00  0.00    +0.264 C 
ATOM     12  O   UNL     1     -11.174   5.094  -3.298  0.00  0.00    -0.268 OA
ATOM     13  H   UNL     1     -11.574   5.043  -0.235  0.00  0.00    +0.178 HD
BRANCH  11  14
ATOM     14  C   UNL     1     -12.986   6.057  -2.181  0.00  0.00    +0.041 A 
ATOM     15  C   UNL     1     -13.674   6.194  -0.974  0.00  0.00    +0.013 A 
ATOM     16  C   UNL     1     -14.860   6.897  -0.935  0.00  0.00    +0.001 A 
ATOM     17  C   UNL     1     -15.375   7.455  -2.092  0.00  0.00    +0.000 A 
ATOM     18  C   UNL     1     -14.702   7.318  -3.292  0.00  0.00    +0.004 A 
ATOM     19  C   UNL     1     -13.511   6.622  -3.344  0.00  0.00    -0.038 A 
ATOM     20  C   UNL     1     -12.780   6.473  -4.653  0.00  0.00    +0.044 C 
ENDBRANCH  11  14
ENDBRANCH   9  10
ENDBRANCH   3   8
BRANCH   1  21
ATOM     21  O   UNL     1      -5.769   1.385   2.198  0.00  0.00    -0.489 OA
BRANCH  21  23
ATOM     22  C   UNL     1      -5.665   1.087   4.594  0.00  0.00    +0.048 C 
ATOM     23  C   UNL     1      -6.454   1.668   3.419  0.00  0.00    +0.226 C 
ENDBRANCH  21  23
ENDBRANCH   1  21
BRANCH   6  24
ATOM     24  O   UNL     1      -4.553   0.909  -0.223  0.00  0.00    -0.483 OA
BRANCH  24  25
ATOM     25  C   UNL     1      -3.349   1.676  -0.143  0.00  0.00    +0.265 C 
BRANCH  25  26
ATOM     26  C   UNL     1      -2.160   0.753  -0.210  0.00  0.00    -0.003 A 
ATOM     27  C   UNL     1      -2.342  -0.590  -0.336  0.00  0.00    +0.007 A 
ATOM     28  C   UNL     1      -1.255  -1.459  -0.395  0.00  0.00    +0.001 A 
ATOM     29  C   UNL     1       0.021  -0.989  -0.340  0.00  0.00    +0.008 A 
ATOM     30  C   UNL     1       0.249   0.392  -0.216  0.00  0.00    -0.018 A 
ATOM     31  C   UNL     1      -0.857   1.275  -0.151  0.00  0.00    -0.011 A 
ATOM     32  C   UNL     1      -0.629   2.657  -0.029  0.00  0.00    +0.009 A 
ATOM     33  C   UNL     1       0.647   3.126   0.026  0.00  0.00    +0.001 A 
ATOM     34  C   UNL     1       1.735   2.257  -0.038  0.00  0.00    +0.001 A 
ATOM     35  C   UNL     1       1.553   0.914  -0.157  0.00  0.00    +0.008 A 
ENDBRANCH  25  26
ENDBRANCH  24  25
ENDBRANCH   6  24
TORSDOF 8
