REMARK  Name = ZINC20928377
REMARK  9 active torsions:
REMARK  status: ('A' for Active; 'I' for Inactive)
REMARK    1  A    between atoms: C_1  and  C_2
REMARK    2  A    between atoms: C_2  and  S_3
REMARK    3  A    between atoms: S_3  and  N_6
REMARK    4  A    between atoms: N_10  and  C_24
REMARK    5  A    between atoms: C_11  and  C_13
REMARK    6  A    between atoms: C_11  and  C_14
REMARK    7  A    between atoms: N_16  and  C_17
REMARK    8  A    between atoms: C_26  and  C_31
REMARK    9  A    between atoms: C_28  and  C_30
REMARK                            x       y       z     vdW  Elec       q    Type
REMARK                         _______ _______ _______ _____ _____    ______ ____
ROOT
ATOM      1  N   UNL     1      -0.109  -4.486  -4.680  0.00  0.00    -0.170 NA
ATOM      2  C   UNL     1       0.195  -5.294  -3.490  0.00  0.00    +0.205 C 
ATOM      3  C   UNL     1       0.068  -4.428  -2.267  0.00  0.00    +0.236 C 
ATOM      4  O   UNL     1       0.055  -4.963  -1.179  0.00  0.00    -0.274 OA
ATOM      5  N   UNL     1      -0.036  -3.100  -2.324  0.00  0.00    -0.255 N 
ATOM      6  C   UNL     1      -0.118  -2.329  -3.557  0.00  0.00    +0.129 C 
ATOM      7  C   UNL     1       0.450  -3.125  -4.734  0.00  0.00    +0.145 C 
ATOM      8  C   UNL     1      -1.583  -1.989  -3.841  0.00  0.00    +0.043 C 
ENDROOT
BRANCH   5   9
ATOM      9  C   UNL     1      -0.061  -2.397  -1.115  0.00  0.00    +0.038 A 
ATOM     10  C   UNL     1       1.075  -2.340  -0.319  0.00  0.00    +0.027 A 
ATOM     11  C   UNL     1       1.046  -1.645   0.875  0.00  0.00    -0.048 A 
ATOM     12  C   UNL     1      -0.113  -1.007   1.278  0.00  0.00    +0.006 A 
ATOM     13  C   UNL     1      -1.246  -1.062   0.487  0.00  0.00    -0.048 A 
ATOM     14  C   UNL     1      -1.225  -1.758  -0.705  0.00  0.00    +0.027 A 
ATOM     15  C   UNL     1      -2.507  -0.365   0.930  0.00  0.00    +0.044 C 
ATOM     16  C   UNL     1       2.279  -1.583   1.740  0.00  0.00    +0.044 C 
ENDBRANCH   5   9
BRANCH   6  17
ATOM     17  C   UNL     1       0.666  -1.052  -3.397  0.00  0.00    +0.238 C 
ATOM     18  O   UNL     1       0.231  -0.013  -3.848  0.00  0.00    -0.273 OA
ATOM     19  N   UNL     1       1.850  -1.064  -2.755  0.00  0.00    -0.311 N 
ATOM     20  H   UNL     1       2.287  -2.018  -2.425  0.00  0.00    +0.149 HD
BRANCH  19  21
ATOM     21  C   UNL     1       2.556   0.193  -2.495  0.00  0.00    +0.073 C 
ATOM     22  C   UNL     1       3.284   0.632  -3.781  0.00  0.00    +0.022 C 
ATOM     23  C   UNL     1       3.562   2.109  -3.692  0.00  0.00    +0.002 C 
ATOM     24  C   UNL     1       4.967   2.410  -3.138  0.00  0.00    +0.000 C 
ATOM     25  C   UNL     1       5.350   1.500  -1.955  0.00  0.00    +0.000 C 
ATOM     26  C   UNL     1       4.211   1.295  -0.994  0.00  0.00    +0.002 C 
ATOM     27  C   UNL     1       3.471  -0.002  -1.380  0.00  0.00    +0.022 C 
ENDBRANCH  19  21
ENDBRANCH   6  17
BRANCH   1  28
ATOM     28  S   UNL     1      -1.042  -5.083  -5.911  0.00  0.00    +0.032 S 
ATOM     29  O   UNL     1      -1.866  -6.066  -5.298  0.00  0.00    -0.158 OA
ATOM     30  O   UNL     1      -1.616  -3.935  -6.521  0.00  0.00    -0.158 OA
BRANCH  28  32
ATOM     31  C   UNL     1      -0.627  -6.466  -8.235  0.00  0.00    +0.029 C 
ATOM     32  C   UNL     1       0.132  -5.873  -7.046  0.00  0.00    +0.182 C 
ENDBRANCH  28  32
ENDBRANCH   1  28
TORSDOF 5
