REMARK  Name = ZINC40267000
REMARK  5 active torsions:
REMARK  status: ('A' for Active; 'I' for Inactive)
REMARK    1  A    between atoms: C_1  and  O_2
REMARK    2  A    between atoms: O_2  and  C_3
REMARK    3  A    between atoms: C_3  and  C_5
REMARK    4  A    between atoms: C_10  and  N_11
REMARK    5  A    between atoms: C_23  and  C_25
REMARK                            x       y       z     vdW  Elec       q    Type
REMARK                         _______ _______ _______ _____ _____    ______ ____
ROOT
ATOM      1  N   UNL     1       1.780  -1.437  -3.278  0.00  0.00    -0.269 N 
ATOM      2  C   UNL     1       2.124  -2.121  -4.387  0.00  0.00    +0.307 C 
ATOM      3  O   UNL     1       1.892  -3.312  -4.462  0.00  0.00    -0.252 OA
ATOM      4  N   UNL     1       2.725  -1.486  -5.412  0.00  0.00    -0.272 N 
ATOM      5  C   UNL     1       2.917  -0.028  -5.385  0.00  0.00    +0.116 C 
ATOM      6  C   UNL     1       4.420   0.279  -5.362  0.00  0.00    +0.074 C 
ATOM      7  C   UNL     1       5.110  -0.593  -6.379  0.00  0.00    +0.040 A 
ATOM      8  C   UNL     1       4.580  -1.710  -6.923  0.00  0.00    +0.062 A 
ATOM      9  N   UNL     1       5.473  -2.220  -7.775  0.00  0.00    -0.348 N 
ATOM     10  C   UNL     1       6.537  -1.461  -7.784  0.00  0.00    +0.171 A 
ATOM     11  N   UNL     1       6.347  -0.433  -6.925  0.00  0.00    -0.349 N 
ATOM     12  H   UNL     1       6.974   0.282  -6.734  0.00  0.00    +0.166 HD
ATOM     13  C   UNL     1       3.210  -2.235  -6.585  0.00  0.00    +0.159 C 
ATOM     14  H   UNL     1       1.903  -0.475  -3.244  0.00  0.00    +0.156 HD
ATOM     15  H   UNL     1       5.351  -3.025  -8.302  0.00  0.00    +0.167 HD
ENDROOT
BRANCH  13  16
ATOM     16  C   UNL     1       2.281  -2.020  -7.752  0.00  0.00    +0.017 A 
ATOM     17  C   UNL     1       2.635  -1.151  -8.766  0.00  0.00    +0.009 A 
ATOM     18  C   UNL     1       1.784  -0.952  -9.837  0.00  0.00    +0.003 A 
ATOM     19  C   UNL     1       0.577  -1.623  -9.896  0.00  0.00    +0.041 A 
ATOM     20  C   UNL     1       0.219  -2.494  -8.882  0.00  0.00    +0.159 A 
ATOM     21  C   UNL     1       1.075  -2.697  -7.810  0.00  0.00    +0.164 A 
ATOM     22  F   UNL     1       0.731  -3.552  -6.822  0.00  0.00    -0.202 F 
ATOM     23  F   UNL     1      -0.961  -3.150  -8.938  0.00  0.00    -0.202 F 
ENDBRANCH  13  16
BRANCH   1  29
ATOM     24  C   UNL     1       1.435  -1.607  -0.885  0.00  0.00    +0.083 A 
ATOM     25  C   UNL     1       0.890  -2.288   0.207  0.00  0.00    +0.055 A 
ATOM     26  C   UNL     1       0.175  -3.450   0.004  0.00  0.00    +0.124 A 
ATOM     27  C   UNL     1      -0.005  -3.947  -1.279  0.00  0.00    +0.040 A 
ATOM     28  C   UNL     1       0.528  -3.284  -2.365  0.00  0.00    +0.027 A 
ATOM     29  C   UNL     1       1.246  -2.110  -2.181  0.00  0.00    +0.049 A 
ATOM     30  F   UNL     1      -0.351  -4.109   1.060  0.00  0.00    -0.205 F 
BRANCH  24  31
ATOM     31  C   UNL     1       2.200  -0.364  -0.677  0.00  0.00    +0.341 C 
ATOM     32  O   UNL     1       2.764   0.166  -1.614  0.00  0.00    -0.245 OA
BRANCH  31  34
ATOM     33  C   UNL     1       3.032   1.388   0.681  0.00  0.00    +0.280 C 
ATOM     34  O   UNL     1       2.274   0.183   0.552  0.00  0.00    -0.464 OA
ENDBRANCH  31  34
ENDBRANCH  24  31
ENDBRANCH   1  29
TORSDOF 4
