REMARK  Name = ZINC35006612
REMARK  10 active torsions:
REMARK  status: ('A' for Active; 'I' for Inactive)
REMARK    1  A    between atoms: C_1  and  C_2
REMARK    2  A    between atoms: C_2  and  C_4
REMARK    3  A    between atoms: C_2  and  N_22
REMARK    4  A    between atoms: N_14  and  C_15
REMARK    5  A    between atoms: C_15  and  C_16
REMARK    6  A    between atoms: N_22  and  C_32
REMARK    7  A    between atoms: N_25  and  C_26
REMARK    8  A    between atoms: C_32  and  C_33
REMARK    9  A    between atoms: C_32  and  C_34
REMARK   10  A    between atoms: C_32  and  C_35
REMARK                            x       y       z     vdW  Elec       q    Type
REMARK                         _______ _______ _______ _____ _____    ______ ____
ROOT
ATOM      1  C   UNL     1      -0.644  -0.062   1.834  0.00  0.00    +0.134 A 
ATOM      2  N   UNL     1      -0.763   0.827   2.772  0.00  0.00    -0.232 NA
ATOM      3  C   UNL     1       0.123   0.905   3.796  0.00  0.00    +0.078 A 
ATOM      4  C   UNL     1      -0.004   1.861   4.805  0.00  0.00    +0.028 A 
ATOM      5  C   UNL     1       0.918   1.903   5.826  0.00  0.00    +0.002 A 
ATOM      6  C   UNL     1       1.977   1.004   5.865  0.00  0.00    +0.001 A 
ATOM      7  C   UNL     1       2.125   0.052   4.881  0.00  0.00    +0.015 A 
ATOM      8  C   UNL     1       1.201  -0.007   3.839  0.00  0.00    +0.065 A 
ATOM      9  C   UNL     1       1.307  -1.002   2.761  0.00  0.00    +0.262 A 
ATOM     10  O   UNL     1       2.212  -1.816   2.739  0.00  0.00    -0.267 OA
ATOM     11  N   UNL     1       0.357  -0.981   1.798  0.00  0.00    -0.290 N 
ENDROOT
BRANCH   1  13
ATOM     12  C   UNL     1      -2.709   1.014   0.983  0.00  0.00    +0.036 C 
ATOM     13  C   UNL     1      -1.671  -0.081   0.732  0.00  0.00    +0.141 C 
BRANCH  13  14
ATOM     14  N   UNL     1      -2.335  -1.387   0.705  0.00  0.00    -0.271 N 
ATOM     15  C   UNL     1      -2.416  -2.079  -0.449  0.00  0.00    +0.307 C 
ATOM     16  O   UNL     1      -1.827  -1.684  -1.436  0.00  0.00    -0.252 OA
ATOM     17  N   UNL     1      -3.150  -3.208  -0.507  0.00  0.00    -0.269 N 
ATOM     18  H   UNL     1      -3.677  -3.484   0.259  0.00  0.00    +0.156 HD
BRANCH  17  19
ATOM     19  C   UNL     1      -3.151  -3.982  -1.673  0.00  0.00    +0.035 A 
ATOM     20  C   UNL     1      -2.177  -3.780  -2.643  0.00  0.00    +0.023 A 
ATOM     21  C   UNL     1      -2.181  -4.546  -3.792  0.00  0.00    +0.002 A 
ATOM     22  C   UNL     1      -3.152  -5.512  -3.978  0.00  0.00    +0.000 A 
ATOM     23  C   UNL     1      -4.123  -5.715  -3.015  0.00  0.00    +0.002 A 
ATOM     24  C   UNL     1      -4.122  -4.956  -1.861  0.00  0.00    +0.023 A 
ENDBRANCH  17  19
BRANCH  14  25
ATOM     25  C   UNL     1      -2.912  -1.940   1.933  0.00  0.00    +0.031 C 
ATOM     26  C   UNL     1      -2.473  -1.093   3.130  0.00  0.00    +0.031 C 
ATOM     27  C   UNL     1      -4.438  -1.926   1.831  0.00  0.00    +0.031 C 
ATOM     28  C   UNL     1      -2.426  -3.379   2.121  0.00  0.00    +0.031 C 
ENDBRANCH  14  25
ENDBRANCH  13  14
ENDBRANCH   1  13
BRANCH  11  29
ATOM     29  C   UNL     1       0.410  -1.953   0.704  0.00  0.00    +0.161 C 
BRANCH  29  30
ATOM     30  C   UNL     1       1.423  -1.504  -0.318  0.00  0.00    -0.028 A 
ATOM     31  C   UNL     1       1.026  -0.723  -1.387  0.00  0.00    +0.005 A 
ATOM     32  C   UNL     1       1.954  -0.311  -2.325  0.00  0.00    +0.000 A 
ATOM     33  C   UNL     1       3.280  -0.680  -2.193  0.00  0.00    +0.000 A 
ATOM     34  C   UNL     1       3.677  -1.461  -1.124  0.00  0.00    +0.000 A 
ATOM     35  C   UNL     1       2.749  -1.869  -0.184  0.00  0.00    +0.005 A 
ENDBRANCH  29  30
ENDBRANCH  11  29
TORSDOF 6
