REMARK  Name = ZINC39206567
REMARK  7 active torsions:
REMARK  status: ('A' for Active; 'I' for Inactive)
REMARK    1  A    between atoms: C_1  and  C_2
REMARK    2  A    between atoms: C_2  and  C_3
REMARK    3  A    between atoms: C_3  and  C_4
REMARK    4  A    between atoms: C_6  and  C_18
REMARK    5  A    between atoms: C_8  and  C_16
REMARK    6  A    between atoms: C_9  and  N_15
REMARK    7  A    between atoms: C_23  and  O_24
REMARK                            x       y       z     vdW  Elec       q    Type
REMARK                         _______ _______ _______ _____ _____    ______ ____
ROOT
ATOM      1  C   UNL     1       0.762  -2.018   1.233  0.00  0.00    +0.069 C 
ATOM      2  C   UNL     1       1.746  -2.751   0.770  0.00  0.00    +0.030 C 
ATOM      3  C   UNL     1       3.127  -2.434   0.266  0.00  0.00    +0.101 C 
ATOM      4  C   UNL     1       4.032  -3.497   0.862  0.00  0.00    +0.098 C 
ATOM      5  C   UNL     1       3.534  -4.566   1.517  0.00  0.00    +0.195 C 
ATOM      6  O   UNL     1       2.236  -4.830   1.755  0.00  0.00    -0.448 OA
ATOM      7  C   UNL     1       1.268  -4.196   0.915  0.00  0.00    +0.343 C 
ATOM      8  N   UNL     1      -0.023  -4.024   1.590  0.00  0.00    -0.138 NA
ATOM      9  N   UNL     1      -0.232  -2.810   1.710  0.00  0.00    -0.155 NA
ENDROOT
BRANCH   3  10
ATOM     10  C   UNL     1       3.160  -2.502  -1.240  0.00  0.00    +0.009 A 
ATOM     11  C   UNL     1       2.838  -3.680  -1.886  0.00  0.00    +0.028 A 
ATOM     12  C   UNL     1       2.869  -3.744  -3.267  0.00  0.00    +0.043 A 
ATOM     13  C   UNL     1       3.222  -2.628  -4.005  0.00  0.00    +0.043 A 
ATOM     14  C   UNL     1       3.545  -1.448  -3.363  0.00  0.00    +0.084 A 
ATOM     15  C   UNL     1       3.508  -1.381  -1.977  0.00  0.00    +0.139 A 
ATOM     16 CL   UNL     1       3.988  -0.048  -4.289  0.00  0.00    -0.080 Cl
ATOM     17 CL   UNL     1       2.465  -5.226  -4.076  0.00  0.00    -0.083 Cl
BRANCH  15  18
ATOM     18  O   UNL     1       3.820  -0.219  -1.343  0.00  0.00    -0.505 OA
ATOM     19  H   UNL     1       4.758  -0.127  -1.130  0.00  0.00    +0.292 HD
ENDBRANCH  15  18
ENDBRANCH   3  10
BRANCH   5  20
ATOM     20  N   UNL     1       4.444  -5.479   1.987  0.00  0.00    -0.329 N 
ATOM     21  H   UNL     1       5.392  -5.337   1.842  0.00  0.00    +0.145 HD
ATOM     22  H   UNL     1       4.139  -6.266   2.465  0.00  0.00    +0.145 HD
ENDBRANCH   5  20
BRANCH   4  23
ATOM     23  C   UNL     1       5.451  -3.361   0.725  0.00  0.00    +0.101 C 
ATOM     24  N   UNL     1       6.576  -3.254   0.617  0.00  0.00    -0.191 NA
ENDBRANCH   4  23
BRANCH   1  25
ATOM     25  C   UNL     1       0.742  -0.511   1.242  0.00  0.00    +0.057 C 
BRANCH  25  27
ATOM     26  C   UNL     1      -0.019   1.526   0.010  0.00  0.00    +0.004 C 
ATOM     27  C   UNL     1       0.002  -0.004   0.002  0.00  0.00    +0.003 C 
ENDBRANCH  25  27
ENDBRANCH   1  25
TORSDOF 6
