REMARK  Name = ZINC40812053
REMARK  9 active torsions:
REMARK  status: ('A' for Active; 'I' for Inactive)
REMARK    1  A    between atoms: C_1  and  C_2
REMARK    2  A    between atoms: C_6  and  C_7
REMARK    3  A    between atoms: N_9  and  C_10
REMARK    4  A    between atoms: N_9  and  C_17
REMARK    5  A    between atoms: C_10  and  C_11
REMARK    6  A    between atoms: C_17  and  C_18
REMARK    7  A    between atoms: N_28  and  N_29
REMARK    8  A    between atoms: C_30  and  C_32
REMARK    9  A    between atoms: C_35  and  O_38
REMARK                            x       y       z     vdW  Elec       q    Type
REMARK                         _______ _______ _______ _____ _____    ______ ____
ROOT
ATOM      1  C   UNL     1       0.623   1.892   0.701  0.00  0.00    +0.048 C 
ATOM      2  C   UNL     1       0.359   0.436   0.416  0.00  0.00    +0.009 A 
ATOM      3  C   UNL     1       0.320  -0.181  -0.840  0.00  0.00    +0.042 A 
ATOM      4  C   UNL     1       0.047  -1.514  -0.638  0.00  0.00    +0.115 A 
ATOM      5  O   UNL     1      -0.074  -1.714   0.673  0.00  0.00    -0.454 OA
ATOM      6  C   UNL     1       0.115  -0.549   1.333  0.00  0.00    +0.193 A 
ATOM      7  C   UNL     1      -0.079  -2.506  -1.766  0.00  0.00    +0.075 C 
ATOM      8  C   UNL     1      -0.374  -1.759  -3.069  0.00  0.00    +0.014 C 
ATOM      9  C   UNL     1       0.662  -0.655  -3.305  0.00  0.00    +0.058 C 
ATOM     10  C   UNL     1       0.518   0.377  -2.196  0.00  0.00    +0.070 C 
ATOM     11  N   UNL     1       0.566   1.654  -2.423  0.00  0.00    -0.184 NA
ENDROOT
BRANCH  11  12
ATOM     12  N   UNL     1       0.757   2.127  -3.728  0.00  0.00    -0.203 N 
ATOM     13  C   UNL     1       0.806   3.453  -3.963  0.00  0.00    +0.263 C 
ATOM     14  O   UNL     1       0.686   4.239  -3.043  0.00  0.00    -0.268 OA
ATOM     15  H   UNL     1       0.853   1.500  -4.462  0.00  0.00    +0.178 HD
BRANCH  13  16
ATOM     16  C   UNL     1       1.007   3.951  -5.338  0.00  0.00    +0.039 A 
ATOM     17  C   UNL     1       1.140   3.050  -6.397  0.00  0.00    +0.016 A 
ATOM     18  C   UNL     1       1.327   3.519  -7.678  0.00  0.00    +0.046 A 
ATOM     19  C   UNL     1       1.384   4.887  -7.918  0.00  0.00    +0.117 A 
ATOM     20  C   UNL     1       1.252   5.787  -6.867  0.00  0.00    +0.046 A 
ATOM     21  C   UNL     1       1.059   5.326  -5.584  0.00  0.00    +0.016 A 
BRANCH  19  22
ATOM     22  O   UNL     1       1.568   5.345  -9.183  0.00  0.00    -0.507 OA
ATOM     23  H   UNL     1       0.747   5.492  -9.671  0.00  0.00    +0.292 HD
ENDBRANCH  19  22
ENDBRANCH  13  16
ENDBRANCH  11  12
BRANCH   6  24
ATOM     24  C   UNL     1       0.063  -0.370   2.788  0.00  0.00    +0.283 C 
ATOM     25  O   UNL     1       0.126   0.747   3.267  0.00  0.00    -0.267 OA
ATOM     26  N   UNL     1      -0.054  -1.444   3.595  0.00  0.00    -0.286 N 
BRANCH  26  27
ATOM     27  C   UNL     1      -0.214  -1.260   5.040  0.00  0.00    +0.143 C 
BRANCH  27  28
ATOM     28  C   UNL     1      -1.680  -1.290   5.390  0.00  0.00    -0.030 A 
ATOM     29  C   UNL     1      -2.443  -0.144   5.269  0.00  0.00    +0.005 A 
ATOM     30  C   UNL     1      -3.787  -0.172   5.590  0.00  0.00    +0.000 A 
ATOM     31  C   UNL     1      -4.368  -1.346   6.033  0.00  0.00    +0.000 A 
ATOM     32  C   UNL     1      -3.605  -2.492   6.154  0.00  0.00    +0.000 A 
ATOM     33  C   UNL     1      -2.262  -2.465   5.828  0.00  0.00    +0.005 A 
ENDBRANCH  27  28
ENDBRANCH  26  27
BRANCH  26  34
ATOM     34  C   UNL     1      -0.021  -2.794   3.027  0.00  0.00    +0.143 C 
BRANCH  34  35
ATOM     35  C   UNL     1       1.408  -3.262   2.927  0.00  0.00    -0.030 A 
ATOM     36  C   UNL     1       2.108  -3.094   1.747  0.00  0.00    +0.005 A 
ATOM     37  C   UNL     1       3.419  -3.524   1.655  0.00  0.00    +0.000 A 
ATOM     38  C   UNL     1       4.029  -4.120   2.742  0.00  0.00    +0.000 A 
ATOM     39  C   UNL     1       3.329  -4.286   3.922  0.00  0.00    +0.000 A 
ATOM     40  C   UNL     1       2.019  -3.853   4.016  0.00  0.00    +0.005 A 
ENDBRANCH  34  35
ENDBRANCH  26  34
ENDBRANCH   6  24
TORSDOF 8
