REMARK  Name = ZINC01111912
REMARK  4 active torsions:
REMARK  status: ('A' for Active; 'I' for Inactive)
REMARK    1  A    between atoms: C_3  and  N_9
REMARK    2  A    between atoms: C_6  and  C_7
REMARK    3  A    between atoms: C_10  and  C_12
REMARK    4  A    between atoms: N_16  and  C_19
REMARK                            x       y       z     vdW  Elec       q    Type
REMARK                         _______ _______ _______ _____ _____    ______ ____
ROOT
ATOM      1  C   UNL     1       3.394  -0.889   0.642  0.00  0.00    +0.102 A 
ATOM      2  C   UNL     1       4.437  -0.076   1.066  0.00  0.00    +0.031 A 
ATOM      3  C   UNL     1       4.300   1.324   0.954  0.00  0.00    +0.038 A 
ATOM      4  C   UNL     1       3.148   1.880   0.422  0.00  0.00    +0.038 A 
ATOM      5  N   UNL     1       2.133   1.091   0.013  0.00  0.00    -0.280 N 
ATOM      6  C   UNL     1       2.193  -0.248   0.101  0.00  0.00    +0.268 A 
ATOM      7  O   UNL     1       1.254  -0.928  -0.272  0.00  0.00    -0.266 OA
ATOM      8  C   UNL     1       2.991   3.372   0.277  0.00  0.00    +0.055 C 
ATOM      9  C   UNL     1       3.899   4.123   1.246  0.00  0.00    +0.014 C 
ATOM     10  C   UNL     1       5.347   3.656   1.047  0.00  0.00    +0.080 C 
ATOM     11  C   UNL     1       5.401   2.188   1.413  0.00  0.00    +0.165 C 
ATOM     12  O   UNL     1       6.320   1.738   2.064  0.00  0.00    -0.292 OA
ENDROOT
BRANCH   5  13
ATOM     13  C   UNL     1       0.979   1.685  -0.515  0.00  0.00    +0.050 A 
ATOM     14  C   UNL     1       0.797   1.750  -1.890  0.00  0.00    +0.028 A 
ATOM     15  C   UNL     1      -0.339   2.341  -2.407  0.00  0.00    +0.022 A 
ATOM     16  C   UNL     1      -1.300   2.860  -1.556  0.00  0.00    +0.041 A 
ATOM     17  C   UNL     1      -1.120   2.796  -0.186  0.00  0.00    +0.022 A 
ATOM     18  C   UNL     1       0.016   2.211   0.337  0.00  0.00    +0.028 A 
ATOM     19 CL   UNL     1      -2.729   3.597  -2.210  0.00  0.00    -0.084 Cl
ENDBRANCH   5  13
BRANCH   1  21
ATOM     20  N   UNL     1       2.548  -3.131   0.170  0.00  0.00    -0.281 N 
ATOM     21  C   UNL     1       3.491  -2.354   0.740  0.00  0.00    +0.254 C 
ATOM     22  O   UNL     1       4.421  -2.864   1.335  0.00  0.00    -0.270 OA
ATOM     23  H   UNL     1       1.855  -2.729  -0.378  0.00  0.00    +0.155 HD
BRANCH  20  26
ATOM     24  C   UNL     1       1.389  -6.577   0.673  0.00  0.00    +0.020 A 
ATOM     25  C   UNL     1       1.373  -5.214   0.478  0.00  0.00    +0.024 A 
ATOM     26  C   UNL     1       2.568  -4.511   0.369  0.00  0.00    +0.034 A 
ATOM     27  C   UNL     1       3.784  -5.182   0.452  0.00  0.00    +0.024 A 
ATOM     28  C   UNL     1       3.808  -6.544   0.653  0.00  0.00    +0.020 A 
ATOM     29  C   UNL     1       2.609  -7.254   0.762  0.00  0.00    +0.052 A 
BRANCH  29  30
ATOM     30  C   UNL     1       2.630  -8.671   0.966  0.00  0.00    +0.099 C 
ATOM     31  N   UNL     1       2.646  -9.795   1.128  0.00  0.00    -0.191 NA
ENDBRANCH  29  30
ENDBRANCH  20  26
ENDBRANCH   1  21
TORSDOF 4
