REMARK  Name = ZINC08789984
REMARK  6 active torsions:
REMARK  status: ('A' for Active; 'I' for Inactive)
REMARK    1  A    between atoms: C_4  and  C_7
REMARK    2  A    between atoms: C_7  and  C_8
REMARK    3  A    between atoms: C_8  and  N_9
REMARK    4  A    between atoms: C_14  and  C_31
REMARK    5  A    between atoms: C_31  and  C_32
REMARK    6  A    between atoms: C_35  and  O_38
REMARK                            x       y       z     vdW  Elec       q    Type
REMARK                         _______ _______ _______ _____ _____    ______ ____
ROOT
ATOM      1  N   UNL     1      -0.018   1.461   0.010  0.00  0.00    -0.241 N 
ATOM      2  C   UNL     1      -1.153   2.169   0.019  0.00  0.00    +0.224 C 
ATOM      3  O   UNL     1      -2.271   1.700   0.023  0.00  0.00    -0.275 OA
ATOM      4  C   UNL     1      -0.824   3.645   0.026  0.00  0.00    +0.073 C 
ATOM      5  C   UNL     1      -1.218   4.260  -1.351  0.00  0.00    -0.053 C 
ATOM      6  C   UNL     1       1.118   4.314  -1.315  0.00  0.00    +0.050 C 
ATOM      7  C   UNL     1       0.730   3.666   0.019  0.00  0.00    +0.088 C 
ATOM      8  C   UNL     1       1.098   2.200   0.003  0.00  0.00    +0.225 C 
ATOM      9  O   UNL     1       2.228   1.761  -0.013  0.00  0.00    -0.275 OA
ATOM     10  C   UNL     1       1.494   3.285  -2.342  0.00  0.00    -0.026 A 
ATOM     11  C   UNL     1       0.827   2.220  -2.907  0.00  0.00    +0.024 A 
ATOM     12  C   UNL     1       1.456   1.433  -3.856  0.00  0.00    +0.041 A 
ATOM     13  C   UNL     1       2.756   1.718  -4.236  0.00  0.00    +0.022 A 
ATOM     14  C   UNL     1       3.427   2.783  -3.672  0.00  0.00    +0.025 A 
ATOM     15  C   UNL     1       2.801   3.580  -2.716  0.00  0.00    +0.036 A 
ATOM     16  N   UNL     1       3.265   4.694  -2.012  0.00  0.00    -0.286 N 
ATOM     17  C   UNL     1       2.336   5.184  -1.168  0.00  0.00    +0.211 C 
ATOM     18  O   UNL     1       2.459   6.141  -0.433  0.00  0.00    -0.277 OA
ATOM     19 CL   UNL     1       0.616   0.090  -4.568  0.00  0.00    -0.084 Cl
ATOM     20  H   UNL     1       4.152   5.072  -2.119  0.00  0.00    +0.155 HD
ATOM     21  N   UNL     1      -0.055   5.068  -1.724  0.00  0.00    +0.394 N 
ATOM     22  H   UNL     1      -0.081   5.973  -1.240  0.00  0.00    -0.083 HD
ATOM     23  H   UNL     1      -0.041   5.222  -2.739  0.00  0.00    -0.083 HD
ENDROOT
BRANCH   1  24
ATOM     24  C   UNL     1       0.002  -0.004   0.002  0.00  0.00    +0.121 C 
BRANCH  24  25
ATOM     25  C   UNL     1       0.023  -0.522   1.442  0.00  0.00    +0.054 C 
BRANCH  25  29
ATOM     26  C   UNL     1       0.081  -4.793   1.419  0.00  0.00    +0.000 A 
ATOM     27  C   UNL     1       1.268  -4.086   1.411  0.00  0.00    +0.000 A 
ATOM     28  C   UNL     1       1.250  -2.703   1.418  0.00  0.00    +0.004 A 
ATOM     29  C   UNL     1       0.043  -2.029   1.433  0.00  0.00    -0.046 A 
ATOM     30  C   UNL     1      -1.144  -2.736   1.447  0.00  0.00    +0.004 A 
ATOM     31  C   UNL     1      -1.126  -4.118   1.435  0.00  0.00    +0.000 A 
ENDBRANCH  25  29
ENDBRANCH  24  25
ENDBRANCH   1  24
BRANCH   5  32
ATOM     32  C   UNL     1      -2.473   5.124  -1.201  0.00  0.00    +0.020 C 
BRANCH  32  33
ATOM     33  C   UNL     1      -2.866   5.676  -2.546  0.00  0.00    -0.049 A 
ATOM     34  C   UNL     1      -2.364   6.895  -2.966  0.00  0.00    +0.007 A 
ATOM     35  C   UNL     1      -2.718   7.401  -4.201  0.00  0.00    +0.045 A 
ATOM     36  C   UNL     1      -3.587   6.691  -5.017  0.00  0.00    +0.117 A 
ATOM     37  C   UNL     1      -4.094   5.471  -4.592  0.00  0.00    +0.045 A 
ATOM     38  C   UNL     1      -3.732   4.967  -3.358  0.00  0.00    +0.007 A 
BRANCH  36  39
ATOM     39  O   UNL     1      -3.941   7.189  -6.231  0.00  0.00    -0.507 OA
ATOM     40  H   UNL     1      -4.731   7.747  -6.212  0.00  0.00    +0.292 HD
ENDBRANCH  36  39
ENDBRANCH  32  33
ENDBRANCH   5  32
TORSDOF 6
