REMARK  Name = ZINC39607110
REMARK  11 active torsions:
REMARK  status: ('A' for Active; 'I' for Inactive)
REMARK    1  A    between atoms: C_1  and  C_2
REMARK    2  A    between atoms: C_2  and  C_3
REMARK    3  A    between atoms: C_3  and  C_4
REMARK    4  A    between atoms: C_4  and  C_5
REMARK    5  A    between atoms: C_5  and  C_6
REMARK    6  A    between atoms: C_6  and  C_7
REMARK    7  A    between atoms: C_11  and  C_20
REMARK    8  A    between atoms: N_22  and  C_23
REMARK    9  A    between atoms: C_23  and  C_24
REMARK   10  A    between atoms: C_27  and  C_31
REMARK   11  A    between atoms: C_29  and  C_30
REMARK                            x       y       z     vdW  Elec       q    Type
REMARK                         _______ _______ _______ _____ _____    ______ ____
ROOT
ATOM      1  C   UNL     1       2.260  -4.548  -3.859  0.00  0.00    +0.216 C 
ATOM      2  O   UNL     1       2.676  -3.767  -4.689  0.00  0.00    -0.276 OA
ATOM      3  N   UNL     1       2.365  -5.875  -4.071  0.00  0.00    -0.300 N 
ATOM      4  C   UNL     1       1.914  -6.975  -3.186  0.00  0.00    +0.121 C 
ATOM      5  C   UNL     1       1.337  -8.038  -4.147  0.00  0.00    +0.100 C 
ATOM      6  C   UNL     1       2.026  -7.765  -5.494  0.00  0.00    -0.004 C 
ATOM      7  C   UNL     1       2.951  -6.565  -5.245  0.00  0.00    +0.115 C 
ATOM      8  C   UNL     1       0.990  -7.413  -6.557  0.00  0.00    -0.010 C 
ATOM      9  C   UNL     1       1.694  -7.202  -7.900  0.00  0.00    -0.082 C 
ATOM     10  N   UNL     1       2.413  -8.425  -8.275  0.00  0.00    +0.379 N 
ATOM     11  C   UNL     1       3.470  -8.705  -7.296  0.00  0.00    -0.082 C 
ATOM     12  C   UNL     1       2.841  -8.980  -5.927  0.00  0.00    -0.010 C 
ATOM     13  H   UNL     1       1.766  -9.200  -8.301  0.00  0.00    -0.086 HD
ATOM     14  H   UNL     1       2.825  -8.305  -9.188  0.00  0.00    -0.086 HD
ENDROOT
BRANCH   5  15
ATOM     15  C   UNL     1       1.668  -9.424  -3.656  0.00  0.00    +0.218 C 
ATOM     16  O   UNL     1       2.701  -9.622  -3.052  0.00  0.00    -0.275 OA
ATOM     17  N   UNL     1       0.818 -10.443  -3.889  0.00  0.00    -0.311 N 
ATOM     18  H   UNL     1      -0.008 -10.284  -4.373  0.00  0.00    +0.149 HD
BRANCH  17  19
ATOM     19  C   UNL     1       1.140 -11.790  -3.413  0.00  0.00    +0.139 C 
BRANCH  19  20
ATOM     20  C   UNL     1       0.035 -12.738  -3.800  0.00  0.00    -0.027 A 
ATOM     21  C   UNL     1      -0.925 -13.097  -2.872  0.00  0.00    +0.006 A 
ATOM     22  C   UNL     1      -1.939 -13.967  -3.227  0.00  0.00    +0.004 A 
ATOM     23  C   UNL     1      -1.994 -14.477  -4.511  0.00  0.00    -0.050 A 
ATOM     24  C   UNL     1      -1.035 -14.117  -5.439  0.00  0.00    +0.007 A 
ATOM     25  C   UNL     1      -0.023 -13.244  -5.085  0.00  0.00    -0.046 A 
ATOM     26  C   UNL     1       1.019 -12.848  -6.099  0.00  0.00    +0.044 C 
ATOM     27  C   UNL     1      -3.099 -15.426  -4.898  0.00  0.00    +0.044 C 
ENDBRANCH  19  20
ENDBRANCH  17  19
ENDBRANCH   5  15
BRANCH   1  28
ATOM     28  C   UNL     1       1.627  -4.035  -2.592  0.00  0.00    +0.096 C 
BRANCH  28  29
ATOM     29  C   UNL     1       1.634  -2.505  -2.601  0.00  0.00    +0.009 C 
BRANCH  29  30
ATOM     30  C   UNL     1       0.991  -1.984  -1.314  0.00  0.00    +0.000 C 
BRANCH  30  31
ATOM     31  C   UNL     1       0.998  -0.454  -1.324  0.00  0.00    -0.000 C 
BRANCH  31  33
ATOM     32  C   UNL     1       0.362   1.597  -0.047  0.00  0.00    +0.004 C 
ATOM     33  C   UNL     1       0.355   0.067  -0.037  0.00  0.00    -0.003 C 
ENDBRANCH  31  33
ENDBRANCH  30  31
ENDBRANCH  29  30
ENDBRANCH  28  29
ENDBRANCH   1  28
TORSDOF 8
