REMARK  Name = ZINC27694501
REMARK  10 active torsions:
REMARK  status: ('A' for Active; 'I' for Inactive)
REMARK    1  A    between atoms: C_4  and  C_7
REMARK    2  A    between atoms: C_7  and  N_8
REMARK    3  A    between atoms: N_8  and  C_9
REMARK    4  A    between atoms: N_8  and  C_31
REMARK    5  A    between atoms: C_9  and  C_10
REMARK    6  A    between atoms: C_10  and  C_12
REMARK    7  A    between atoms: C_10  and  O_30
REMARK    8  A    between atoms: C_12  and  N_13
REMARK    9  A    between atoms: C_21  and  C_22
REMARK   10  A    between atoms: C_22  and  C_23
REMARK                            x       y       z     vdW  Elec       q    Type
REMARK                         _______ _______ _______ _____ _____    ______ ____
ROOT
ATOM      1  C   UNL     1       4.162   3.683  -1.326  0.00  0.00    +0.118 C 
ENDROOT
BRANCH   1   2
ATOM      2  O   UNL     1       3.642   2.541  -2.010  0.00  0.00    -0.392 OA
ATOM      3  H   UNL     1       2.557   2.359  -2.031  0.00  0.00    +0.210 HD
ENDBRANCH   1   2
BRANCH   1   4
ATOM      4  C   UNL     1       5.687   3.701  -1.450  0.00  0.00    -0.045 C 
BRANCH   4   5
ATOM      5  N   UNL     1       6.064   3.646  -2.868  0.00  0.00    +0.386 N 
ATOM      6  H   UNL     1       5.419   2.904  -3.361  0.00  0.00    -0.081 HD
BRANCH   5   7
ATOM      7  C   UNL     1       5.843   4.942  -3.522  0.00  0.00    -0.068 C 
ATOM      8  C   UNL     1       6.048   6.068  -2.506  0.00  0.00    -0.015 C 
ATOM      9  C   UNL     1       5.817   7.418  -3.188  0.00  0.00    -0.002 C 
ATOM     10  C   UNL     1       4.388   7.477  -3.733  0.00  0.00    -0.000 C 
ATOM     11  C   UNL     1       4.183   6.352  -4.748  0.00  0.00    -0.002 C 
ATOM     12  C   UNL     1       4.414   5.001  -4.067  0.00  0.00    -0.015 C 
ENDBRANCH   5   7
BRANCH   5  13
ATOM     13  C   UNL     1       7.457   3.208  -3.026  0.00  0.00    -0.043 C 
BRANCH  13  17
ATOM     14  C   UNL     1       8.112   1.964  -7.059  0.00  0.00    +0.000 A 
ATOM     15  C   UNL     1       8.447   3.247  -6.669  0.00  0.00    +0.000 A 
ATOM     16  C   UNL     1       8.235   3.649  -5.364  0.00  0.00    +0.002 A 
ATOM     17  C   UNL     1       7.688   2.769  -4.449  0.00  0.00    -0.064 A 
ATOM     18  C   UNL     1       7.358   1.484  -4.838  0.00  0.00    +0.002 A 
ATOM     19  C   UNL     1       7.565   1.083  -6.145  0.00  0.00    +0.000 A 
ENDBRANCH  13  17
ENDBRANCH   5  13
ENDBRANCH   4   5
ENDBRANCH   1   4
BRANCH   1  20
ATOM     20  C   UNL     1       3.770   3.615   0.151  0.00  0.00    +0.153 C 
BRANCH  20  21
ATOM     21  N   UNL     1       2.314   3.718   0.276  0.00  0.00    -0.325 N 
ATOM     22  C   UNL     1       1.416   2.670   0.272  0.00  0.00    +0.069 A 
ATOM     23  C   UNL     1       1.540   1.291   0.162  0.00  0.00    +0.028 A 
ATOM     24  C   UNL     1       0.412   0.500   0.196  0.00  0.00    +0.002 A 
ATOM     25  C   UNL     1      -0.845   1.072   0.333  0.00  0.00    +0.002 A 
ATOM     26  C   UNL     1      -0.985   2.426   0.449  0.00  0.00    +0.030 A 
ATOM     27  C   UNL     1       0.144   3.248   0.417  0.00  0.00    +0.089 A 
ATOM     28  N   UNL     1       0.327   4.591   0.500  0.00  0.00    -0.232 NA
ATOM     29  C   UNL     1       1.597   4.865   0.417  0.00  0.00    +0.115 A 
BRANCH  29  30
ATOM     30  C   UNL     1       2.186   6.251   0.470  0.00  0.00    +0.109 C 
BRANCH  30  31
ATOM     31  C   UNL     1       2.497   6.611   1.900  0.00  0.00    -0.040 A 
ATOM     32  C   UNL     1       1.544   7.242   2.677  0.00  0.00    +0.005 A 
ATOM     33  C   UNL     1       1.826   7.567   3.990  0.00  0.00    +0.020 A 
ATOM     34  C   UNL     1       3.067   7.270   4.524  0.00  0.00    +0.041 A 
ATOM     35  C   UNL     1       4.023   6.643   3.745  0.00  0.00    +0.020 A 
ATOM     36  C   UNL     1       3.737   6.314   2.433  0.00  0.00    +0.005 A 
ATOM     37 CL   UNL     1       3.426   7.683   6.172  0.00  0.00    -0.084 Cl
ENDBRANCH  30  31
ENDBRANCH  29  30
ENDBRANCH  20  21
ENDBRANCH   1  20
TORSDOF 10
