REMARK  Name = ZINC54642017
REMARK  13 active torsions:
REMARK  status: ('A' for Active; 'I' for Inactive)
REMARK    1  A    between atoms: C_1  and  C_2
REMARK    2  A    between atoms: C_3  and  C_31
REMARK    3  A    between atoms: C_4  and  C_21
REMARK    4  A    between atoms: C_9  and  S_11
REMARK    5  A    between atoms: S_11  and  C_12
REMARK    6  A    between atoms: C_12  and  C_13
REMARK    7  A    between atoms: C_24  and  C_27
REMARK    8  A    between atoms: C_27  and  O_29
REMARK    9  A    between atoms: O_29  and  C_30
REMARK   10  A    between atoms: C_31  and  O_33
REMARK   11  A    between atoms: O_33  and  C_34
REMARK   12  A    between atoms: C_34  and  C_35
REMARK   13  A    between atoms: C_34  and  C_36
REMARK                            x       y       z     vdW  Elec       q    Type
REMARK                         _______ _______ _______ _____ _____    ______ ____
ROOT
ATOM      1  C   UNL     1      -0.018   1.503   0.010  0.00  0.00    +0.061 C 
ATOM      2  C   UNL     1       0.002  -0.004   0.002  0.00  0.00    +0.020 C 
ATOM      3  C   UNL     1      -1.164  -0.669   0.004  0.00  0.00    +0.082 C 
ATOM      4  C   UNL     1      -1.253  -2.171   0.007  0.00  0.00    +0.179 C 
ATOM      5  N   UNL     1       0.062  -2.737  -0.284  0.00  0.00    -0.220 N 
ATOM      6  C   UNL     1       1.208  -2.012  -0.281  0.00  0.00    +0.219 A 
ATOM      7  N   UNL     1       2.196  -2.814  -0.571  0.00  0.00    -0.187 NA
ATOM      8  C   UNL     1       1.724  -4.053  -0.770  0.00  0.00    +0.211 A 
ATOM      9  N   UNL     1       0.418  -4.046  -0.604  0.00  0.00    -0.141 NA
ATOM     10  N   UNL     1       1.212  -0.651  -0.013  0.00  0.00    -0.287 N 
ATOM     11  H   UNL     1       2.040  -0.175   0.160  0.00  0.00    +0.155 HD
ENDROOT
BRANCH   4  12
ATOM     12  C   UNL     1      -1.715  -2.644   1.361  0.00  0.00    -0.018 A 
ATOM     13  C   UNL     1      -0.968  -2.345   2.487  0.00  0.00    +0.007 A 
ATOM     14  C   UNL     1      -1.385  -2.775   3.730  0.00  0.00    +0.015 A 
ATOM     15  C   UNL     1      -2.563  -3.514   3.850  0.00  0.00    +0.059 A 
ATOM     16  C   UNL     1      -3.312  -3.813   2.710  0.00  0.00    +0.015 A 
ATOM     17  C   UNL     1      -2.887  -3.372   1.474  0.00  0.00    +0.007 A 
BRANCH  15  18
ATOM     18  C   UNL     1      -3.016  -3.978   5.178  0.00  0.00    +0.339 C 
ATOM     19  O   UNL     1      -2.362  -3.717   6.168  0.00  0.00    -0.245 OA
BRANCH  18  20
ATOM     20  O   UNL     1      -4.154  -4.691   5.290  0.00  0.00    -0.464 OA
ATOM     21  C   UNL     1      -4.531  -5.107   6.604  0.00  0.00    +0.280 C 
ENDBRANCH  18  20
ENDBRANCH  15  18
ENDBRANCH   4  12
BRANCH   3  22
ATOM     22  C   UNL     1      -2.364   0.077   0.003  0.00  0.00    +0.339 C 
ATOM     23  O   UNL     1      -2.325   1.293  -0.001  0.00  0.00    -0.245 OA
BRANCH  22  24
ATOM     24  O   UNL     1      -3.554  -0.560   0.004  0.00  0.00    -0.459 OA
BRANCH  24  25
ATOM     25  C   UNL     1      -4.727   0.257   0.003  0.00  0.00    +0.171 C 
ATOM     26  C   UNL     1      -5.146   0.545  -1.440  0.00  0.00    +0.052 C 
ATOM     27  C   UNL     1      -5.859  -0.475   0.726  0.00  0.00    +0.052 C 
ENDBRANCH  24  25
ENDBRANCH  22  24
ENDBRANCH   3  22
BRANCH   8  28
ATOM     28  S   UNL     1       2.694  -5.463  -1.188  0.00  0.00    -0.080 S 
BRANCH  28  29
ATOM     29  C   UNL     1       4.389  -4.821  -1.267  0.00  0.00    +0.115 C 
BRANCH  29  30
ATOM     30  C   UNL     1       5.334  -5.941  -1.621  0.00  0.00    -0.002 A 
ATOM     31  C   UNL     1       5.910  -6.701  -0.620  0.00  0.00    +0.007 A 
ATOM     32  C   UNL     1       6.776  -7.728  -0.944  0.00  0.00    +0.000 A 
ATOM     33  C   UNL     1       7.069  -7.996  -2.269  0.00  0.00    +0.003 A 
ATOM     34  C   UNL     1       6.494  -7.237  -3.270  0.00  0.00    +0.038 A 
ATOM     35  C   UNL     1       5.621  -6.212  -2.947  0.00  0.00    +0.127 A 
ATOM     36  F   UNL     1       5.055  -5.473  -3.926  0.00  0.00    -0.205 F 
ENDBRANCH  29  30
ENDBRANCH  28  29
ENDBRANCH   8  28
TORSDOF 9
