REMARK  Name = ZINC62925646
REMARK  4 active torsions:
REMARK  status: ('A' for Active; 'I' for Inactive)
REMARK    1  A    between atoms: C_1  and  C_2
REMARK    2  A    between atoms: C_2  and  C_3
REMARK    3  A    between atoms: C_3  and  C_19
REMARK    4  A    between atoms: N_10  and  C_11
REMARK                            x       y       z     vdW  Elec       q    Type
REMARK                         _______ _______ _______ _____ _____    ______ ____
ROOT
ATOM      1  C   UNL     1      -1.433  -0.534   0.013  0.00  0.00    +0.089 C 
ATOM      2  C   UNL     1      -1.437  -2.078  -0.069  0.00  0.00    +0.039 C 
ATOM      3  C   UNL     1      -2.633  -2.370  -1.010  0.00  0.00    +0.110 C 
ATOM      4  N   UNL     1      -2.559  -1.274  -2.004  0.00  0.00    -0.285 N 
ATOM      5  C   UNL     1      -2.186  -0.065  -1.246  0.00  0.00    +0.127 C 
ATOM      6  C   UNL     1      -2.784  -1.363  -3.329  0.00  0.00    +0.302 C 
ATOM      7  O   UNL     1      -2.687  -0.375  -4.031  0.00  0.00    -0.253 OA
ATOM      8  N   UNL     1      -3.119  -2.549  -3.877  0.00  0.00    -0.296 N 
ATOM      9  H   UNL     1      -3.197  -3.337  -3.318  0.00  0.00    +0.151 HD
ENDROOT
BRANCH   8  10
ATOM     10  C   UNL     1      -3.364  -2.646  -5.319  0.00  0.00    +0.077 C 
ATOM     11  C   UNL     1      -4.804  -2.237  -5.612  0.00  0.00    +0.045 C 
ATOM     12  C   UNL     1      -5.004  -2.071  -7.120  0.00  0.00    +0.167 C 
ATOM     13  S   UNL     1      -4.736  -3.677  -7.928  0.00  0.00    -0.031 S 
ATOM     14  O   UNL     1      -4.644  -3.468  -9.331  0.00  0.00    -0.174 OA
ATOM     15  O   UNL     1      -5.692  -4.601  -7.426  0.00  0.00    -0.174 OA
ATOM     16  C   UNL     1      -3.094  -4.144  -7.306  0.00  0.00    +0.167 C 
ATOM     17  C   UNL     1      -3.107  -4.079  -5.776  0.00  0.00    +0.045 C 
ENDBRANCH   8  10
BRANCH   1  18
ATOM     18  C   UNL     1      -2.151  -0.072   1.255  0.00  0.00    +0.364 C 
ATOM     19  O   UNL     1      -2.276   1.120   1.479  0.00  0.00    -0.246 OA
ATOM     20  O   UNL     1      -2.608  -0.890   2.035  0.00  0.00    -0.246 OA
ENDBRANCH   1  18
BRANCH   1  22
ATOM     21  C   UNL     1      -0.019   1.526   0.010  0.00  0.00    +0.005 C 
ATOM     22  C   UNL     1       0.002  -0.004   0.002  0.00  0.00    +0.016 C 
ENDBRANCH   1  22
TORSDOF 3
