REMARK  Name = ZINC14743882
REMARK  7 active torsions:
REMARK  status: ('A' for Active; 'I' for Inactive)
REMARK    1  A    between atoms: C_1  and  C_2
REMARK    2  A    between atoms: C_2  and  N_3
REMARK    3  A    between atoms: C_11  and  C_12
REMARK    4  A    between atoms: C_11  and  N_62
REMARK    5  A    between atoms: N_22  and  C_25
REMARK    6  A    between atoms: C_25  and  C_26
REMARK    7  A    between atoms: C_26  and  C_27
REMARK                            x       y       z     vdW  Elec       q    Type
REMARK                         _______ _______ _______ _____ _____    ______ ____
ROOT
ATOM      1  N   UNL     1       7.057  -3.136  -1.429  0.00  0.00    -0.224 N 
ATOM      2  C   UNL     1       7.775  -1.997  -1.347  0.00  0.00    +0.247 C 
ATOM      3  O   UNL     1       8.982  -1.893  -1.282  0.00  0.00    -0.273 OA
ATOM      4  C   UNL     1       6.760  -0.878  -1.359  0.00  0.00    +0.112 C 
ATOM      5  C   UNL     1       6.848  -0.067  -0.071  0.00  0.00    +0.017 C 
ATOM      6  C   UNL     1       5.828   1.075  -0.120  0.00  0.00    -0.076 C 
ATOM      7  C   UNL     1       5.945   1.161  -2.541  0.00  0.00    -0.076 C 
ATOM      8  C   UNL     1       6.968   0.022  -2.573  0.00  0.00    +0.017 C 
ATOM      9  N   UNL     1       5.468  -1.569  -1.446  0.00  0.00    -0.271 N 
ATOM     10  C   UNL     1       5.743  -2.887  -1.485  0.00  0.00    +0.312 C 
ATOM     11  O   UNL     1       4.893  -3.753  -1.564  0.00  0.00    -0.252 OA
ATOM     12  N   UNL     1       6.124   1.929  -1.290  0.00  0.00    +0.383 N 
ATOM     13  H   UNL     1       7.098   2.248  -1.232  0.00  0.00    -0.081 HD
ENDROOT
BRANCH   1  15
ATOM     14  C   UNL     1       7.918  -4.888  -2.903  0.00  0.00    +0.025 C 
ATOM     15  C   UNL     1       7.642  -4.479  -1.454  0.00  0.00    +0.114 C 
ENDBRANCH   1  15
BRANCH  12  16
ATOM     16  C   UNL     1       5.233   3.108  -1.291  0.00  0.00    -0.025 C 
BRANCH  16  17
ATOM     17  C   UNL     1       5.589   3.985  -0.118  0.00  0.00    +0.000 A 
ATOM     18  C   UNL     1       4.968   3.970   1.072  0.00  0.00    +0.029 A 
ATOM     19  C   UNL     1       5.630   4.970   1.913  0.00  0.00    -0.000 A 
ATOM     20  C   UNL     1       5.446   5.409   3.225  0.00  0.00    +0.010 A 
ATOM     21  C   UNL     1       6.250   6.392   3.731  0.00  0.00    +0.001 A 
ATOM     22  C   UNL     1       7.249   6.957   2.950  0.00  0.00    +0.002 A 
ATOM     23  C   UNL     1       7.447   6.539   1.652  0.00  0.00    +0.026 A 
ATOM     24  C   UNL     1       6.641   5.540   1.117  0.00  0.00    +0.047 A 
ATOM     25  N   UNL     1       6.589   4.919  -0.111  0.00  0.00    -0.360 N 
ATOM     26  H   UNL     1       7.174   5.115  -0.859  0.00  0.00    +0.166 HD
ENDBRANCH  16  17
ENDBRANCH  12  16
BRANCH   9  27
ATOM     27  C   UNL     1       4.142  -0.948  -1.488  0.00  0.00    +0.115 C 
BRANCH  27  28
ATOM     28  C   UNL     1       3.375  -1.296  -0.210  0.00  0.00    +0.054 C 
BRANCH  28  29
ATOM     29  C   UNL     1       2.060  -0.560  -0.197  0.00  0.00    -0.046 A 
ATOM     30  C   UNL     1       0.936  -1.141  -0.754  0.00  0.00    +0.004 A 
ATOM     31  C   UNL     1      -0.270  -0.466  -0.743  0.00  0.00    +0.000 A 
ATOM     32  C   UNL     1      -0.352   0.791  -0.174  0.00  0.00    +0.000 A 
ATOM     33  C   UNL     1       0.771   1.373   0.384  0.00  0.00    +0.000 A 
ATOM     34  C   UNL     1       1.978   0.697   0.372  0.00  0.00    +0.004 A 
ENDBRANCH  28  29
ENDBRANCH  27  28
ENDBRANCH   9  27
TORSDOF 6
