REMARK  Name = ZINC02272313
REMARK  8 active torsions:
REMARK  status: ('A' for Active; 'I' for Inactive)
REMARK    1  A    between atoms: C_1  and  C_2
REMARK    2  A    between atoms: C_2  and  O_3
REMARK    3  A    between atoms: O_3  and  C_4
REMARK    4  A    between atoms: C_4  and  C_6
REMARK    5  A    between atoms: C_7  and  N_34
REMARK    6  A    between atoms: C_11  and  C_13
REMARK    7  A    between atoms: C_18  and  N_19
REMARK    8  A    between atoms: C_25  and  C_28
REMARK                            x       y       z     vdW  Elec       q    Type
REMARK                         _______ _______ _______ _____ _____    ______ ____
ROOT
ATOM      1  C   UNL     1      -1.063   1.576   3.561  0.00  0.00    +0.105 C 
ATOM      2  C   UNL     1      -0.465   1.092   4.681  0.00  0.00    +0.195 C 
ATOM      3  O   UNL     1      -0.802   1.538   5.899  0.00  0.00    -0.446 OA
ATOM      4  C   UNL     1      -1.998   2.126   6.090  0.00  0.00    +0.115 C 
ATOM      5  C   UNL     1      -2.681   2.674   5.069  0.00  0.00    +0.045 C 
ATOM      6  C   UNL     1      -2.125   2.634   3.664  0.00  0.00    +0.100 C 
ATOM      7  C   UNL     1      -3.925   3.301   5.273  0.00  0.00    +0.164 C 
ATOM      8  O   UNL     1      -4.520   3.770   4.323  0.00  0.00    -0.292 OA
ATOM      9  C   UNL     1      -4.532   3.402   6.646  0.00  0.00    +0.088 C 
ATOM     10  C   UNL     1      -3.406   3.410   7.686  0.00  0.00    +0.034 C 
ATOM     11  C   UNL     1      -2.560   2.150   7.493  0.00  0.00    +0.083 C 
ENDROOT
BRANCH   6  12
ATOM     12  C   UNL     1      -1.530   3.975   3.319  0.00  0.00    -0.005 A 
ATOM     13  C   UNL     1      -0.570   4.537   4.140  0.00  0.00    +0.007 A 
ATOM     14  C   UNL     1      -0.022   5.765   3.821  0.00  0.00    +0.000 A 
ATOM     15  C   UNL     1      -0.439   6.435   2.686  0.00  0.00    +0.002 A 
ATOM     16  C   UNL     1      -1.403   5.876   1.869  0.00  0.00    +0.033 A 
ATOM     17  C   UNL     1      -1.948   4.646   2.185  0.00  0.00    +0.130 A 
BRANCH  17  18
ATOM     18  N   UNL     1      -2.980   4.046   1.309  0.00  0.00    +0.057 N 
ATOM     19  O   UNL     1      -2.954   2.853   1.066  0.00  0.00    -0.126 OA
ATOM     20  O   UNL     1      -3.855   4.746   0.832  0.00  0.00    -0.126 OA
ENDBRANCH  17  18
ENDBRANCH   6  12
BRANCH  10  21
ATOM     21  C   UNL     1      -3.998   3.415   9.072  0.00  0.00    -0.043 A 
ATOM     22  C   UNL     1      -4.822   2.381   9.476  0.00  0.00    +0.004 A 
ATOM     23  C   UNL     1      -5.361   2.384  10.749  0.00  0.00    +0.000 A 
ATOM     24  C   UNL     1      -5.083   3.425  11.615  0.00  0.00    +0.000 A 
ATOM     25  C   UNL     1      -4.263   4.461  11.210  0.00  0.00    +0.000 A 
ATOM     26  C   UNL     1      -3.721   4.456   9.938  0.00  0.00    +0.004 A 
ENDBRANCH  10  21
BRANCH   2  27
ATOM     27  N   UNL     1       0.501   0.129   4.562  0.00  0.00    -0.329 N 
ATOM     28  H   UNL     1       0.815  -0.138   3.684  0.00  0.00    +0.145 HD
ATOM     29  H   UNL     1       0.871  -0.287   5.357  0.00  0.00    +0.145 HD
ENDBRANCH   2  27
BRANCH   1  30
ATOM     30  C   UNL     1      -0.682   1.090   2.301  0.00  0.00    +0.341 C 
ATOM     31  O   UNL     1      -1.366   0.253   1.739  0.00  0.00    -0.245 OA
BRANCH  30  32
ATOM     32  O   UNL     1       0.443   1.549   1.711  0.00  0.00    -0.462 OA
BRANCH  32  34
ATOM     33  C   UNL     1       2.066   1.647  -0.077  0.00  0.00    +0.048 C 
ATOM     34  C   UNL     1       0.769   1.010   0.428  0.00  0.00    +0.229 C 
ENDBRANCH  32  34
ENDBRANCH  30  32
ENDBRANCH   1  30
TORSDOF 7
