REMARK  Name = ZINC20272485
REMARK  11 active torsions:
REMARK  status: ('A' for Active; 'I' for Inactive)
REMARK    1  A    between atoms: C_1  and  C_2
REMARK    2  A    between atoms: C_2  and  C_3
REMARK    3  A    between atoms: C_3  and  C_4
REMARK    4  A    between atoms: C_5  and  C_22
REMARK    5  A    between atoms: C_9  and  C_21
REMARK    6  A    between atoms: N_10  and  C_11
REMARK    7  A    between atoms: C_11  and  C_12
REMARK    8  A    between atoms: N_24  and  C_25
REMARK    9  A    between atoms: C_25  and  C_26
REMARK   10  A    between atoms: N_31  and  C_32
REMARK   11  A    between atoms: C_32  and  C_33
REMARK                            x       y       z     vdW  Elec       q    Type
REMARK                         _______ _______ _______ _____ _____    ______ ____
ROOT
ATOM      1  C   UNL     1       0.320   0.517  -1.306  0.00  0.00    +0.035 A 
ATOM      2  C   UNL     1       0.992   1.230  -2.277  0.00  0.00    +0.103 A 
ATOM      3  C   UNL     1       1.120   0.634  -3.615  0.00  0.00    +0.194 A 
ATOM      4  O   UNL     1       1.708   1.217  -4.512  0.00  0.00    -0.287 OA
ATOM      5  C   UNL     1       0.534  -0.638  -3.832  0.00  0.00    +0.072 A 
ATOM      6  C   UNL     1      -0.107  -1.252  -2.817  0.00  0.00    +0.020 A 
ATOM      7  N   UNL     1      -0.208  -0.685  -1.589  0.00  0.00    -0.343 N 
ATOM      8  C   UNL     1      -0.728  -2.605  -3.053  0.00  0.00    +0.063 C 
ENDROOT
BRANCH   2   9
ATOM      9  C   UNL     1       1.570   2.552  -1.980  0.00  0.00    +0.249 C 
ATOM     10  O   UNL     1       2.712   2.638  -1.571  0.00  0.00    -0.270 OA
ATOM     11  N   UNL     1       0.834   3.666  -2.163  0.00  0.00    -0.313 N 
ATOM     12  H   UNL     1      -0.198   3.589  -2.534  0.00  0.00    +0.149 HD
BRANCH  11  13
ATOM     13  C   UNL     1       1.410   4.981  -1.868  0.00  0.00    +0.089 C 
BRANCH  13  14
ATOM     14  C   UNL     1       0.446   6.075  -2.332  0.00  0.00    -0.051 C 
ATOM     15  C   UNL     1       1.064   7.475  -2.091  0.00  0.00    -0.016 C 
ATOM     16  C   UNL     1       0.307   8.336  -3.136  0.00  0.00    -0.020 C 
ATOM     17  C   UNL     1       0.139   7.369  -4.327  0.00  0.00    -0.078 C 
ATOM     18  N   UNL     1       0.245   5.998  -3.794  0.00  0.00    +0.382 N 
ATOM     19  H   UNL     1       1.099   5.485  -4.262  0.00  0.00    -0.081 HD
BRANCH  18  20
ATOM     20  C   UNL     1      -0.952   5.212  -4.121  0.00  0.00    -0.082 C 
ATOM     21  C   UNL     1      -1.203   5.267  -5.629  0.00  0.00    -0.017 C 
ENDBRANCH  18  20
ENDBRANCH  13  14
ENDBRANCH  11  13
ENDBRANCH   2   9
BRANCH   1  22
ATOM     22  C   UNL     1       0.172   1.093   0.079  0.00  0.00    +0.054 C 
BRANCH  22  24
ATOM     23  C   UNL     1       1.262   1.338   2.314  0.00  0.00    +0.004 C 
ATOM     24  C   UNL     1       1.412   0.753   0.908  0.00  0.00    +0.003 C 
ENDBRANCH  22  24
ENDBRANCH   1  22
BRANCH   7  25
ATOM     25  C   UNL     1      -0.920  -1.410  -0.534  0.00  0.00    +0.157 C 
BRANCH  25  26
ATOM     26  C   UNL     1      -2.398  -1.138  -0.646  0.00  0.00    -0.024 A 
ATOM     27  C   UNL     1      -3.217  -2.038  -1.302  0.00  0.00    +0.009 A 
ATOM     28  C   UNL     1      -4.574  -1.793  -1.408  0.00  0.00    +0.050 A 
ATOM     29  C   UNL     1      -5.115  -0.643  -0.857  0.00  0.00    +0.166 A 
ATOM     30  C   UNL     1      -4.291   0.263  -0.196  0.00  0.00    +0.167 A 
ATOM     31  C   UNL     1      -2.933   0.009  -0.089  0.00  0.00    +0.055 A 
ATOM     32  O   UNL     1      -5.055   1.301   0.253  0.00  0.00    -0.453 OA
ATOM     33  C   UNL     1      -6.412   0.823   0.218  0.00  0.00    +0.466 C 
ATOM     34  O   UNL     1      -6.397  -0.174  -0.822  0.00  0.00    -0.453 OA
ENDBRANCH  25  26
ENDBRANCH   7  25
TORSDOF 8
