REMARK  Name = ZINC12414551
REMARK  3 active torsions:
REMARK  status: ('A' for Active; 'I' for Inactive)
REMARK    1  A    between atoms: C_1  and  C_2
REMARK    2  A    between atoms: C_9  and  C_15
REMARK    3  A    between atoms: N_17  and  C_18
REMARK                            x       y       z     vdW  Elec       q    Type
REMARK                         _______ _______ _______ _____ _____    ______ ____
ROOT
ATOM      1  C   UNL     1      -0.002   1.085   0.025  0.00  0.00    +0.044 C 
ATOM      2  C   UNL     1      -0.714   1.569   1.262  0.00  0.00    -0.049 A 
ATOM      3  C   UNL     1       0.002   1.796   2.424  0.00  0.00    +0.005 A 
ATOM      4  C   UNL     1      -0.651   2.247   3.558  0.00  0.00    +0.030 A 
ATOM      5  C   UNL     1      -2.012   2.467   3.528  0.00  0.00    +0.126 A 
ATOM      6  C   UNL     1      -2.742   2.230   2.372  0.00  0.00    +0.056 A 
ATOM      7  C   UNL     1      -2.075   1.788   1.230  0.00  0.00    +0.028 A 
ATOM      8  N   UNL     1      -4.121   2.414   2.314  0.00  0.00    -0.319 N 
ATOM      9  C   UNL     1      -4.855   3.277   3.236  0.00  0.00    +0.247 C 
ATOM     10  N   UNL     1      -4.462   2.937   4.619  0.00  0.00    -0.161 NA
ATOM     11  S   UNL     1      -2.836   3.076   4.969  0.00  0.00    +0.062 S 
ATOM     12  O   UNL     1      -2.559   2.163   6.022  0.00  0.00    -0.153 OA
ATOM     13  O   UNL     1      -2.548   4.464   5.057  0.00  0.00    -0.153 OA
ATOM     14  H   UNL     1      -4.620   1.944   1.628  0.00  0.00    +0.148 HD
ATOM     15  H   UNL     1      -5.108   2.650   5.282  0.00  0.00    +0.151 HD
ENDROOT
BRANCH   9  16
ATOM     16  C   UNL     1      -4.518   4.719   2.955  0.00  0.00    +0.254 C 
ATOM     17  O   UNL     1      -3.554   4.994   2.272  0.00  0.00    -0.272 OA
ATOM     18  N   UNL     1      -5.287   5.702   3.464  0.00  0.00    -0.283 N 
ATOM     19  H   UNL     1      -6.095   5.481   3.954  0.00  0.00    +0.155 HD
BRANCH  18  20
ATOM     20  C   UNL     1      -4.921   7.041   3.284  0.00  0.00    +0.034 A 
ATOM     21  C   UNL     1      -5.178   7.972   4.282  0.00  0.00    +0.024 A 
ATOM     22  C   UNL     1      -4.812   9.291   4.104  0.00  0.00    +0.017 A 
ATOM     23  C   UNL     1      -4.197   9.688   2.929  0.00  0.00    +0.018 A 
ATOM     24  C   UNL     1      -3.943   8.763   1.932  0.00  0.00    +0.017 A 
ATOM     25  C   UNL     1      -4.304   7.441   2.107  0.00  0.00    +0.024 A 
ATOM     26 BR   UNL     1      -3.703  11.497   2.687  0.00  0.00    -0.050 Br
ENDBRANCH  18  20
ENDBRANCH   9  16
TORSDOF 2
