REMARK  Name = ZINC58714613
REMARK  10 active torsions:
REMARK  status: ('A' for Active; 'I' for Inactive)
REMARK    1  A    between atoms: C_1  and  C_2
REMARK    2  A    between atoms: C_3  and  C_32
REMARK    3  A    between atoms: C_7  and  N_23
REMARK    4  A    between atoms: C_9  and  S_11
REMARK    5  A    between atoms: S_11  and  C_12
REMARK    6  A    between atoms: C_12  and  C_14
REMARK    7  A    between atoms: C_12  and  C_17
REMARK    8  A    between atoms: C_14  and  C_15
REMARK    9  A    between atoms: C_14  and  C_16
REMARK   10  A    between atoms: C_24  and  C_26
REMARK                            x       y       z     vdW  Elec       q    Type
REMARK                         _______ _______ _______ _____ _____    ______ ____
ROOT
ATOM      1  C   UNL     1       0.810   1.438  -0.021  0.00  0.00    +0.048 C 
ATOM      2  C   UNL     1       0.762  -0.068  -0.011  0.00  0.00    +0.003 A 
ATOM      3  C   UNL     1       0.928  -0.886  -1.060  0.00  0.00    +0.108 A 
ATOM      4  O   UNL     1       0.818  -2.169  -0.667  0.00  0.00    -0.442 OA
ATOM      5  C   UNL     1       0.575  -2.249   0.652  0.00  0.00    +0.233 A 
ATOM      6  C   UNL     1       0.531  -0.934   1.147  0.00  0.00    +0.083 A 
ATOM      7  C   UNL     1       0.296  -0.731   2.513  0.00  0.00    +0.141 A 
ATOM      8  N   UNL     1       0.126  -1.795   3.291  0.00  0.00    -0.206 NA
ATOM      9  C   UNL     1       0.177  -3.022   2.787  0.00  0.00    +0.194 A 
ATOM     10  N   UNL     1       0.389  -3.255   1.502  0.00  0.00    -0.186 NA
ATOM     11  C   UNL     1       1.199  -0.435  -2.472  0.00  0.00    +0.086 C 
ENDROOT
BRANCH   7  12
ATOM     12  N   UNL     1       0.242   0.551   3.042  0.00  0.00    -0.266 N 
ATOM     13  C   UNL     1       0.015   0.728   4.358  0.00  0.00    +0.249 C 
ATOM     14  O   UNL     1      -0.143  -0.235   5.083  0.00  0.00    -0.270 OA
ATOM     15  H   UNL     1       0.368   1.319   2.463  0.00  0.00    +0.157 HD
BRANCH  13  16
ATOM     16  C   UNL     1      -0.043   2.094   4.921  0.00  0.00    +0.037 A 
ATOM     17  C   UNL     1       0.133   3.202   4.091  0.00  0.00    +0.013 A 
ATOM     18  C   UNL     1       0.078   4.474   4.622  0.00  0.00    +0.001 A 
ATOM     19  C   UNL     1      -0.150   4.652   5.975  0.00  0.00    +0.000 A 
ATOM     20  C   UNL     1      -0.324   3.558   6.804  0.00  0.00    +0.001 A 
ATOM     21  C   UNL     1      -0.278   2.281   6.284  0.00  0.00    +0.013 A 
ENDBRANCH  13  16
ENDBRANCH   7  12
BRANCH   9  22
ATOM     22  S   UNL     1      -0.056  -4.392   3.870  0.00  0.00    -0.073 S 
BRANCH  22  23
ATOM     23  C   UNL     1      -0.039  -5.831   2.765  0.00  0.00    +0.143 C 
BRANCH  23  24
ATOM     24  C   UNL     1      -1.264  -5.806   1.888  0.00  0.00    +0.234 C 
ATOM     25  O   UNL     1      -2.230  -5.150   2.214  0.00  0.00    -0.274 OA
ATOM     26  N   UNL     1      -1.285  -6.512   0.740  0.00  0.00    -0.239 N 
ATOM     27  C   UNL     1      -2.381  -6.489  -0.045  0.00  0.00    +0.303 C 
ATOM     28  O   UNL     1      -3.349  -5.831   0.282  0.00  0.00    -0.253 OA
ATOM     29  N   UNL     1      -2.402  -7.195  -1.193  0.00  0.00    -0.313 N 
ATOM     30  H   UNL     1      -0.512  -7.036   0.478  0.00  0.00    +0.159 HD
ATOM     31  H   UNL     1      -1.629  -7.720  -1.454  0.00  0.00    +0.146 HD
ATOM     32  H   UNL     1      -3.191  -7.178  -1.758  0.00  0.00    +0.146 HD
ENDBRANCH  23  24
BRANCH  23  33
ATOM     33  C   UNL     1      -0.036  -7.114   3.599  0.00  0.00    +0.005 C 
ATOM     34  C   UNL     1      -0.040  -8.328   2.667  0.00  0.00    +0.009 C 
ATOM     35  C   UNL     1       1.217  -7.149   4.476  0.00  0.00    +0.009 C 
ENDBRANCH  23  33
ENDBRANCH  22  23
ENDBRANCH   9  22
TORSDOF 6
