REMARK  Name = ZINC01168758
REMARK  6 active torsions:
REMARK  status: ('A' for Active; 'I' for Inactive)
REMARK    1  A    between atoms: C_1  and  C_2
REMARK    2  A    between atoms: C_4  and  C_24
REMARK    3  A    between atoms: C_10  and  C_23
REMARK    4  A    between atoms: N_11  and  N_12
REMARK    5  A    between atoms: C_13  and  C_14
REMARK    6  A    between atoms: C_19  and  O_20
REMARK                            x       y       z     vdW  Elec       q    Type
REMARK                         _______ _______ _______ _____ _____    ______ ____
ROOT
ATOM      1  C   UNL     1      -1.251   2.260   0.021  0.00  0.00    +0.067 C 
ATOM      2  C   UNL     1      -0.017   1.395   0.010  0.00  0.00    +0.061 A 
ATOM      3  C   UNL     1       0.002  -0.004   0.002  0.00  0.00    +0.048 A 
ATOM      4  C   UNL     1       1.295  -0.404  -0.013  0.00  0.00    +0.045 A 
ATOM      5  N   UNL     1       2.070   0.712  -0.014  0.00  0.00    -0.201 N 
ATOM      6  N   UNL     1       1.219   1.825   0.000  0.00  0.00    -0.169 NA
ATOM      7  C   UNL     1       3.464   0.743  -0.027  0.00  0.00    +0.273 A 
ATOM      8  N   UNL     1       4.267  -0.293  -0.041  0.00  0.00    -0.107 NA
ATOM      9  N   UNL     1       5.490   0.102  -0.050  0.00  0.00    -0.131 NA
ATOM     10  C   UNL     1       5.539   1.406  -0.043  0.00  0.00    +0.153 A 
ATOM     11  N   UNL     1       4.251   1.861  -0.034  0.00  0.00    -0.181 N 
ATOM     12  C   UNL     1       6.786   2.253  -0.050  0.00  0.00    +0.090 C 
ATOM     13  C   UNL     1       1.785  -1.829  -0.025  0.00  0.00    +0.066 C 
ENDROOT
BRANCH  11  14
ATOM     14  N   UNL     1       3.826   3.196  -0.029  0.00  0.00    -0.170 NA
ATOM     15  C   UNL     1       3.639   3.814   1.097  0.00  0.00    +0.145 C 
BRANCH  15  16
ATOM     16  C   UNL     1       3.192   5.218   1.101  0.00  0.00    +0.039 A 
ATOM     17  C   UNL     1       2.990   5.886   2.312  0.00  0.00    +0.033 A 
ATOM     18  C   UNL     1       2.570   7.201   2.309  0.00  0.00    +0.043 A 
ATOM     19  C   UNL     1       2.349   7.861   1.112  0.00  0.00    +0.043 A 
ATOM     20  C   UNL     1       2.545   7.210  -0.092  0.00  0.00    +0.084 A 
ATOM     21  C   UNL     1       2.972   5.891  -0.108  0.00  0.00    +0.144 A 
ATOM     22 CL   UNL     1       2.264   8.048  -1.587  0.00  0.00    -0.080 Cl
ATOM     23 CL   UNL     1       2.319   8.030   3.813  0.00  0.00    -0.083 Cl
BRANCH  21  24
ATOM     24  O   UNL     1       3.170   5.252  -1.290  0.00  0.00    -0.505 OA
ATOM     25  H   UNL     1       2.386   4.799  -1.628  0.00  0.00    +0.292 HD
ENDBRANCH  21  24
ENDBRANCH  15  16
ENDBRANCH  11  14
TORSDOF 3
