REMARK  Name = ZINC23858035
REMARK  7 active torsions:
REMARK  status: ('A' for Active; 'I' for Inactive)
REMARK    1  A    between atoms: C_1  and  N_2
REMARK    2  A    between atoms: C_9  and  C_11
REMARK    3  A    between atoms: C_11  and  C_13
REMARK    4  A    between atoms: C_11  and  N_28
REMARK    5  A    between atoms: C_13  and  N_14
REMARK    6  A    between atoms: C_15  and  C_17
REMARK    7  A    between atoms: N_19  and  C_20
REMARK                            x       y       z     vdW  Elec       q    Type
REMARK                         _______ _______ _______ _____ _____    ______ ____
ROOT
ATOM      1  C   UNL     1       0.978   0.868  -0.705  0.00  0.00    -0.020 C 
ENDROOT
BRANCH   1  10
ATOM      2  C   UNL     1      -1.019   2.806  -6.538  0.00  0.00    +0.129 C 
ATOM      3  N   UNL     1      -1.228   1.505  -5.889  0.00  0.00    -0.332 N 
ATOM      4  C   UNL     1      -0.536   0.427  -6.628  0.00  0.00    +0.109 C 
ATOM      5  C   UNL     1      -0.171  -0.573  -5.506  0.00  0.00    +0.056 C 
ATOM      6  C   UNL     1      -0.104   0.311  -4.277  0.00  0.00    -0.025 A 
ATOM      7  C   UNL     1      -0.734   1.513  -4.579  0.00  0.00    +0.033 A 
ATOM      8  C   UNL     1      -0.796   2.509  -3.605  0.00  0.00    +0.023 A 
ATOM      9  C   UNL     1      -0.247   2.295  -2.358  0.00  0.00    +0.004 A 
ATOM     10  C   UNL     1       0.378   1.096  -2.068  0.00  0.00    -0.059 A 
ATOM     11  C   UNL     1       0.447   0.104  -3.030  0.00  0.00    +0.007 A 
ENDBRANCH   1  10
BRANCH   1  12
ATOM     12  N   UNL     1      -0.095   0.781   0.294  0.00  0.00    +0.385 N 
ATOM     13  C   UNL     1      -1.246   0.036  -0.233  0.00  0.00    -0.078 C 
ATOM     14  C   UNL     1      -2.280  -0.160   0.878  0.00  0.00    -0.019 C 
ATOM     15  C   UNL     1      -2.729   1.209   1.398  0.00  0.00    -0.004 C 
ATOM     16  C   UNL     1      -1.506   1.983   1.896  0.00  0.00    -0.019 C 
ATOM     17  C   UNL     1      -0.494   2.117   0.756  0.00  0.00    -0.078 C 
ATOM     18  H   UNL     1       0.293   0.228   1.163  0.00  0.00    -0.081 HD
ENDBRANCH   1  12
BRANCH   1  19
ATOM     19  C   UNL     1       1.907   2.032  -0.355  0.00  0.00    +0.094 C 
BRANCH  19  20
ATOM     20  N   UNL     1       2.551   1.773   0.935  0.00  0.00    -0.309 N 
ATOM     21  C   UNL     1       3.485   2.623   1.405  0.00  0.00    +0.299 C 
ATOM     22  O   UNL     1       3.793   3.604   0.759  0.00  0.00    -0.265 OA
ATOM     23  H   UNL     1       2.272   0.884   1.520  0.00  0.00    +0.149 HD
BRANCH  21  24
ATOM     24  C   UNL     1       4.142   2.359   2.720  0.00  0.00    +0.303 C 
ATOM     25  O   UNL     1       3.834   1.378   3.365  0.00  0.00    -0.265 OA
ATOM     26  N   UNL     1       5.076   3.209   3.190  0.00  0.00    -0.275 N 
ATOM     27  H   UNL     1       5.287   4.146   2.653  0.00  0.00    +0.155 HD
BRANCH  26  28
ATOM     28  C   UNL     1       5.776   2.901   4.361  0.00  0.00    +0.070 A 
ATOM     29  C   UNL     1       5.829   1.590   4.816  0.00  0.00    +0.029 A 
ATOM     30  C   UNL     1       6.521   1.288   5.972  0.00  0.00    +0.040 A 
ATOM     31  C   UNL     1       7.164   2.291   6.679  0.00  0.00    +0.126 A 
ATOM     32  C   UNL     1       7.114   3.600   6.229  0.00  0.00    +0.078 A 
ATOM     33  C   UNL     1       6.426   3.907   5.069  0.00  0.00    +0.147 A 
ATOM     34  F   UNL     1       6.382   5.183   4.627  0.00  0.00    -0.203 F 
ATOM     35  F   UNL     1       7.840   1.992   7.809  0.00  0.00    -0.205 F 
ENDBRANCH  26  28
ENDBRANCH  21  24
ENDBRANCH  19  20
ENDBRANCH   1  19
TORSDOF 6
