REMARK  Name = ZINC05385347
REMARK  10 active torsions:
REMARK  status: ('A' for Active; 'I' for Inactive)
REMARK    1  A    between atoms: C_1  and  C_2
REMARK    2  A    between atoms: C_3  and  C_23
REMARK    3  A    between atoms: C_4  and  C_13
REMARK    4  A    between atoms: C_5  and  C_9
REMARK    5  A    between atoms: C_6  and  C_8
REMARK    6  A    between atoms: C_9  and  O_11
REMARK    7  A    between atoms: O_11  and  C_12
REMARK    8  A    between atoms: C_16  and  C_19
REMARK    9  A    between atoms: C_23  and  O_25
REMARK   10  A    between atoms: O_25  and  C_26
REMARK                            x       y       z     vdW  Elec       q    Type
REMARK                         _______ _______ _______ _____ _____    ______ ____
ROOT
ATOM      1  C   UNL     1      -4.670  -3.170   0.625  0.00  0.00    +0.061 C 
ATOM      2  C   UNL     1      -3.510  -2.260   0.317  0.00  0.00    +0.031 C 
ATOM      3  C   UNL     1      -3.635  -0.935   0.509  0.00  0.00    +0.154 C 
ATOM      4  C   UNL     1      -2.508   0.010   0.214  0.00  0.00    +0.077 C 
ATOM      5  C   UNL     1      -1.210  -0.734   0.074  0.00  0.00    +0.066 C 
ATOM      6  C   UNL     1      -1.181  -2.067  -0.100  0.00  0.00    +0.049 C 
ATOM      7  N   UNL     1      -2.341  -2.792  -0.154  0.00  0.00    -0.260 NA
ATOM      8  C   UNL     1       0.144  -2.771  -0.238  0.00  0.00    +0.066 C 
ENDROOT
BRANCH   4   9
ATOM      9  C   UNL     1      -2.802   0.739  -1.072  0.00  0.00    -0.039 A 
ATOM     10  C   UNL     1      -2.938   0.032  -2.252  0.00  0.00    +0.005 A 
ATOM     11  C   UNL     1      -3.212   0.700  -3.430  0.00  0.00    +0.012 A 
ATOM     12  C   UNL     1      -3.342   2.076  -3.430  0.00  0.00    +0.055 A 
ATOM     13  C   UNL     1      -3.201   2.784  -2.251  0.00  0.00    +0.012 A 
ATOM     14  C   UNL     1      -2.931   2.115  -1.072  0.00  0.00    +0.005 A 
BRANCH  12  15
ATOM     15  C   UNL     1      -3.636   2.805  -4.716  0.00  0.00    +0.417 C 
ATOM     16  F   UNL     1      -2.434   3.152  -5.341  0.00  0.00    -0.166 F 
ATOM     17  F   UNL     1      -4.380   1.976  -5.563  0.00  0.00    -0.166 F 
ATOM     18  F   UNL     1      -4.369   3.964  -4.438  0.00  0.00    -0.166 F 
ENDBRANCH  12  15
ENDBRANCH   4   9
BRANCH   5  19
ATOM     19  C   UNL     1       0.008  -0.017   0.128  0.00  0.00    +0.337 C 
ATOM     20  O   UNL     1       0.478   0.303   1.203  0.00  0.00    -0.245 OA
BRANCH  19  21
ATOM     21  O   UNL     1       0.648   0.311  -1.014  0.00  0.00    -0.465 OA
ATOM     22  C   UNL     1       1.873   1.036  -0.885  0.00  0.00    +0.280 C 
ENDBRANCH  19  21
ENDBRANCH   5  19
BRANCH   3  23
ATOM     23  C   UNL     1      -4.856  -0.421   1.006  0.00  0.00    +0.316 C 
ATOM     24  O   UNL     1      -5.777  -1.176   1.254  0.00  0.00    -0.250 OA
BRANCH  23  25
ATOM     25  O   UNL     1      -4.997   0.906   1.204  0.00  0.00    -0.467 OA
ATOM     26  C   UNL     1      -6.257   1.356   1.708  0.00  0.00    +0.280 C 
ENDBRANCH  23  25
ENDBRANCH   3  23
TORSDOF 6
