REMARK  Name = ZINC32283030
REMARK  7 active torsions:
REMARK  status: ('A' for Active; 'I' for Inactive)
REMARK    1  A    between atoms: C_1  and  C_2
REMARK    2  A    between atoms: C_2  and  C_4
REMARK    3  A    between atoms: C_2  and  N_15
REMARK    4  A    between atoms: C_16  and  C_18
REMARK    5  A    between atoms: C_18  and  C_19
REMARK    6  A    between atoms: C_22  and  C_24
REMARK    7  A    between atoms: C_27  and  C_30
REMARK                            x       y       z     vdW  Elec       q    Type
REMARK                         _______ _______ _______ _____ _____    ______ ____
ROOT
ATOM      1  N   UNL     1      -1.241   3.269   0.914  0.00  0.00    -0.308 N 
ATOM      2  C   UNL     1      -2.355   3.773   1.481  0.00  0.00    +0.219 C 
ATOM      3  O   UNL     1      -3.433   3.268   1.252  0.00  0.00    -0.275 OA
ATOM      4  H   UNL     1      -0.263   3.727   1.121  0.00  0.00    +0.149 HD
ENDROOT
BRANCH   1   6
ATOM      5  C   UNL     1      -1.664   2.587  -1.397  0.00  0.00    +0.033 C 
ATOM      6  C   UNL     1      -1.333   2.112   0.020  0.00  0.00    +0.100 C 
BRANCH   6   7
ATOM      7  C   UNL     1      -0.017   1.379   0.010  0.00  0.00    -0.024 A 
ATOM      8  C   UNL     1       1.168   2.091   0.002  0.00  0.00    +0.009 A 
ATOM      9  C   UNL     1       2.381   1.425  -0.013  0.00  0.00    +0.050 A 
ATOM     10  C   UNL     1       2.403   0.041  -0.021  0.00  0.00    +0.162 A 
ATOM     11  C   UNL     1       1.214  -0.674  -0.013  0.00  0.00    +0.162 A 
ATOM     12  C   UNL     1       0.002  -0.004   0.002  0.00  0.00    +0.055 A 
ATOM     13  O   UNL     1       1.247  -2.038  -0.019  0.00  0.00    -0.488 OA
ATOM     14  C   UNL     1       1.726  -2.646  -1.221  0.00  0.00    +0.232 C 
ATOM     15  C   UNL     1       3.244  -2.720  -1.219  0.00  0.00    +0.082 C 
ATOM     16  C   UNL     1       3.892  -1.344  -1.236  0.00  0.00    +0.232 C 
ATOM     17  O   UNL     1       3.592  -0.629  -0.035  0.00  0.00    -0.488 OA
ENDBRANCH   6   7
ENDBRANCH   1   6
BRANCH   2  18
ATOM     18  C   UNL     1      -2.260   4.963   2.401  0.00  0.00    +0.151 C 
BRANCH  18  19
ATOM     19  C   UNL     1      -3.636   5.325   2.897  0.00  0.00    +0.058 A 
ATOM     20  C   UNL     1      -3.878   5.406   4.233  0.00  0.00    +0.071 A 
ATOM     21  S   UNL     1      -5.610   5.853   4.228  0.00  0.00    -0.075 S 
ATOM     22  C   UNL     1      -5.821   5.883   2.452  0.00  0.00    +0.109 A 
ATOM     23  N   UNL     1      -4.601   5.568   2.042  0.00  0.00    -0.243 NA
BRANCH  22  24
ATOM     24  C   UNL     1      -7.030   6.184   1.656  0.00  0.00    +0.007 A 
ATOM     25  C   UNL     1      -6.976   6.156   0.262  0.00  0.00    +0.011 A 
ATOM     26  C   UNL     1      -8.109   6.434  -0.475  0.00  0.00    +0.013 A 
ATOM     27  C   UNL     1      -9.295   6.749   0.166  0.00  0.00    +0.055 A 
ATOM     28  C   UNL     1      -9.354   6.783   1.548  0.00  0.00    +0.013 A 
ATOM     29  C   UNL     1      -8.229   6.503   2.296  0.00  0.00    +0.011 A 
BRANCH  27  30
ATOM     30  C   UNL     1     -10.527   7.056  -0.646  0.00  0.00    +0.417 C 
ATOM     31  F   UNL     1     -10.578   8.428  -0.914  0.00  0.00    -0.166 F 
ATOM     32  F   UNL     1     -10.481   6.346  -1.850  0.00  0.00    -0.166 F 
ATOM     33  F   UNL     1     -11.665   6.679   0.075  0.00  0.00    -0.166 F 
ENDBRANCH  27  30
ENDBRANCH  22  24
ENDBRANCH  18  19
ENDBRANCH   2  18
TORSDOF 6
