REMARK  Name = ZINC36852769
REMARK  4 active torsions:
REMARK  status: ('A' for Active; 'I' for Inactive)
REMARK    1  A    between atoms: C_1  and  N_2
REMARK    2  A    between atoms: C_4  and  N_7
REMARK    3  A    between atoms: N_7  and  C_8
REMARK    4  A    between atoms: C_17  and  O_18
REMARK                            x       y       z     vdW  Elec       q    Type
REMARK                         _______ _______ _______ _____ _____    ______ ____
ROOT
ATOM      1  C   UNL     1       0.060  -4.566  -0.897  0.00  0.00    +0.101 C 
ATOM      2  C   UNL     1       0.650  -5.591  -1.889  0.00  0.00    +0.032 C 
ATOM      3  C   UNL     1      -0.611  -6.127  -2.600  0.00  0.00    +0.041 C 
ATOM      4  C   UNL     1      -1.736  -5.939  -1.605  0.00  0.00    -0.001 A 
ATOM      5  C   UNL     1      -1.351  -5.041  -0.625  0.00  0.00    -0.021 A 
ATOM      6  C   UNL     1      -2.226  -4.714   0.398  0.00  0.00    +0.006 A 
ATOM      7  C   UNL     1      -3.486  -5.280   0.446  0.00  0.00    +0.004 A 
ATOM      8  C   UNL     1      -3.877  -6.177  -0.528  0.00  0.00    +0.046 A 
ATOM      9  C   UNL     1      -3.002  -6.510  -1.559  0.00  0.00    +0.120 A 
ENDROOT
BRANCH   1  10
ATOM     10  N   UNL     1       0.039  -3.231  -1.500  0.00  0.00    -0.335 N 
ATOM     11  H   UNL     1       0.033  -3.134  -2.465  0.00  0.00    +0.147 HD
BRANCH  10  15
ATOM     12  C   UNL     1      -0.018   1.461   0.010  0.00  0.00    +0.172 C 
ATOM     13  N   UNL     1       0.002  -0.004   0.002  0.00  0.00    -0.273 N 
ATOM     14  C   UNL     1       0.008  -0.798  -1.101  0.00  0.00    +0.131 A 
ATOM     15  C   UNL     1       0.027  -2.087  -0.677  0.00  0.00    +0.066 A 
ATOM     16  C   UNL     1       0.034  -2.079   0.725  0.00  0.00    +0.157 A 
ATOM     17  N   UNL     1       0.025  -0.835   1.130  0.00  0.00    -0.178 NA
ENDBRANCH  10  15
ENDBRANCH   1  10
BRANCH   9  18
ATOM     18  O   UNL     1      -3.384  -7.393  -2.519  0.00  0.00    -0.506 OA
ATOM     19  H   UNL     1      -3.176  -8.314  -2.312  0.00  0.00    +0.292 HD
ENDBRANCH   9  18
TORSDOF 3
