REMARK  Name = ZINC12634482
REMARK  5 active torsions:
REMARK  status: ('A' for Active; 'I' for Inactive)
REMARK    1  A    between atoms: C_4  and  N_11
REMARK    2  A    between atoms: C_5  and  C_7
REMARK    3  A    between atoms: N_13  and  N_28
REMARK    4  A    between atoms: C_14  and  C_17
REMARK    5  A    between atoms: C_29  and  C_30
REMARK                            x       y       z     vdW  Elec       q    Type
REMARK                         _______ _______ _______ _____ _____    ______ ____
ROOT
ATOM      1  N   UNL     1       3.970  -2.340   0.487  0.00  0.00    -0.222 NA
ATOM      2  C   UNL     1       3.749  -1.066   0.221  0.00  0.00    +0.195 A 
ATOM      3  N   UNL     1       2.552  -0.407   0.056  0.00  0.00    -0.207 N 
ATOM      4  C   UNL     1       2.574   0.933  -0.218  0.00  0.00    +0.082 A 
ATOM      5  C   UNL     1       3.758   1.573  -0.327  0.00  0.00    +0.077 A 
ATOM      6  S   UNL     1       4.925   0.256  -0.022  0.00  0.00    -0.056 S 
ENDROOT
BRANCH   4   7
ATOM      7  C   UNL     1       1.308   1.675  -0.402  0.00  0.00    +0.003 A 
ATOM      8  C   UNL     1       0.187   1.027  -0.922  0.00  0.00    +0.014 A 
ATOM      9  C   UNL     1      -0.994   1.720  -1.098  0.00  0.00    +0.048 A 
ATOM     10  C   UNL     1      -1.072   3.059  -0.749  0.00  0.00    +0.142 A 
ATOM     11  C   UNL     1       0.046   3.712  -0.229  0.00  0.00    +0.076 A 
ATOM     12  C   UNL     1       1.233   3.025  -0.055  0.00  0.00    +0.037 A 
ATOM     13  N   UNL     1      -0.051   5.069   0.112  0.00  0.00    -0.280 N 
ATOM     14  C   UNL     1      -1.274   5.629   0.233  0.00  0.00    +0.255 C 
ATOM     15  O   UNL     1      -1.382   6.808   0.498  0.00  0.00    -0.272 OA
ATOM     16  C   UNL     1      -2.506   4.782   0.038  0.00  0.00    +0.325 C 
ATOM     17  O   UNL     1      -2.233   3.749  -0.912  0.00  0.00    -0.481 OA
ATOM     18  H   UNL     1       0.749   5.598   0.258  0.00  0.00    +0.155 HD
ENDBRANCH   4   7
BRANCH   1  22
ATOM     19  C   UNL     1       7.829  -3.676   1.146  0.00  0.00    +0.001 A 
ATOM     20  C   UNL     1       7.107  -3.117   2.186  0.00  0.00    +0.002 A 
ATOM     21  C   UNL     1       5.822  -2.665   1.973  0.00  0.00    +0.028 A 
ATOM     22  C   UNL     1       5.245  -2.781   0.705  0.00  0.00    +0.078 A 
ATOM     23  C   UNL     1       5.980  -3.346  -0.340  0.00  0.00    +0.080 A 
ATOM     24  C   UNL     1       7.267  -3.789  -0.113  0.00  0.00    +0.014 A 
BRANCH  23  25
ATOM     25  C   UNL     1       5.369  -3.471  -1.712  0.00  0.00    +0.419 C 
ATOM     26  F   UNL     1       6.292  -4.063  -2.582  0.00  0.00    -0.166 F 
ATOM     27  F   UNL     1       4.221  -4.267  -1.640  0.00  0.00    -0.166 F 
ATOM     28  F   UNL     1       5.028  -2.201  -2.188  0.00  0.00    -0.166 F 
ENDBRANCH  23  25
ENDBRANCH   1  22
BRANCH   3  29
ATOM     29  N   UNL     1       1.336  -1.093   0.168  0.00  0.00    -0.171 NA
ATOM     30  C   UNL     1       1.267  -2.183   0.876  0.00  0.00    +0.148 C 
BRANCH  30  31
ATOM     31  C   UNL     1       0.029  -2.968   0.894  0.00  0.00    +0.032 A 
ATOM     32  C   UNL     1      -0.250  -4.143   1.573  0.00  0.00    +0.017 A 
ATOM     33  C   UNL     1      -1.501  -4.698   1.431  0.00  0.00    +0.008 A 
ATOM     34  C   UNL     1      -2.415  -4.082   0.637  0.00  0.00    +0.046 A 
ATOM     35  S   UNL     1      -1.515  -2.655   0.054  0.00  0.00    -0.096 S 
ENDBRANCH  30  31
ENDBRANCH   3  29
TORSDOF 5
