REMARK  Name = ZINC09325911
REMARK  12 active torsions:
REMARK  status: ('A' for Active; 'I' for Inactive)
REMARK    1  A    between atoms: C_1  and  C_2
REMARK    2  A    between atoms: C_2  and  N_3
REMARK    3  A    between atoms: C_5  and  O_32
REMARK    4  A    between atoms: N_12  and  C_13
REMARK    5  A    between atoms: C_13  and  C_15
REMARK    6  A    between atoms: C_18  and  S_21
REMARK    7  A    between atoms: S_21  and  N_24
REMARK    8  A    between atoms: N_24  and  C_25
REMARK    9  A    between atoms: N_24  and  C_28
REMARK   10  A    between atoms: C_25  and  C_26
REMARK   11  A    between atoms: C_28  and  C_29
REMARK   12  A    between atoms: O_32  and  C_33
REMARK                            x       y       z     vdW  Elec       q    Type
REMARK                         _______ _______ _______ _____ _____    ______ ____
ROOT
ATOM      1  C   UNL     1       0.083  -0.135   0.162  0.00  0.00    +0.269 C 
ATOM      2  O   UNL     1       1.124  -0.768   0.209  0.00  0.00    -0.268 OA
ENDROOT
BRANCH   1  12
ATOM      3  N   UNL     1      -2.204  -2.924   0.088  0.00  0.00    -0.318 N 
ATOM      4  C   UNL     1      -2.036  -4.298   0.097  0.00  0.00    +0.101 A 
ATOM      5  C   UNL     1      -3.026  -5.300   0.060  0.00  0.00    +0.145 A 
ATOM      6  C   UNL     1      -2.678  -6.633   0.082  0.00  0.00    +0.049 A 
ATOM      7  C   UNL     1      -1.351  -7.028   0.140  0.00  0.00    +0.025 A 
ATOM      8  C   UNL     1      -0.360  -6.063   0.176  0.00  0.00    +0.057 A 
ATOM      9  C   UNL     1      -0.705  -4.730   0.155  0.00  0.00    +0.061 A 
ATOM     10  S   UNL     1       0.215  -3.212   0.185  0.00  0.00    -0.050 S 
ATOM     11  C   UNL     1      -1.119  -2.106   0.123  0.00  0.00    +0.167 A 
ATOM     12  N   UNL     1      -1.088  -0.777   0.117  0.00  0.00    -0.152 NA
ATOM     13 CL   UNL     1       1.310  -6.530   0.248  0.00  0.00    -0.082 Cl
BRANCH   3  15
ATOM     14  C   UNL     1      -3.594  -1.071   0.871  0.00  0.00    +0.027 C 
ATOM     15  C   UNL     1      -3.551  -2.352   0.036  0.00  0.00    +0.121 C 
ENDBRANCH   3  15
BRANCH   5  16
ATOM     16  O   UNL     1      -4.338  -4.947   0.003  0.00  0.00    -0.493 OA
ATOM     17  C   UNL     1      -5.294  -6.008  -0.031  0.00  0.00    +0.277 C 
ENDBRANCH   5  16
ENDBRANCH   1  12
BRANCH   1  18
ATOM     18  C   UNL     1       0.117   1.346   0.156  0.00  0.00    +0.039 A 
ATOM     19  C   UNL     1      -1.071   2.073   0.096  0.00  0.00    +0.015 A 
ATOM     20  C   UNL     1      -1.033   3.452   0.095  0.00  0.00    +0.029 A 
ATOM     21  C   UNL     1       0.181   4.114   0.142  0.00  0.00    +0.106 A 
ATOM     22  C   UNL     1       1.364   3.398   0.196  0.00  0.00    +0.029 A 
ATOM     23  C   UNL     1       1.338   2.018   0.203  0.00  0.00    +0.015 A 
BRANCH  21  24
ATOM     24  S   UNL     1       0.222   5.875   0.133  0.00  0.00    +0.061 S 
ATOM     25  O   UNL     1      -1.036   6.313   0.629  0.00  0.00    -0.153 OA
ATOM     26  O   UNL     1       1.452   6.256   0.733  0.00  0.00    -0.153 OA
BRANCH  24  27
ATOM     27  N   UNL     1       0.299   6.355  -1.450  0.00  0.00    -0.169 NA
BRANCH  27  28
ATOM     28  C   UNL     1      -0.934   6.596  -2.203  0.00  0.00    +0.136 C 
BRANCH  28  29
ATOM     29  C   UNL     1      -1.277   8.063  -2.150  0.00  0.00    -0.018 C 
ATOM     30  C   UNL     1      -1.455   8.734  -3.261  0.00  0.00    +0.005 C 
ENDBRANCH  28  29
ENDBRANCH  27  28
BRANCH  27  31
ATOM     31  C   UNL     1       1.600   6.538  -2.097  0.00  0.00    +0.136 C 
BRANCH  31  32
ATOM     32  C   UNL     1       1.976   5.279  -2.836  0.00  0.00    -0.018 C 
ATOM     33  C   UNL     1       2.271   5.331  -4.111  0.00  0.00    +0.005 C 
ENDBRANCH  31  32
ENDBRANCH  27  31
ENDBRANCH  24  27
ENDBRANCH  21  24
ENDBRANCH   1  18
TORSDOF 10
