REMARK  Name = ZINC09045396
REMARK  9 active torsions:
REMARK  status: ('A' for Active; 'I' for Inactive)
REMARK    1  A    between atoms: C_1  and  C_2
REMARK    2  A    between atoms: C_11  and  O_24
REMARK    3  A    between atoms: C_12  and  C_14
REMARK    4  A    between atoms: C_17  and  C_20
REMARK    5  A    between atoms: C_20  and  C_21
REMARK    6  A    between atoms: C_20  and  C_22
REMARK    7  A    between atoms: C_20  and  C_23
REMARK    8  A    between atoms: O_24  and  C_25
REMARK    9  A    between atoms: C_25  and  C_27
REMARK                            x       y       z     vdW  Elec       q    Type
REMARK                         _______ _______ _______ _____ _____    ______ ____
ROOT
ATOM      1  C   UNL     1       7.741  -2.293   0.753  0.00  0.00    +0.045 C 
ATOM      2  C   UNL     1       6.495  -1.454   0.872  0.00  0.00    -0.029 A 
ATOM      3  C   UNL     1       5.783  -1.124  -0.261  0.00  0.00    +0.051 A 
ATOM      4  C   UNL     1       4.633  -0.351  -0.158  0.00  0.00    +0.140 A 
ATOM      5  C   UNL     1       4.209   0.086   1.108  0.00  0.00    +0.069 A 
ATOM      6  C   UNL     1       4.937  -0.254   2.247  0.00  0.00    +0.035 A 
ATOM      7  C   UNL     1       6.075  -1.022   2.123  0.00  0.00    +0.045 A 
ATOM      8 CL   UNL     1       6.987  -1.451   3.537  0.00  0.00    -0.083 Cl
ATOM      9  C   UNL     1       2.989   0.911   1.195  0.00  0.00    +0.235 A 
ATOM     10  O   UNL     1       2.577   1.322   2.268  0.00  0.00    -0.283 OA
ATOM     11  C   UNL     1       2.312   1.204  -0.017  0.00  0.00    +0.222 A 
ATOM     12  C   UNL     1       2.810   0.729  -1.194  0.00  0.00    +0.182 A 
ATOM     13  O   UNL     1       3.925  -0.017  -1.256  0.00  0.00    -0.451 OA
ENDROOT
BRANCH  12  14
ATOM     14  C   UNL     1       2.096   1.046  -2.446  0.00  0.00    +0.021 A 
ATOM     15  C   UNL     1       1.813   0.035  -3.368  0.00  0.00    +0.012 A 
ATOM     16  C   UNL     1       1.142   0.338  -4.534  0.00  0.00    +0.005 A 
ATOM     17  C   UNL     1       0.759   1.641  -4.797  0.00  0.00    -0.042 A 
ATOM     18  C   UNL     1       1.040   2.649  -3.891  0.00  0.00    +0.005 A 
ATOM     19  C   UNL     1       1.706   2.360  -2.718  0.00  0.00    +0.012 A 
BRANCH  17  20
ATOM     20  C   UNL     1       0.031   1.965  -6.076  0.00  0.00    -0.013 C 
ATOM     21  C   UNL     1       0.846   2.976  -6.885  0.00  0.00    +0.015 C 
ATOM     22  C   UNL     1      -0.155   0.687  -6.896  0.00  0.00    +0.015 C 
ATOM     23  C   UNL     1      -1.339   2.563  -5.746  0.00  0.00    +0.015 C 
ENDBRANCH  17  20
ENDBRANCH  12  14
BRANCH  11  24
ATOM     24  O   UNL     1       1.179   1.956  -0.005  0.00  0.00    -0.414 OA
BRANCH  24  25
ATOM     25  C   UNL     1       0.019   1.311   0.227  0.00  0.00    +0.352 C 
ATOM     26  O   UNL     1       0.018   0.110   0.414  0.00  0.00    -0.244 OA
BRANCH  25  27
ATOM     27  C   UNL     1      -1.248   2.060   0.248  0.00  0.00    +0.144 A 
ATOM     28  C   UNL     1      -1.260   3.430   0.043  0.00  0.00    +0.033 A 
ATOM     29  C   UNL     1      -2.504   4.110   0.066  0.00  0.00    +0.018 A 
ATOM     30  C   UNL     1      -2.554   5.496  -0.145  0.00  0.00    +0.011 A 
ATOM     31  C   UNL     1      -3.754   6.146  -0.115  0.00  0.00    +0.001 A 
ATOM     32  C   UNL     1      -4.928   5.444   0.122  0.00  0.00    +0.004 A 
ATOM     33  C   UNL     1      -4.903   4.082   0.331  0.00  0.00    +0.047 A 
ATOM     34  C   UNL     1      -3.692   3.397   0.306  0.00  0.00    +0.139 A 
ATOM     35  O   UNL     1      -3.670   2.063   0.511  0.00  0.00    -0.422 OA
ATOM     36  C   UNL     1      -2.519   1.370   0.493  0.00  0.00    +0.351 A 
ATOM     37  O   UNL     1      -2.532   0.168   0.682  0.00  0.00    -0.244 OA
ENDBRANCH  25  27
ENDBRANCH  24  25
ENDBRANCH  11  24
TORSDOF 5
