REMARK  Name = ZINC40015348
REMARK  8 active torsions:
REMARK  status: ('A' for Active; 'I' for Inactive)
REMARK    1  A    between atoms: C_1  and  C_2
REMARK    2  A    between atoms: C_2  and  C_3
REMARK    3  A    between atoms: C_3  and  C_4
REMARK    4  A    between atoms: C_4  and  N_5
REMARK    5  A    between atoms: C_15  and  C_28
REMARK    6  A    between atoms: N_19  and  C_20
REMARK    7  A    between atoms: C_20  and  C_21
REMARK    8  A    between atoms: C_28  and  C_30
REMARK                            x       y       z     vdW  Elec       q    Type
REMARK                         _______ _______ _______ _____ _____    ______ ____
ROOT
ATOM      1  N   UNL     1       2.127  -2.448  -1.913  0.00  0.00    -0.269 N 
ATOM      2  C   UNL     1       1.056  -2.537  -2.805  0.00  0.00    +0.042 A 
ATOM      3  C   UNL     1      -0.294  -2.237  -2.640  0.00  0.00    +0.024 A 
ATOM      4  C   UNL     1      -1.175  -2.409  -3.687  0.00  0.00    +0.002 A 
ATOM      5  C   UNL     1      -0.728  -2.881  -4.907  0.00  0.00    +0.000 A 
ATOM      6  C   UNL     1       0.612  -3.182  -5.079  0.00  0.00    +0.008 A 
ATOM      7  C   UNL     1       1.495  -3.011  -4.037  0.00  0.00    +0.011 A 
ATOM      8  C   UNL     1       2.977  -3.235  -3.892  0.00  0.00    +0.174 C 
ATOM      9  C   UNL     1       3.289  -2.833  -2.473  0.00  0.00    +0.253 C 
ATOM     10  O   UNL     1       4.377  -2.855  -1.938  0.00  0.00    -0.272 OA
ATOM     11  C   UNL     1       3.755  -2.401  -4.873  0.00  0.00    +0.092 C 
ATOM     12  C   UNL     1       4.488  -3.266  -5.615  0.00  0.00    +0.250 C 
ATOM     13  C   UNL     1       4.221  -4.646  -5.157  0.00  0.00    +0.288 C 
ATOM     14  O   UNL     1       4.727  -5.646  -5.625  0.00  0.00    -0.266 OA
ATOM     15  N   UNL     1       3.333  -4.630  -4.144  0.00  0.00    -0.270 N 
ATOM     16  O   UNL     1       5.330  -2.921  -6.617  0.00  0.00    -0.282 OA
ENDROOT
BRANCH  11  17
ATOM     17  C   UNL     1       3.725  -0.940  -5.001  0.00  0.00    +0.231 C 
ATOM     18  O   UNL     1       2.865  -0.296  -4.428  0.00  0.00    -0.283 OA
BRANCH  17  19
ATOM     19  C   UNL     1       4.733  -0.254  -5.820  0.00  0.00    +0.176 A 
ATOM     20  C   UNL     1       4.724   1.072  -6.126  0.00  0.00    +0.061 A 
ATOM     21  C   UNL     1       5.907   1.305  -6.952  0.00  0.00    +0.021 A 
ATOM     22  C   UNL     1       6.454   2.430  -7.575  0.00  0.00    +0.011 A 
ATOM     23  C   UNL     1       7.607   2.310  -8.298  0.00  0.00    +0.001 A 
ATOM     24  C   UNL     1       8.237   1.079  -8.418  0.00  0.00    +0.004 A 
ATOM     25  C   UNL     1       7.713  -0.043  -7.813  0.00  0.00    +0.047 A 
ATOM     26  C   UNL     1       6.542   0.054  -7.071  0.00  0.00    +0.136 A 
ATOM     27  O   UNL     1       5.812  -0.842  -6.378  0.00  0.00    -0.452 OA
ENDBRANCH  17  19
ENDBRANCH  11  17
BRANCH   1  28
ATOM     28  C   UNL     1       2.001  -1.983  -0.529  0.00  0.00    +0.114 C 
BRANCH  28  29
ATOM     29  C   UNL     1       2.119  -0.458  -0.491  0.00  0.00    +0.019 C 
BRANCH  29  31
ATOM     30  C   UNL     1       1.992   1.561   0.975  0.00  0.00    +0.004 C 
ATOM     31  C   UNL     1       1.874   0.036   0.936  0.00  0.00    -0.002 C 
ENDBRANCH  29  31
ENDBRANCH  28  29
ENDBRANCH   1  28
BRANCH  15  32
ATOM     32  C   UNL     1       2.818  -5.798  -3.425  0.00  0.00    +0.141 C 
BRANCH  32  33
ATOM     33  C   UNL     1       1.556  -6.310  -4.122  0.00  0.00    +0.136 C 
ATOM     34  C   UNL     1       0.975  -7.526  -3.357  0.00  0.00    +0.035 C 
ATOM     35  C   UNL     1      -0.517  -7.457  -3.784  0.00  0.00    +0.031 C 
ATOM     36  C   UNL     1      -0.754  -5.936  -3.904  0.00  0.00    +0.160 C 
ATOM     37  O   UNL     1       0.524  -5.311  -4.082  0.00  0.00    -0.375 OA
ENDBRANCH  32  33
ENDBRANCH  15  32
TORSDOF 7
