REMARK  Name = ZINC43548266
REMARK  8 active torsions:
REMARK  status: ('A' for Active; 'I' for Inactive)
REMARK    1  A    between atoms: C_1  and  C_2
REMARK    2  A    between atoms: N_9  and  C_10
REMARK    3  A    between atoms: C_10  and  C_11
REMARK    4  A    between atoms: C_14  and  C_35
REMARK    5  A    between atoms: C_17  and  O_34
REMARK    6  A    between atoms: C_19  and  C_23
REMARK    7  A    between atoms: C_23  and  C_25
REMARK    8  A    between atoms: C_23  and  C_26
REMARK                            x       y       z     vdW  Elec       q    Type
REMARK                         _______ _______ _______ _____ _____    ______ ____
ROOT
ATOM      1  C   UNL     1       2.352   3.289   1.203  0.00  0.00    +0.014 C 
ATOM      2  C   UNL     1       1.341   2.215   0.797  0.00  0.00    +0.039 C 
ATOM      3  C   UNL     1      -0.069   2.721   1.056  0.00  0.00    +0.031 A 
ATOM      4  C   UNL     1      -1.013   1.900   1.578  0.00  0.00    +0.013 A 
ATOM      5  S   UNL     1      -2.434   2.952   1.672  0.00  0.00    -0.059 S 
ATOM      6  C   UNL     1      -1.718   4.344   1.046  0.00  0.00    +0.137 A 
ATOM      7  N   UNL     1      -0.484   3.961   0.803  0.00  0.00    -0.340 N 
ATOM      8  N   UNL     1      -2.292   5.588   0.838  0.00  0.00    -0.321 N 
ATOM      9  C   UNL     1      -0.857   0.470   1.966  0.00  0.00    +0.051 C 
ATOM     10  C   UNL     1       0.454  -0.061   1.384  0.00  0.00    -0.022 C 
ATOM     11  C   UNL     1       1.584   0.946   1.623  0.00  0.00    +0.033 C 
ATOM     12  C   UNL     1       2.894   0.307   1.136  0.00  0.00    +0.123 C 
ATOM     13  C   UNL     1       2.782   0.043  -0.368  0.00  0.00    +0.029 C 
ATOM     14  C   UNL     1       1.621  -0.913  -0.646  0.00  0.00    +0.007 C 
ATOM     15  C   UNL     1       0.316  -0.311  -0.117  0.00  0.00    +0.008 C 
ATOM     16  C   UNL     1       0.820  -1.373   2.081  0.00  0.00    +0.012 C 
ATOM     17  H   UNL     1      -1.762   6.311   0.467  0.00  0.00    +0.148 HD
ATOM     18  H   UNL     1       0.142   4.601   0.429  0.00  0.00    +0.167 HD
ENDROOT
BRANCH  13  19
ATOM     19  C   UNL     1       4.084  -0.583  -0.872  0.00  0.00    +0.078 C 
ATOM     20  C   UNL     1       3.929  -0.967  -2.345  0.00  0.00    +0.017 C 
BRANCH  19  21
ATOM     21  C   UNL     1       4.396  -1.815  -0.062  0.00  0.00    +0.219 C 
ATOM     22  O   UNL     1       3.505  -2.404   0.514  0.00  0.00    -0.275 OA
ATOM     23  N   UNL     1       5.664  -2.264   0.022  0.00  0.00    -0.300 N 
ATOM     24  C   UNL     1       6.747  -1.487  -0.584  0.00  0.00    +0.118 C 
ATOM     25  C   UNL     1       7.675  -0.960   0.517  0.00  0.00    +0.088 C 
ATOM     26  S   UNL     1       8.295  -2.372   1.480  0.00  0.00    -0.158 S 
ATOM     27  C   UNL     1       6.774  -3.236   1.974  0.00  0.00    +0.088 C 
ATOM     28  C   UNL     1       5.942  -3.518   0.723  0.00  0.00    +0.118 C 
ENDBRANCH  19  21
ENDBRANCH  13  19
BRANCH  12  29
ATOM     29  O   UNL     1       3.984   1.195   1.389  0.00  0.00    -0.391 OA
ATOM     30  H   UNL     1       4.838   0.872   1.070  0.00  0.00    +0.210 HD
ENDBRANCH  12  29
BRANCH   8  31
ATOM     31  C   UNL     1      -3.699   5.813   1.179  0.00  0.00    +0.130 C 
BRANCH  31  32
ATOM     32  C   UNL     1      -4.072   7.237   0.859  0.00  0.00    -0.016 C 
ATOM     33  C   UNL     1      -5.089   7.487   0.072  0.00  0.00    +0.005 C 
ENDBRANCH  31  32
ENDBRANCH   8  31
TORSDOF 5
