REMARK  Name = ZINC39875857
REMARK  2 active torsions:
REMARK  status: ('A' for Active; 'I' for Inactive)
REMARK    1  A    between atoms: C_6  and  C_7
REMARK    2  A    between atoms: N_22  and  C_23
REMARK                            x       y       z     vdW  Elec       q    Type
REMARK                         _______ _______ _______ _____ _____    ______ ____
ROOT
ATOM      1  C   UNL     1      -1.293  -0.775   0.010  0.00  0.00    +0.150 C 
ATOM      2  C   UNL     1      -1.568  -1.306   1.379  0.00  0.00    +0.072 A 
ATOM      3  C   UNL     1      -1.761  -0.620   2.660  0.00  0.00    +0.199 A 
ATOM      4  O   UNL     1      -1.893   0.587   2.758  0.00  0.00    -0.287 OA
ATOM      5  C   UNL     1      -1.781  -1.537   3.828  0.00  0.00    +0.067 A 
ATOM      6  C   UNL     1      -1.756  -1.027   5.126  0.00  0.00    +0.053 A 
ATOM      7  C   UNL     1      -1.770  -1.893   6.199  0.00  0.00    +0.124 A 
ATOM      8  C   UNL     1      -1.808  -3.266   5.984  0.00  0.00    +0.042 A 
ATOM      9  C   UNL     1      -1.834  -3.779   4.707  0.00  0.00    +0.050 A 
ATOM     10  C   UNL     1      -1.824  -2.923   3.606  0.00  0.00    +0.140 A 
ATOM     11  O   UNL     1      -1.861  -3.454   2.362  0.00  0.00    -0.450 OA
ATOM     12  C   UNL     1      -1.621  -2.668   1.294  0.00  0.00    +0.199 A 
ATOM     13  C   UNL     1      -1.379  -3.054  -0.107  0.00  0.00    +0.287 C 
ATOM     14  O   UNL     1      -1.356  -4.196  -0.520  0.00  0.00    -0.266 OA
ATOM     15  N   UNL     1      -1.188  -1.953  -0.865  0.00  0.00    -0.253 N 
ATOM     16  F   UNL     1      -1.747  -1.407   7.459  0.00  0.00    -0.205 F 
ENDROOT
BRANCH   1  22
ATOM     17  C   UNL     1      -0.017   1.378   0.010  0.00  0.00    +0.008 A 
ATOM     18  C   UNL     1       1.170   2.086   0.002  0.00  0.00    +0.038 A 
ATOM     19  C   UNL     1       2.379   1.410  -0.013  0.00  0.00    +0.123 A 
ATOM     20  C   UNL     1       2.396   0.026  -0.021  0.00  0.00    +0.038 A 
ATOM     21  C   UNL     1       1.208  -0.680  -0.013  0.00  0.00    +0.008 A 
ATOM     22  C   UNL     1       0.002  -0.004   0.002  0.00  0.00    -0.022 A 
ATOM     23  F   UNL     1       3.540   2.101  -0.021  0.00  0.00    -0.205 F 
ENDBRANCH   1  22
BRANCH  15  24
ATOM     24  C   UNL     1      -0.935  -1.935  -2.240  0.00  0.00    +0.038 A 
ATOM     25  C   UNL     1      -0.752  -0.726  -2.898  0.00  0.00    +0.024 A 
ATOM     26  C   UNL     1      -0.502  -0.711  -4.256  0.00  0.00    +0.017 A 
ATOM     27  C   UNL     1      -0.434  -1.899  -4.962  0.00  0.00    +0.018 A 
ATOM     28  C   UNL     1      -0.617  -3.106  -4.309  0.00  0.00    +0.017 A 
ATOM     29  C   UNL     1      -0.862  -3.127  -2.950  0.00  0.00    +0.024 A 
ATOM     30 BR   UNL     1      -0.092  -1.875  -6.821  0.00  0.00    -0.050 Br
ENDBRANCH  15  24
TORSDOF 2
