REMARK  Name = ZINC40984034
REMARK  13 active torsions:
REMARK  status: ('A' for Active; 'I' for Inactive)
REMARK    1  A    between atoms: C_1  and  C_2
REMARK    2  A    between atoms: C_2  and  C_3
REMARK    3  A    between atoms: C_3  and  C_4
REMARK    4  A    between atoms: C_4  and  N_5
REMARK    5  A    between atoms: N_5  and  C_6
REMARK    6  A    between atoms: C_6  and  C_7
REMARK    7  A    between atoms: C_8  and  C_10
REMARK    8  A    between atoms: N_13  and  C_16
REMARK    9  A    between atoms: C_16  and  C_17
REMARK   10  A    between atoms: C_18  and  C_31
REMARK   11  A    between atoms: C_20  and  C_22
REMARK   12  A    between atoms: C_27  and  O_28
REMARK   13  A    between atoms: O_28  and  C_29
REMARK                            x       y       z     vdW  Elec       q    Type
REMARK                         _______ _______ _______ _____ _____    ______ ____
ROOT
ATOM      1  C   UNL     1       2.529  -2.933  -5.256  0.00  0.00    +0.072 C 
ATOM      2  C   UNL     1       3.354  -4.158  -4.850  0.00  0.00    -0.006 C 
ATOM      3  C   UNL     1       4.523  -4.324  -5.823  0.00  0.00    -0.078 C 
ATOM      4  N   UNL     1       4.008  -4.509  -7.185  0.00  0.00    +0.383 N 
ATOM      5  C   UNL     1       3.276  -3.309  -7.608  0.00  0.00    -0.078 C 
ATOM      6  C   UNL     1       2.059  -3.104  -6.704  0.00  0.00    -0.006 C 
ATOM      7  H   UNL     1       3.387  -5.304  -7.204  0.00  0.00    -0.081 HD
ENDROOT
BRANCH   1   9
ATOM      8  N   UNL     1       1.494  -2.430  -3.066  0.00  0.00    -0.302 N 
ATOM      9  C   UNL     1       1.331  -2.809  -4.349  0.00  0.00    +0.219 C 
ATOM     10  O   UNL     1       0.221  -3.050  -4.774  0.00  0.00    -0.275 OA
BRANCH   8  11
ATOM     11  C   UNL     1       2.831  -2.108  -2.562  0.00  0.00    +0.104 C 
ATOM     12  C   UNL     1       3.386  -3.305  -1.786  0.00  0.00    +0.024 C 
ENDBRANCH   8  11
BRANCH   8  13
ATOM     13  C   UNL     1       0.334  -2.341  -2.176  0.00  0.00    +0.108 C 
BRANCH  13  14
ATOM     14  C   UNL     1      -0.258  -0.932  -2.249  0.00  0.00    +0.019 C 
BRANCH  14  16
ATOM     15  C   UNL     1      -2.061   0.570  -1.392  0.00  0.00    +0.004 C 
ATOM     16  C   UNL     1      -1.469  -0.839  -1.319  0.00  0.00    -0.002 C 
ENDBRANCH  14  16
ENDBRANCH  13  14
ENDBRANCH   8  13
ENDBRANCH   1   9
BRANCH   4  17
ATOM     17  C   UNL     1       5.130  -4.745  -8.103  0.00  0.00    -0.019 C 
BRANCH  17  18
ATOM     18  C   UNL     1       4.598  -5.057  -9.478  0.00  0.00    +0.066 A 
ATOM     19  C   UNL     1       4.292  -6.278  -9.951  0.00  0.00    +0.124 A 
ATOM     20  O   UNL     1       3.850  -6.120 -11.215  0.00  0.00    -0.440 OA
ATOM     21  C   UNL     1       3.890  -4.806 -11.500  0.00  0.00    +0.231 A 
ATOM     22  N   UNL     1       4.338  -4.164 -10.446  0.00  0.00    -0.216 NA
ATOM     23  C   UNL     1       4.420  -7.582  -9.206  0.00  0.00    +0.088 C 
BRANCH  21  24
ATOM     24  C   UNL     1       3.493  -4.189 -12.781  0.00  0.00    +0.079 A 
ATOM     25  C   UNL     1       3.588  -2.807 -12.954  0.00  0.00    +0.032 A 
ATOM     26  C   UNL     1       3.215  -2.237 -14.154  0.00  0.00    +0.019 A 
ATOM     27  C   UNL     1       2.746  -3.030 -15.188  0.00  0.00    +0.019 A 
ATOM     28  C   UNL     1       2.648  -4.399 -15.028  0.00  0.00    +0.047 A 
ATOM     29  C   UNL     1       3.024  -4.988 -13.832  0.00  0.00    +0.132 A 
ATOM     30 BR   UNL     1       3.344  -0.365 -14.387  0.00  0.00    -0.050 Br
BRANCH  29  31
ATOM     31  O   UNL     1       2.933  -6.334 -13.676  0.00  0.00    -0.494 OA
ATOM     32  C   UNL     1       2.446  -7.085 -14.790  0.00  0.00    +0.277 C 
ENDBRANCH  29  31
ENDBRANCH  21  24
ENDBRANCH  17  18
ENDBRANCH   4  17
TORSDOF 9
