REMARK  Name = ZINC12039994
REMARK  6 active torsions:
REMARK  status: ('A' for Active; 'I' for Inactive)
REMARK    1  A    between atoms: C_4  and  C_7
REMARK    2  A    between atoms: C_7  and  C_8
REMARK    3  A    between atoms: C_8  and  C_9
REMARK    4  A    between atoms: C_9  and  C_16
REMARK    5  A    between atoms: C_21  and  C_22
REMARK    6  A    between atoms: C_21  and  N_58
REMARK                            x       y       z     vdW  Elec       q    Type
REMARK                         _______ _______ _______ _____ _____    ______ ____
ROOT
ATOM      1  C   UNL     1      -3.105   3.102   1.476  0.00  0.00    +0.115 C 
ATOM      2  C   UNL     1      -4.198   2.250   0.861  0.00  0.00    +0.244 C 
ATOM      3  O   UNL     1      -4.597   1.175   1.255  0.00  0.00    -0.273 OA
ATOM      4  N   UNL     1      -4.634   2.936  -0.213  0.00  0.00    -0.238 N 
ATOM      5  C   UNL     1      -3.975   4.091  -0.362  0.00  0.00    +0.307 C 
ATOM      6  O   UNL     1      -4.192   4.882  -1.259  0.00  0.00    -0.252 OA
ATOM      7  N   UNL     1      -3.047   4.280   0.594  0.00  0.00    -0.285 N 
ATOM      8  H   UNL     1      -5.338   2.630  -0.806  0.00  0.00    +0.159 HD
ATOM      9  H   UNL     1      -2.455   5.043   0.684  0.00  0.00    +0.151 HD
ENDROOT
BRANCH   1  10
ATOM     10  C   UNL     1      -3.480   3.511   2.902  0.00  0.00    +0.018 C 
ATOM     11  C   UNL     1      -3.485   2.275   3.805  0.00  0.00    -0.013 C 
ATOM     12  C   UNL     1      -3.921   2.680   5.215  0.00  0.00    -0.078 C 
ATOM     13  C   UNL     1      -5.270   4.493   4.339  0.00  0.00    -0.078 C 
ATOM     14  C   UNL     1      -4.876   4.142   2.903  0.00  0.00    -0.013 C 
ATOM     15  N   UNL     1      -5.281   3.257   5.150  0.00  0.00    +0.382 N 
ATOM     16  H   UNL     1      -5.911   2.576   4.711  0.00  0.00    -0.081 HD
BRANCH  15  17
ATOM     17  C   UNL     1      -5.769   3.552   6.513  0.00  0.00    -0.043 C 
BRANCH  17  18
ATOM     18  C   UNL     1      -5.519   2.357   7.397  0.00  0.00    -0.060 A 
ATOM     19  C   UNL     1      -6.475   1.362   7.497  0.00  0.00    +0.005 A 
ATOM     20  C   UNL     1      -6.249   0.262   8.302  0.00  0.00    +0.050 A 
ATOM     21  C   UNL     1      -5.068   0.158   9.019  0.00  0.00    +0.166 A 
ATOM     22  C   UNL     1      -4.108   1.162   8.922  0.00  0.00    +0.166 A 
ATOM     23  C   UNL     1      -4.339   2.260   8.109  0.00  0.00    +0.051 A 
ATOM     24  O   UNL     1      -3.048   0.831   9.715  0.00  0.00    -0.453 OA
ATOM     25  C   UNL     1      -3.191  -0.578   9.979  0.00  0.00    +0.466 C 
ATOM     26  O   UNL     1      -4.609  -0.803   9.873  0.00  0.00    -0.453 OA
ENDBRANCH  17  18
ENDBRANCH  15  17
ENDBRANCH   1  10
BRANCH   1  27
ATOM     27  C   UNL     1      -1.770   2.355   1.466  0.00  0.00    +0.040 C 
BRANCH  27  28
ATOM     28  C   UNL     1      -1.332   2.114   0.020  0.00  0.00    +0.038 C 
BRANCH  28  32
ATOM     29  C   UNL     1       2.396   0.029  -0.022  0.00  0.00    +0.000 A 
ATOM     30  C   UNL     1       1.208  -0.679  -0.014  0.00  0.00    +0.000 A 
ATOM     31  C   UNL     1       0.002  -0.004   0.002  0.00  0.00    +0.003 A 
ATOM     32  C   UNL     1      -0.017   1.378   0.010  0.00  0.00    -0.047 A 
ATOM     33  C   UNL     1       1.171   2.086   0.002  0.00  0.00    +0.003 A 
ATOM     34  C   UNL     1       2.377   1.411  -0.014  0.00  0.00    +0.000 A 
ENDBRANCH  28  32
ENDBRANCH  27  28
ENDBRANCH   1  27
TORSDOF 6
