REMARK  Name = ZINC34935053
REMARK  7 active torsions:
REMARK  status: ('A' for Active; 'I' for Inactive)
REMARK    1  A    between atoms: C_1  and  C_2
REMARK    2  A    between atoms: C_6  and  N_8
REMARK    3  A    between atoms: N_11  and  C_12
REMARK    4  A    between atoms: N_11  and  C_22
REMARK    5  A    between atoms: C_12  and  C_13
REMARK    6  A    between atoms: C_13  and  C_21
REMARK    7  A    between atoms: C_14  and  C_15
REMARK                            x       y       z     vdW  Elec       q    Type
REMARK                         _______ _______ _______ _____ _____    ______ ____
ROOT
ATOM      1  N   UNL     1       1.405  -2.940   3.225  0.00  0.00    -0.269 N 
ATOM      2  C   UNL     1       0.917  -4.164   2.942  0.00  0.00    +0.307 C 
ATOM      3  O   UNL     1       0.915  -4.568   1.796  0.00  0.00    -0.252 OA
ATOM      4  N   UNL     1       0.431  -4.940   3.931  0.00  0.00    -0.274 N 
ATOM      5  H   UNL     1       1.454  -2.638   4.145  0.00  0.00    +0.156 HD
ENDROOT
BRANCH   4   6
ATOM      6  C   UNL     1       0.417  -4.447   5.310  0.00  0.00    +0.108 C 
ATOM      7  C   UNL     1      -0.620  -3.333   5.436  0.00  0.00    +0.028 C 
ATOM      8  C   UNL     1      -0.469  -2.684   6.817  0.00  0.00    +0.007 C 
ATOM      9  C   UNL     1       0.844  -1.904   6.841  0.00  0.00    +0.035 C 
ATOM     10  C   UNL     1       1.984  -2.771   6.376  0.00  0.00    -0.042 A 
ATOM     11  C   UNL     1       1.788  -3.936   5.669  0.00  0.00    -0.024 A 
ATOM     12  C   UNL     1       2.884  -4.686   5.263  0.00  0.00    +0.006 A 
ATOM     13  C   UNL     1       4.166  -4.274   5.565  0.00  0.00    +0.000 A 
ATOM     14  C   UNL     1       4.362  -3.105   6.278  0.00  0.00    +0.000 A 
ATOM     15  C   UNL     1       3.275  -2.360   6.681  0.00  0.00    +0.004 A 
ENDBRANCH   4   6
BRANCH   1  21
ATOM     16  C   UNL     1       2.124   1.595   1.465  0.00  0.00    +0.044 C 
ATOM     17  C   UNL     1       2.200   0.098   1.310  0.00  0.00    -0.049 A 
ATOM     18  C   UNL     1       2.700  -0.452   0.144  0.00  0.00    +0.003 A 
ATOM     19  C   UNL     1       2.772  -1.825  -0.002  0.00  0.00    +0.002 A 
ATOM     20  C   UNL     1       2.343  -2.652   1.018  0.00  0.00    +0.023 A 
ATOM     21  C   UNL     1       1.840  -2.104   2.190  0.00  0.00    +0.035 A 
ATOM     22  C   UNL     1       1.775  -0.724   2.336  0.00  0.00    +0.026 A 
ENDBRANCH   1  21
BRANCH   4  23
ATOM     23  C   UNL     1      -0.082  -6.278   3.627  0.00  0.00    +0.140 C 
BRANCH  23  24
ATOM     24  C   UNL     1       1.038  -7.282   3.731  0.00  0.00    -0.055 C 
ATOM     25  C   UNL     1       1.222  -7.954   4.858  0.00  0.00    +0.008 C 
ATOM     26  C   UNL     1       1.947  -7.521   2.553  0.00  0.00    +0.040 C 
BRANCH  25  27
ATOM     27  C   UNL     1       2.426  -8.796   5.028  0.00  0.00    -0.025 A 
ATOM     28  C   UNL     1       3.638  -8.409   4.455  0.00  0.00    +0.008 A 
ATOM     29  C   UNL     1       4.757  -9.198   4.618  0.00  0.00    +0.001 A 
ATOM     30  C   UNL     1       4.680 -10.372   5.346  0.00  0.00    +0.000 A 
ATOM     31  C   UNL     1       3.481 -10.762   5.916  0.00  0.00    +0.001 A 
ATOM     32  C   UNL     1       2.356  -9.977   5.767  0.00  0.00    +0.008 A 
ENDBRANCH  25  27
ENDBRANCH  23  24
ENDBRANCH   4  23
TORSDOF 5
