REMARK  Name = ZINC16322529
REMARK  7 active torsions:
REMARK  status: ('A' for Active; 'I' for Inactive)
REMARK    1  A    between atoms: CG2_1  and  CB_2
REMARK    2  A    between atoms: CB_2  and  CA_4
REMARK    3  A    between atoms: CB_2  and  OG1_24
REMARK    4  A    between atoms: CA_4  and  C_6
REMARK    5  A    between atoms: CA_4  and  N_8
REMARK    6  A    between atoms: C_9  and  C_11
REMARK    7  A    between atoms: C_18  and  C_20
REMARK                            x       y       z     vdW  Elec       q    Type
REMARK                         _______ _______ _______ _____ _____    ______ ____
ROOT
ATOM      1  N   THR A   1       1.708  -0.344  -3.025  0.00  0.00    -0.300 N 
ATOM      2  C   UNK A   0       2.572  -1.133  -3.693  0.00  0.00    +0.218 C 
ATOM      3  O   UNK A   0       2.170  -2.122  -4.268  0.00  0.00    -0.275 OA
ATOM      4  H   THR A   1       2.017   0.483  -2.623  0.00  0.00    +0.150 HD
ENDROOT
BRANCH   2   5
ATOM      5  C   UNK A   0       4.038  -0.786  -3.727  0.00  0.00    +0.096 C 
ATOM      6  C   UNK A   0       4.700  -1.321  -5.036  0.00  0.00    +0.025 C 
ATOM      7  C   UNK A   0       4.964  -2.817  -4.630  0.00  0.00    +0.016 C 
ATOM      8  C   UNK A   0       5.824  -2.419  -3.374  0.00  0.00    +0.027 C 
ATOM      9  C   UNK A   0       4.798  -1.526  -2.599  0.00  0.00    +0.121 C 
ATOM     10  C   UNK A   0       6.780  -1.411  -4.021  0.00  0.00    -0.027 C 
ATOM     11  C   UNK A   0       6.126  -0.759  -4.990  0.00  0.00    -0.027 C 
BRANCH   9  12
ATOM     12  C   UNK A   0       3.852  -2.380  -1.794  0.00  0.00    +0.360 C 
ATOM     13  O   UNK A   0       3.396  -3.391  -2.272  0.00  0.00    -0.246 OA
ATOM     14  O   UNK A   0       3.517  -2.017  -0.546  0.00  0.00    -0.246 OA
ENDBRANCH   9  12
ENDBRANCH   2   5
BRANCH   1  15
ATOM     15  CA  THR A   1       0.301  -0.735  -2.906  0.00  0.00    +0.215 C 
BRANCH  15  16
ATOM     16  C   THR A   1       0.055  -1.316  -1.537  0.00  0.00    +0.378 C 
ATOM     17  O   THR A   1       0.787  -1.030  -0.619  0.00  0.00    -0.244 OA
ATOM     18  OXT THR A   1      -0.976  -2.153  -1.339  0.00  0.00    -0.244 OA
ENDBRANCH  15  16
BRANCH  15  20
ATOM     19  CG2 THR A   1      -0.340   1.084  -4.494  0.00  0.00    +0.040 C 
ATOM     20  CB  THR A   1      -0.589   0.494  -3.105  0.00  0.00    +0.143 C 
BRANCH  20  21
ATOM     21  OG1 THR A   1      -0.280   1.472  -2.110  0.00  0.00    -0.390 OA
ATOM     22  HG1 THR A   1       0.637   1.777  -2.130  0.00  0.00    +0.210 HD
ENDBRANCH  20  21
ENDBRANCH  15  20
ENDBRANCH   1  15
TORSDOF 6
