REMARK  Name = ZINC39226191
REMARK  12 active torsions:
REMARK  status: ('A' for Active; 'I' for Inactive)
REMARK    1  A    between atoms: C_1  and  C_2
REMARK    2  A    between atoms: C_2  and  C_3
REMARK    3  A    between atoms: C_2  and  N_4
REMARK    4  A    between atoms: C_15  and  C_20
REMARK    5  A    between atoms: C_23  and  C_26
REMARK    6  A    between atoms: N_28  and  C_29
REMARK    7  A    between atoms: C_29  and  C_30
REMARK    8  A    between atoms: C_30  and  O_32
REMARK    9  A    between atoms: O_32  and  C_33
REMARK   10  A    between atoms: C_33  and  C_34
REMARK   11  A    between atoms: C_33  and  C_35
REMARK   12  A    between atoms: C_33  and  C_36
REMARK                            x       y       z     vdW  Elec       q    Type
REMARK                         _______ _______ _______ _____ _____    ______ ____
ROOT
ATOM      1  N   UNL     1      -1.376  -0.512   0.012  0.00  0.00    +0.381 N 
ATOM      2  C   UNL     1      -2.087  -0.018  -1.172  0.00  0.00    -0.075 C 
ATOM      3  C   UNL     1      -3.547  -0.477  -1.124  0.00  0.00    +0.030 C 
ATOM      4  C   UNL     1      -3.594  -2.006  -1.098  0.00  0.00    +0.114 C 
ATOM      5  C   UNL     1      -2.785  -2.516   0.097  0.00  0.00    +0.030 C 
ATOM      6  C   UNL     1      -1.355  -1.980   0.004  0.00  0.00    -0.075 C 
ATOM      7  C   UNL     1      -5.051  -2.467  -0.959  0.00  0.00    +0.127 C 
ATOM      8  C   UNL     1      -5.799  -1.958  -2.179  0.00  0.00    +0.170 C 
ATOM      9  O   UNL     1      -6.927  -1.519  -2.098  0.00  0.00    -0.292 OA
ATOM     10  C   UNL     1      -5.084  -2.027  -3.466  0.00  0.00    +0.060 A 
ATOM     11  C   UNL     1      -5.761  -1.817  -4.666  0.00  0.00    +0.023 A 
ATOM     12  C   UNL     1      -5.062  -1.880  -5.867  0.00  0.00    -0.017 A 
ATOM     13  C   UNL     1      -3.691  -2.151  -5.862  0.00  0.00    +0.012 A 
ATOM     14  C   UNL     1      -3.023  -2.362  -4.677  0.00  0.00    +0.047 A 
ATOM     15  C   UNL     1      -3.707  -2.306  -3.468  0.00  0.00    +0.132 A 
ATOM     16  O   UNL     1      -3.044  -2.525  -2.308  0.00  0.00    -0.485 OA
ATOM     17  H   UNL     1      -1.847  -0.189   0.844  0.00  0.00    -0.081 HD
ENDROOT
BRANCH  12  18
ATOM     18  C   UNL     1      -5.771  -1.658  -7.150  0.00  0.00    -0.018 A 
ATOM     19  C   UNL     1      -7.138  -1.381  -7.153  0.00  0.00    +0.009 A 
ATOM     20  C   UNL     1      -7.797  -1.175  -8.344  0.00  0.00    +0.013 A 
ATOM     21  C   UNL     1      -7.096  -1.244  -9.550  0.00  0.00    +0.037 A 
ATOM     22  C   UNL     1      -5.726  -1.521  -9.547  0.00  0.00    +0.013 A 
ATOM     23  C   UNL     1      -5.068  -1.721  -8.354  0.00  0.00    +0.009 A 
BRANCH  21  24
ATOM     24  C   UNL     1      -7.801  -1.024 -10.829  0.00  0.00    +0.245 C 
ATOM     25  O   UNL     1      -8.993  -0.783 -10.832  0.00  0.00    -0.270 OA
ATOM     26  N   UNL     1      -7.125  -1.091 -11.992  0.00  0.00    -0.301 N 
ATOM     27  H   UNL     1      -6.174  -1.283 -11.990  0.00  0.00    +0.150 HD
BRANCH  26  28
ATOM     28  C   UNL     1      -7.825  -0.873 -13.261  0.00  0.00    +0.225 C 
BRANCH  28  29
ATOM     29  C   UNL     1      -6.849  -1.001 -14.402  0.00  0.00    +0.325 C 
ATOM     30  O   UNL     1      -5.688  -1.249 -14.179  0.00  0.00    -0.249 OA
BRANCH  29  31
ATOM     31  O   UNL     1      -7.270  -0.840 -15.666  0.00  0.00    -0.458 OA
BRANCH  31  32
ATOM     32  C   UNL     1      -6.290  -0.975 -16.698  0.00  0.00    +0.105 C 
ATOM     33  C   UNL     1      -5.682  -2.378 -16.643  0.00  0.00    +0.055 C 
ATOM     34  C   UNL     1      -6.952  -0.759 -18.061  0.00  0.00    +0.055 C 
ATOM     35  C   UNL     1      -5.188   0.067 -16.495  0.00  0.00    +0.055 C 
ENDBRANCH  31  32
ENDBRANCH  29  31
ENDBRANCH  28  29
ENDBRANCH  26  28
ENDBRANCH  21  24
ENDBRANCH  12  18
BRANCH   1  37
ATOM     36  C   UNL     1      -0.019   1.526   0.010  0.00  0.00    -0.014 C 
ATOM     37  C   UNL     1       0.002  -0.004   0.002  0.00  0.00    -0.075 C 
ATOM     38  C   UNL     1       0.742  -0.511   1.242  0.00  0.00    -0.014 C 
ENDBRANCH   1  37
TORSDOF 7
