REMARK  Name = ZINC16012013
REMARK  7 active torsions:
REMARK  status: ('A' for Active; 'I' for Inactive)
REMARK    1  A    between atoms: C_1  and  C_2
REMARK    2  A    between atoms: C_16  and  C_19
REMARK    3  A    between atoms: C_19  and  C_20
REMARK    4  A    between atoms: N_25  and  C_28
REMARK    5  A    between atoms: C_28  and  C_29
REMARK    6  A    between atoms: C_34  and  O_35
REMARK    7  A    between atoms: O_35  and  C_36
REMARK                            x       y       z     vdW  Elec       q    Type
REMARK                         _______ _______ _______ _____ _____    ______ ____
ROOT
ATOM      1  C   UNL     1      -0.018   1.503   0.010  0.00  0.00    +0.047 C 
ATOM      2  C   UNL     1       0.002  -0.004   0.002  0.00  0.00    -0.011 A 
ATOM      3  C   UNL     1       0.006  -0.686  -1.199  0.00  0.00    +0.046 A 
ATOM      4  C   UNL     1       0.024  -2.070  -1.216  0.00  0.00    +0.021 A 
ATOM      5  C   UNL     1       0.040  -2.772  -0.024  0.00  0.00    +0.009 A 
ATOM      6  C   UNL     1       0.037  -2.096   1.175  0.00  0.00    +0.004 A 
ATOM      7  C   UNL     1       0.023  -0.705   1.205  0.00  0.00    +0.043 A 
ATOM      8  N   UNL     1       0.028  -0.250   2.526  0.00  0.00    -0.283 N 
ATOM      9  C   UNL     1       0.050  -1.264   3.412  0.00  0.00    +0.243 C 
ATOM     10  O   UNL     1       0.058  -1.169   4.621  0.00  0.00    -0.273 OA
ATOM     11  C   UNL     1       0.051  -2.538   2.611  0.00  0.00    +0.136 C 
ATOM     12  C   UNL     1      -1.157  -3.424   2.941  0.00  0.00    +0.122 C 
ATOM     13  C   UNL     1      -0.611  -4.467   3.955  0.00  0.00    +0.107 C 
ATOM     14  C   UNL     1       0.877  -4.101   4.138  0.00  0.00    +0.076 C 
ATOM     15  N   UNL     1       1.244  -3.349   2.917  0.00  0.00    -0.295 NA
ATOM     16  C   UNL     1      -1.374  -4.152   5.222  0.00  0.00    +0.227 C 
ATOM     17  O   UNL     1      -1.254  -4.739   6.276  0.00  0.00    -0.275 OA
ATOM     18  N   UNL     1      -2.202  -3.125   5.000  0.00  0.00    -0.237 N 
ATOM     19  C   UNL     1      -2.168  -2.634   3.740  0.00  0.00    +0.229 C 
ATOM     20  O   UNL     1      -2.831  -1.712   3.315  0.00  0.00    -0.275 OA
ATOM     21 CL   UNL     1      -0.013   0.197  -2.694  0.00  0.00    -0.083 Cl
ATOM     22  H   UNL     1       0.016   0.687   2.776  0.00  0.00    +0.155 HD
ATOM     23  H   UNL     1       1.452  -3.985   2.161  0.00  0.00    +0.124 HD
ENDROOT
BRANCH  14  24
ATOM     24  C   UNL     1       1.724  -5.367   4.280  0.00  0.00    +0.115 C 
BRANCH  24  25
ATOM     25  C   UNL     1       3.151  -4.986   4.580  0.00  0.00    +0.212 C 
ATOM     26  O   UNL     1       3.460  -3.817   4.671  0.00  0.00    -0.276 OA
ATOM     27  N   UNL     1       4.083  -5.945   4.747  0.00  0.00    -0.329 N 
ATOM     28  H   UNL     1       3.836  -6.880   4.674  0.00  0.00    +0.145 HD
ATOM     29  H   UNL     1       5.002  -5.700   4.940  0.00  0.00    +0.145 HD
ENDBRANCH  24  25
ENDBRANCH  14  24
BRANCH  18  30
ATOM     30  C   UNL     1      -3.083  -2.579   6.035  0.00  0.00    +0.155 C 
BRANCH  30  31
ATOM     31  C   UNL     1      -2.364  -1.483   6.779  0.00  0.00    +0.012 A 
ATOM     32  C   UNL     1      -1.784  -1.746   8.006  0.00  0.00    +0.009 A 
ATOM     33  C   UNL     1      -1.125  -0.741   8.689  0.00  0.00    +0.001 A 
ATOM     34  C   UNL     1      -1.043   0.529   8.147  0.00  0.00    +0.004 A 
ATOM     35  C   UNL     1      -1.620   0.796   6.921  0.00  0.00    +0.046 A 
ATOM     36  C   UNL     1      -2.277  -0.212   6.231  0.00  0.00    +0.125 A 
BRANCH  36  37
ATOM     37  O   UNL     1      -2.841   0.047   5.021  0.00  0.00    -0.495 OA
ATOM     38  C   UNL     1      -2.713   1.378   4.518  0.00  0.00    +0.277 C 
ENDBRANCH  36  37
ENDBRANCH  30  31
ENDBRANCH  18  30
TORSDOF 5
