REMARK  Name = ZINC49067830
REMARK  5 active torsions:
REMARK  status: ('A' for Active; 'I' for Inactive)
REMARK    1  A    between atoms: C_1  and  C_2
REMARK    2  A    between atoms: C_2  and  C_3
REMARK    3  A    between atoms: C_12  and  C_25
REMARK    4  A    between atoms: N_14  and  S_15
REMARK    5  A    between atoms: S_15  and  C_18
REMARK                            x       y       z     vdW  Elec       q    Type
REMARK                         _______ _______ _______ _____ _____    ______ ____
ROOT
ATOM      1  C   UNL     1      -1.206   0.591  -0.066  0.00  0.00    +0.086 C 
ATOM      2  C   UNL     1      -0.656  -0.829   0.120  0.00  0.00    +0.078 C 
ATOM      3  C   UNL     1      -1.817  -1.780   0.272  0.00  0.00    +0.069 A 
ATOM      4  C   UNL     1      -3.122  -1.377   0.602  0.00  0.00    +0.016 A 
ATOM      5  C   UNL     1      -3.899  -2.474   0.657  0.00  0.00    +0.110 A 
ATOM      6  N   UNL     1      -3.119  -3.541   0.371  0.00  0.00    -0.284 N 
ATOM      7  H   UNL     1      -3.409  -4.466   0.338  0.00  0.00    +0.188 HD
ATOM      8  N   UNL     1      -1.817  -3.075   0.133  0.00  0.00    -0.179 NA
ATOM      9  C   UNL     1      -3.512   0.063   0.835  0.00  0.00    +0.143 C 
ATOM     10  N   UNL     1      -2.262   0.840   0.924  0.00  0.00    -0.161 NA
ENDROOT
BRANCH   9  11
ATOM     11  C   UNL     1      -4.287   0.184   2.122  0.00  0.00    -0.024 A 
ATOM     12  C   UNL     1      -3.782  -0.363   3.287  0.00  0.00    +0.007 A 
ATOM     13  C   UNL     1      -4.492  -0.253   4.467  0.00  0.00    +0.020 A 
ATOM     14  C   UNL     1      -5.709   0.405   4.483  0.00  0.00    +0.041 A 
ATOM     15  C   UNL     1      -6.214   0.952   3.317  0.00  0.00    +0.020 A 
ATOM     16  C   UNL     1      -5.500   0.846   2.138  0.00  0.00    +0.007 A 
ATOM     17 CL   UNL     1      -6.602   0.543   5.965  0.00  0.00    -0.084 Cl
ENDBRANCH   9  11
BRANCH  10  18
ATOM     18  S   UNL     1      -2.053   1.970   2.117  0.00  0.00    +0.062 S 
ATOM     19  O   UNL     1      -2.034   1.262   3.349  0.00  0.00    -0.153 OA
ATOM     20  O   UNL     1      -0.981   2.805   1.701  0.00  0.00    -0.153 OA
BRANCH  18  21
ATOM     21  C   UNL     1      -3.498   2.979   2.138  0.00  0.00    +0.106 A 
ATOM     22  C   UNL     1      -3.741   3.859   1.100  0.00  0.00    +0.030 A 
ATOM     23  C   UNL     1      -4.874   4.650   1.116  0.00  0.00    +0.022 A 
ATOM     24  C   UNL     1      -5.765   4.561   2.171  0.00  0.00    +0.041 A 
ATOM     25  C   UNL     1      -5.521   3.680   3.209  0.00  0.00    +0.022 A 
ATOM     26  C   UNL     1      -4.390   2.885   3.189  0.00  0.00    +0.030 A 
ATOM     27 CL   UNL     1      -7.188   5.555   2.192  0.00  0.00    -0.084 Cl
ENDBRANCH  18  21
ENDBRANCH  10  18
BRANCH   1  29
ATOM     28  C   UNL     1      -0.526   2.974  -0.386  0.00  0.00    +0.005 C 
ATOM     29  C   UNL     1      -0.076   1.605   0.128  0.00  0.00    +0.017 C 
ENDBRANCH   1  29
TORSDOF 4
