REMARK  Name = ZINC13407942
REMARK  11 active torsions:
REMARK  status: ('A' for Active; 'I' for Inactive)
REMARK    1  A    between atoms: C_1  and  C_2
REMARK    2  A    between atoms: C_2  and  N_3
REMARK    3  A    between atoms: N_3  and  C_4
REMARK    4  A    between atoms: N_3  and  S_6
REMARK    5  A    between atoms: C_4  and  C_5
REMARK    6  A    between atoms: S_6  and  C_9
REMARK    7  A    between atoms: C_15  and  S_18
REMARK    8  A    between atoms: S_18  and  C_19
REMARK    9  A    between atoms: C_19  and  C_20
REMARK   10  A    between atoms: C_26  and  C_32
REMARK   11  A    between atoms: C_27  and  C_31
REMARK                            x       y       z     vdW  Elec       q    Type
REMARK                         _______ _______ _______ _____ _____    ______ ____
ROOT
ATOM      1  C   UNL     1      -2.898   0.520   2.058  0.00  0.00    +0.122 A 
ATOM      2  C   UNL     1      -2.131   1.604   2.525  0.00  0.00    +0.033 A 
ATOM      3  C   UNL     1      -2.750   2.718   2.997  0.00  0.00    +0.050 A 
ATOM      4  C   UNL     1      -4.159   2.769   3.010  0.00  0.00    +0.162 A 
ATOM      5  N   UNL     1      -5.032   3.682   3.394  0.00  0.00    -0.129 NA
ATOM      6  N   UNL     1      -6.227   3.247   3.201  0.00  0.00    -0.122 NA
ATOM      7  C   UNL     1      -6.195   2.039   2.685  0.00  0.00    +0.196 A 
ATOM      8  N   UNL     1      -4.884   1.692   2.545  0.00  0.00    -0.276 N 
ATOM      9  C   UNL     1      -4.244   0.581   2.069  0.00  0.00    +0.123 A 
ENDROOT
BRANCH   1  10
ATOM     10  S   UNL     1      -2.092  -0.923   1.446  0.00  0.00    +0.062 S 
ATOM     11  O   UNL     1      -3.116  -1.857   1.133  0.00  0.00    -0.153 OA
ATOM     12  O   UNL     1      -1.043  -1.219   2.357  0.00  0.00    -0.153 OA
BRANCH  10  13
ATOM     13  N   UNL     1      -1.372  -0.511   0.012  0.00  0.00    -0.177 NA
BRANCH  13  15
ATOM     14  C   UNL     1      -0.019   1.526   0.010  0.00  0.00    +0.022 C 
ATOM     15  C   UNL     1       0.002  -0.004   0.002  0.00  0.00    +0.106 C 
ENDBRANCH  13  15
BRANCH  13  16
ATOM     16  C   UNL     1      -2.110  -0.654  -1.245  0.00  0.00    +0.106 C 
ATOM     17  C   UNL     1      -1.773  -2.003  -1.884  0.00  0.00    +0.022 C 
ENDBRANCH  13  16
ENDBRANCH  10  13
ENDBRANCH   1  10
BRANCH   7  18
ATOM     18  S   UNL     1      -7.588   1.050   2.255  0.00  0.00    -0.078 S 
BRANCH  18  19
ATOM     19  C   UNL     1      -9.013   2.086   2.690  0.00  0.00    +0.151 C 
BRANCH  19  20
ATOM     20  C   UNL     1     -10.287   1.348   2.368  0.00  0.00    +0.124 A 
ATOM     21  N   UNL     1     -11.473   1.956   2.615  0.00  0.00    -0.309 N 
ATOM     22  H   UNL     1     -11.491   2.850   2.992  0.00  0.00    +0.170 HD
ATOM     23  C   UNL     1     -12.633   1.317   2.335  0.00  0.00    +0.263 A 
ATOM     24  O   UNL     1     -13.709   1.848   2.550  0.00  0.00    -0.267 OA
ATOM     25  C   UNL     1     -12.560   0.019   1.787  0.00  0.00    +0.118 A 
ATOM     26  C   UNL     1     -13.546  -0.985   1.354  0.00  0.00    +0.118 A 
ATOM     27  C   UNL     1     -12.814  -2.048   0.911  0.00  0.00    +0.119 A 
ATOM     28  O   UNL     1     -11.509  -1.776   1.037  0.00  0.00    -0.441 OA
ATOM     29  C   UNL     1     -11.310  -0.553   1.555  0.00  0.00    +0.235 A 
ATOM     30  N   UNL     1     -10.208   0.152   1.857  0.00  0.00    -0.198 NA
ATOM     31  C   UNL     1     -13.386  -3.330   0.365  0.00  0.00    +0.087 C 
BRANCH  26  32
ATOM     32  C   UNL     1     -15.009  -0.869   1.391  0.00  0.00    +0.391 C 
ATOM     33  O   UNL     1     -15.530   0.153   1.819  0.00  0.00    -0.240 OA
ATOM     34  O   UNL     1     -15.707  -1.792   0.995  0.00  0.00    -0.240 OA
ENDBRANCH  26  32
ENDBRANCH  19  20
ENDBRANCH  18  19
ENDBRANCH   7  18
TORSDOF 8
