REMARK  Name = ZINC11521913
REMARK  7 active torsions:
REMARK  status: ('A' for Active; 'I' for Inactive)
REMARK    1  A    between atoms: C_1  and  C_2
REMARK    2  A    between atoms: C_5  and  N_9
REMARK    3  A    between atoms: C_10  and  C_12
REMARK    4  A    between atoms: C_12  and  C_14
REMARK    5  A    between atoms: C_12  and  N_56
REMARK    6  A    between atoms: N_17  and  C_20
REMARK    7  A    between atoms: C_23  and  N_30
REMARK                            x       y       z     vdW  Elec       q    Type
REMARK                         _______ _______ _______ _____ _____    ______ ____
ROOT
ATOM      1  C   UNL     1       2.507  -2.774   1.194  0.00  0.00    -0.059 C 
ATOM      2  C   UNL     1       2.220  -4.276   1.129  0.00  0.00    +0.086 C 
ATOM      3  N   UNL     1       3.485  -5.009   0.986  0.00  0.00    -0.333 N 
ATOM      4  C   UNL     1       4.194  -4.597  -0.233  0.00  0.00    +0.086 C 
ATOM      5  C   UNL     1       4.482  -3.095  -0.169  0.00  0.00    -0.059 C 
ATOM      6  N   UNL     1       3.200  -2.369  -0.047  0.00  0.00    +0.389 N 
ATOM      7  H   UNL     1       2.607  -2.602  -0.852  0.00  0.00    -0.081 HD
ENDROOT
BRANCH   3   8
ATOM      8  C   UNL     1       3.269  -6.386   0.997  0.00  0.00    +0.038 A 
ATOM      9  C   UNL     1       1.988  -6.892   0.909  0.00  0.00    +0.026 A 
ATOM     10  C   UNL     1       1.763  -8.265   0.914  0.00  0.00    +0.035 A 
ATOM     11  C   UNL     1       2.796  -9.149   1.015  0.00  0.00    +0.135 A 
ATOM     12  C   UNL     1       4.113  -8.675   1.111  0.00  0.00    +0.032 A 
ATOM     13  C   UNL     1       4.355  -7.277   1.102  0.00  0.00    +0.008 A 
ATOM     14  C   UNL     1       5.683  -6.830   1.200  0.00  0.00    +0.030 A 
ATOM     15  C   UNL     1       6.679  -7.755   1.299  0.00  0.00    +0.111 A 
ATOM     16  N   UNL     1       6.426  -9.057   1.305  0.00  0.00    -0.263 NA
ATOM     17  C   UNL     1       5.211  -9.545   1.217  0.00  0.00    +0.121 A 
BRANCH  11  18
ATOM     18  N   UNL     1       2.528 -10.605   1.023  0.00  0.00    +0.057 N 
ATOM     19  O   UNL     1       1.663 -11.069   0.302  0.00  0.00    -0.126 OA
ATOM     20  O   UNL     1       3.172 -11.338   1.752  0.00  0.00    -0.126 OA
ENDBRANCH  11  18
ENDBRANCH   3   8
BRANCH   6  21
ATOM     21  C   UNL     1       3.445  -0.911  -0.036  0.00  0.00    +0.017 C 
ATOM     22  C   UNL     1       4.594  -0.568   0.913  0.00  0.00    -0.004 C 
BRANCH  21  24
ATOM     23  N   UNL     1       3.967   0.842  -1.702  0.00  0.00    -0.286 N 
ATOM     24  C   UNL     1       3.797  -0.468  -1.433  0.00  0.00    +0.203 C 
ATOM     25  O   UNL     1       3.929  -1.290  -2.315  0.00  0.00    -0.277 OA
ATOM     26  H   UNL     1       3.912   1.495  -0.987  0.00  0.00    +0.155 HD
BRANCH  23  31
ATOM     27  C   UNL     1       5.000   2.534  -7.019  0.00  0.00    +0.044 C 
ATOM     28  C   UNL     1       4.725   2.085  -5.606  0.00  0.00    -0.049 A 
ATOM     29  C   UNL     1       5.182   0.854  -5.173  0.00  0.00    +0.005 A 
ATOM     30  C   UNL     1       4.928   0.437  -3.881  0.00  0.00    +0.024 A 
ATOM     31  C   UNL     1       4.222   1.260  -3.013  0.00  0.00    +0.047 A 
ATOM     32  C   UNL     1       3.769   2.498  -3.450  0.00  0.00    +0.039 A 
ATOM     33  C   UNL     1       4.022   2.907  -4.746  0.00  0.00    +0.020 A 
ATOM     34 BR   UNL     1       2.806   3.623  -2.273  0.00  0.00    -0.048 Br
ENDBRANCH  23  31
ENDBRANCH  21  24
ENDBRANCH   6  21
TORSDOF 5
