REMARK  Name = ZINC06832493
REMARK  7 active torsions:
REMARK  status: ('A' for Active; 'I' for Inactive)
REMARK    1  A    between atoms: C_1  and  C_2
REMARK    2  A    between atoms: C_2  and  C_3
REMARK    3  A    between atoms: C_2  and  C_4
REMARK    4  A    between atoms: C_4  and  C_5
REMARK    5  A    between atoms: C_22  and  C_24
REMARK    6  A    between atoms: C_27  and  O_30
REMARK    7  A    between atoms: O_30  and  C_31
REMARK                            x       y       z     vdW  Elec       q    Type
REMARK                         _______ _______ _______ _____ _____    ______ ____
ROOT
ATOM      1  C   UNL     1       2.055   0.072  -1.247  0.00  0.00    +0.204 C 
ATOM      2  C   UNL     1       2.813  -0.464  -2.426  0.00  0.00    +0.023 C 
ATOM      3  C   UNL     1       4.124  -0.762  -2.326  0.00  0.00    +0.083 C 
ATOM      4  C   UNL     1       4.775  -0.572  -1.005  0.00  0.00    +0.042 A 
ATOM      5  C   UNL     1       6.157  -0.587  -0.872  0.00  0.00    +0.013 A 
ATOM      6  C   UNL     1       6.724  -0.388   0.373  0.00  0.00    +0.001 A 
ATOM      7  C   UNL     1       5.921  -0.174   1.479  0.00  0.00    +0.004 A 
ATOM      8  C   UNL     1       4.543  -0.164   1.355  0.00  0.00    +0.046 A 
ATOM      9  C   UNL     1       3.962  -0.370   0.116  0.00  0.00    +0.131 A 
ATOM     10  O   UNL     1       2.612  -0.412  -0.025  0.00  0.00    -0.484 OA
ATOM     11  N   UNL     1       4.829  -1.223  -3.389  0.00  0.00    -0.213 NA
ATOM     12  C   UNL     1       4.321  -1.430  -4.581  0.00  0.00    +0.237 C 
ATOM     13  N   UNL     1       4.872  -1.876  -5.732  0.00  0.00    -0.205 NA
ATOM     14  C   UNL     1       3.973  -1.923  -6.677  0.00  0.00    +0.203 C 
ATOM     15  N   UNL     1       2.774  -1.504  -6.185  0.00  0.00    -0.251 N 
ATOM     16  N   UNL     1       2.988  -1.184  -4.843  0.00  0.00    -0.208 N 
ATOM     17  C   UNL     1       2.134  -0.680  -3.760  0.00  0.00    +0.159 C 
ATOM     18  H   UNL     1       1.937  -1.441  -6.671  0.00  0.00    +0.171 HD
ENDROOT
BRANCH  17  19
ATOM     19  C   UNL     1       1.004  -1.657  -3.559  0.00  0.00    -0.021 A 
ATOM     20  C   UNL     1      -0.292  -1.286  -3.866  0.00  0.00    +0.009 A 
ATOM     21  C   UNL     1      -1.330  -2.180  -3.683  0.00  0.00    +0.046 A 
ATOM     22  C   UNL     1      -1.070  -3.450  -3.190  0.00  0.00    +0.120 A 
ATOM     23  C   UNL     1       0.231  -3.821  -2.884  0.00  0.00    +0.046 A 
ATOM     24  C   UNL     1       1.266  -2.925  -3.074  0.00  0.00    +0.009 A 
BRANCH  22  25
ATOM     25  O   UNL     1      -2.089  -4.331  -3.008  0.00  0.00    -0.495 OA
ATOM     26  C   UNL     1      -1.748  -5.622  -2.498  0.00  0.00    +0.277 C 
ENDBRANCH  22  25
ENDBRANCH  17  19
BRANCH   1  27
ATOM     27  C   UNL     1       0.594  -0.371  -1.344  0.00  0.00    +0.052 C 
BRANCH  27  29
ATOM     28  C   UNL     1      -0.228   1.741  -0.294  0.00  0.00    +0.007 C 
ATOM     29  C   UNL     1      -0.197   0.216  -0.174  0.00  0.00    -0.013 C 
ATOM     30  C   UNL     1      -1.627  -0.327  -0.200  0.00  0.00    +0.007 C 
ENDBRANCH  27  29
ENDBRANCH   1  27
TORSDOF 4
