REMARK  Name = ZINC03515575
REMARK  7 active torsions:
REMARK  status: ('A' for Active; 'I' for Inactive)
REMARK    1  A    between atoms: C_1  and  C_2
REMARK    2  A    between atoms: C_7  and  C_9
REMARK    3  A    between atoms: C_7  and  C_10
REMARK    4  A    between atoms: C_13  and  C_15
REMARK    5  A    between atoms: C_15  and  O_16
REMARK    6  A    between atoms: O_16  and  C_17
REMARK    7  A    between atoms: C_17  and  C_19
REMARK                            x       y       z     vdW  Elec       q    Type
REMARK                         _______ _______ _______ _____ _____    ______ ____
ROOT
ATOM      1  C   UNL     1       1.304  -2.369  -3.553  0.00  0.00    +0.328 C 
ENDROOT
BRANCH   1  13
ATOM      2  C   UNL     1      -0.019   1.532   0.011  0.00  0.00    +0.013 C 
ATOM      3  C   UNL     1       0.002  -0.004   0.002  0.00  0.00    -0.014 C 
ATOM      4  C   UNL     1      -1.427  -0.614  -0.023  0.00  0.00    +0.030 C 
ATOM      5  C   UNL     1      -1.088  -2.044  -0.513  0.00  0.00    +0.077 C 
ATOM      6  C   UNL     1      -0.480  -2.795   0.669  0.00  0.00    +0.029 C 
ATOM      7  C   UNL     1       0.726  -2.106   1.280  0.00  0.00    -0.033 C 
ATOM      8  C   UNL     1       0.726  -0.590   1.212  0.00  0.00    +0.014 C 
ATOM      9  C   UNL     1       2.015  -2.662   0.657  0.00  0.00    +0.011 C 
ATOM     10  C   UNL     1       0.763  -2.497   2.779  0.00  0.00    +0.011 C 
ATOM     11  N   UNL     1      -0.055  -1.854  -1.550  0.00  0.00    -0.295 N 
ATOM     12  C   UNL     1       0.625  -0.576  -1.291  0.00  0.00    +0.115 C 
ATOM     13  C   UNL     1       0.214  -2.699  -2.566  0.00  0.00    +0.254 C 
ATOM     14  O   UNL     1      -0.423  -3.724  -2.687  0.00  0.00    -0.272 OA
ENDBRANCH   1  13
BRANCH   1  15
ATOM     15  O   UNL     1       1.396  -3.410  -4.528  0.00  0.00    -0.451 OA
BRANCH  15  16
ATOM     16  C   UNL     1       2.330  -3.267  -5.490  0.00  0.00    +0.348 C 
ATOM     17  O   UNL     1       3.048  -2.285  -5.500  0.00  0.00    -0.244 OA
BRANCH  16  18
ATOM     18  C   UNL     1       2.481  -4.295  -6.524  0.00  0.00    +0.116 A 
ATOM     19  C   UNL     1       3.361  -4.332  -7.562  0.00  0.00    +0.070 A 
ATOM     20  C   UNL     1       3.345  -5.419  -8.456  0.00  0.00    +0.009 A 
ATOM     21  C   UNL     1       4.173  -5.637  -9.587  0.00  0.00    +0.013 A 
ATOM     22  C   UNL     1       4.028  -6.748 -10.352  0.00  0.00    +0.039 A 
ATOM     23  C   UNL     1       3.068  -7.714 -10.060  0.00  0.00    +0.124 A 
ATOM     24  C   UNL     1       2.240  -7.540  -8.966  0.00  0.00    +0.054 A 
ATOM     25  C   UNL     1       2.378  -6.415  -8.182  0.00  0.00    +0.024 A 
ATOM     26  S   UNL     1       1.562  -5.811  -6.726  0.00  0.00    -0.080 S 
ATOM     27  F   UNL     1       2.945  -8.810 -10.839  0.00  0.00    -0.205 F 
ATOM     28 CL   UNL     1       4.498  -3.039  -7.785  0.00  0.00    -0.082 Cl
ENDBRANCH  16  18
ENDBRANCH  15  16
ENDBRANCH   1  15
TORSDOF 4
