REMARK  Name = ZINC21257496
REMARK  8 active torsions:
REMARK  status: ('A' for Active; 'I' for Inactive)
REMARK    1  A    between atoms: C_1  and  C_2
REMARK    2  A    between atoms: C_2  and  C_3
REMARK    3  A    between atoms: C_2  and  C_4
REMARK    4  A    between atoms: C_4  and  O_5
REMARK    5  A    between atoms: O_5  and  C_6
REMARK    6  A    between atoms: C_9  and  C_12
REMARK    7  A    between atoms: C_17  and  C_27
REMARK    8  A    between atoms: C_32  and  N_33
REMARK                            x       y       z     vdW  Elec       q    Type
REMARK                         _______ _______ _______ _____ _____    ______ ____
ROOT
ATOM      1  C   UNL     1      -0.965   7.169  -3.808  0.00  0.00    +0.032 C 
ATOM      2  C   UNL     1       0.501   6.778  -3.633  0.00  0.00    +0.059 C 
ATOM      3  C   UNL     1       0.765   6.402  -2.184  0.00  0.00    +0.017 C 
ATOM      4  C   UNL     1      -0.191   5.808  -1.451  0.00  0.00    +0.036 C 
ATOM      5  C   UNL     1      -0.052   5.347  -0.019  0.00  0.00    +0.138 C 
ATOM      6  N   UNL     1       1.140   5.823   0.650  0.00  0.00    -0.331 N 
ATOM      7  C   UNL     1       2.409   5.434   0.225  0.00  0.00    +0.049 A 
ATOM      8  C   UNL     1       3.213   4.617   1.004  0.00  0.00    +0.025 A 
ATOM      9  C   UNL     1       4.421   4.169   0.497  0.00  0.00    +0.002 A 
ATOM     10  C   UNL     1       4.824   4.532  -0.775  0.00  0.00    +0.002 A 
ATOM     11  C   UNL     1       4.033   5.365  -1.548  0.00  0.00    +0.025 A 
ATOM     12  C   UNL     1       2.833   5.828  -1.036  0.00  0.00    +0.052 A 
ATOM     13  N   UNL     1       2.013   6.702  -1.740  0.00  0.00    -0.316 N 
ATOM     14  C   UNL     1      -1.468   5.565  -2.008  0.00  0.00    +0.163 C 
ATOM     15  O   UNL     1      -2.310   5.015  -1.326  0.00  0.00    -0.292 OA
ATOM     16  C   UNL     1      -1.822   5.962  -3.410  0.00  0.00    +0.088 C 
ATOM     17  H   UNL     1       1.054   6.504   1.509  0.00  0.00    +0.147 HD
ATOM     18  H   UNL     1       2.440   7.697  -1.931  0.00  0.00    +0.152 HD
ENDROOT
BRANCH   1  22
ATOM     19  C   UNL     1      -1.712   8.192  -7.890  0.00  0.00    +0.121 A 
ATOM     20  C   UNL     1      -1.925   9.128  -6.889  0.00  0.00    +0.046 A 
ATOM     21  C   UNL     1      -1.683   8.795  -5.570  0.00  0.00    +0.007 A 
ATOM     22  C   UNL     1      -1.228   7.530  -5.248  0.00  0.00    -0.043 A 
ATOM     23  C   UNL     1      -1.010   6.597  -6.244  0.00  0.00    +0.007 A 
ATOM     24  C   UNL     1      -1.256   6.923  -7.564  0.00  0.00    +0.046 A 
BRANCH  19  25
ATOM     25  O   UNL     1      -1.950   8.517  -9.188  0.00  0.00    -0.492 OA
BRANCH  25  26
ATOM     26  C   UNL     1      -1.708   7.503 -10.165  0.00  0.00    +0.232 C 
BRANCH  26  28
ATOM     27  C   UNL     1      -1.653   7.008 -12.614  0.00  0.00    +0.010 C 
ATOM     28  C   UNL     1      -2.030   8.050 -11.558  0.00  0.00    +0.020 C 
ATOM     29  C   UNL     1      -3.526   8.355 -11.653  0.00  0.00    +0.010 C 
ENDBRANCH  26  28
ENDBRANCH  25  26
ENDBRANCH  19  25
ENDBRANCH   1  22
BRANCH   5  30
ATOM     30  C   UNL     1      -0.041   3.840  -0.001  0.00  0.00    +0.007 A 
ATOM     31  C   UNL     1       0.190   3.137  -1.169  0.00  0.00    +0.008 A 
ATOM     32  C   UNL     1       0.201   1.755  -1.152  0.00  0.00    +0.000 A 
ATOM     33  C   UNL     1      -0.021   1.076   0.032  0.00  0.00    +0.002 A 
ATOM     34  C   UNL     1      -0.258   1.779   1.198  0.00  0.00    +0.033 A 
ATOM     35  C   UNL     1      -0.263   3.162   1.182  0.00  0.00    +0.131 A 
BRANCH  35  36
ATOM     36  N   UNL     1      -0.511   3.915   2.432  0.00  0.00    +0.057 N 
ATOM     37  O   UNL     1      -0.610   3.322   3.491  0.00  0.00    -0.126 OA
ATOM     38  O   UNL     1      -0.617   5.128   2.401  0.00  0.00    -0.126 OA
ENDBRANCH  35  36
ENDBRANCH   5  30
TORSDOF 6
