REMARK  Name = ZINC34787274
REMARK  10 active torsions:
REMARK  status: ('A' for Active; 'I' for Inactive)
REMARK    1  A    between atoms: C_1  and  C_2
REMARK    2  A    between atoms: C_2  and  C_3
REMARK    3  A    between atoms: C_4  and  C_34
REMARK    4  A    between atoms: C_8  and  N_19
REMARK    5  A    between atoms: C_13  and  C_18
REMARK    6  A    between atoms: C_15  and  C_17
REMARK    7  A    between atoms: N_19  and  N_20
REMARK    8  A    between atoms: N_19  and  N_28
REMARK    9  A    between atoms: N_20  and  C_21
REMARK   10  A    between atoms: C_21  and  C_22
REMARK                            x       y       z     vdW  Elec       q    Type
REMARK                         _______ _______ _______ _____ _____    ______ ____
ROOT
ATOM      1  C   UNL     1      -1.821  -0.503  -0.015  0.00  0.00    -0.025 A 
ATOM      2  C   UNL     1      -2.551  -0.617   1.104  0.00  0.00    -0.007 A 
ATOM      3  S   UNL     1      -4.147  -1.146   0.509  0.00  0.00    -0.073 S 
ATOM      4  C   UNL     1      -3.789  -1.200  -1.227  0.00  0.00    +0.116 A 
ATOM      5  C   UNL     1      -2.437  -0.799  -1.297  0.00  0.00    +0.054 A 
ATOM      6  C   UNL     1      -1.881  -0.748  -2.605  0.00  0.00    +0.164 A 
ATOM      7  N   UNL     1      -2.638  -1.064  -3.643  0.00  0.00    -0.192 NA
ATOM      8  C   UNL     1      -3.906  -1.429  -3.505  0.00  0.00    +0.254 A 
ATOM      9  N   UNL     1      -4.474  -1.504  -2.312  0.00  0.00    -0.203 NA
ATOM     10  N   UNL     1      -4.652  -1.750  -4.640  0.00  0.00    -0.202 N 
ATOM     11  C   UNL     1      -5.955  -2.133  -4.659  0.00  0.00    +0.045 A 
ATOM     12  C   UNL     1      -6.299  -2.350  -5.949  0.00  0.00    +0.048 A 
ATOM     13  C   UNL     1      -5.176  -2.092  -6.744  0.00  0.00    +0.061 A 
ATOM     14  N   UNL     1      -4.192  -1.729  -5.963  0.00  0.00    -0.169 NA
ATOM     15  C   UNL     1      -5.114  -2.209  -8.245  0.00  0.00    +0.067 C 
ATOM     16  C   UNL     1      -6.855  -2.289  -3.460  0.00  0.00    +0.066 C 
ATOM     17  C   UNL     1      -2.125  -0.358   2.526  0.00  0.00    +0.052 C 
ENDROOT
BRANCH   1  19
ATOM     18  C   UNL     1      -0.312   1.456   0.157  0.00  0.00    +0.009 C 
ATOM     19  C   UNL     1      -0.380  -0.069   0.056  0.00  0.00    +0.033 C 
ENDBRANCH   1  19
BRANCH   6  20
ATOM     20  N   UNL     1      -0.563  -0.372  -2.791  0.00  0.00    -0.178 N 
BRANCH  20  21
ATOM     21  N   UNL     1      -0.270   0.794  -3.440  0.00  0.00    -0.206 NA
ATOM     22  C   UNL     1       0.313   0.528  -4.763  0.00  0.00    +0.135 C 
ATOM     23  C   UNL     1       0.570   1.857  -5.478  0.00  0.00    +0.177 C 
ATOM     24  O   UNL     1       1.418   2.673  -4.666  0.00  0.00    -0.377 OA
ATOM     25  C   UNL     1       0.881   2.953  -3.371  0.00  0.00    +0.177 C 
ATOM     26  C   UNL     1       0.627   1.635  -2.634  0.00  0.00    +0.135 C 
ENDBRANCH  20  21
BRANCH  20  27
ATOM     27  N   UNL     1       0.446  -1.166  -2.325  0.00  0.00    -0.220 NA
ATOM     28  H   UNL     1       1.282  -0.627  -2.157  0.00  0.00    +0.146 HD
BRANCH  27  29
ATOM     29  C   UNL     1       0.711  -2.277  -3.249  0.00  0.00    +0.138 C 
BRANCH  29  30
ATOM     30  C   UNL     1       1.735  -3.201  -2.642  0.00  0.00    -0.032 A 
ATOM     31  C   UNL     1       3.083  -2.930  -2.785  0.00  0.00    +0.005 A 
ATOM     32  C   UNL     1       4.022  -3.778  -2.228  0.00  0.00    +0.000 A 
ATOM     33  C   UNL     1       3.613  -4.897  -1.528  0.00  0.00    +0.000 A 
ATOM     34  C   UNL     1       2.265  -5.169  -1.384  0.00  0.00    +0.000 A 
ATOM     35  C   UNL     1       1.326  -4.318  -1.937  0.00  0.00    +0.005 A 
ENDBRANCH  29  30
ENDBRANCH  27  29
ENDBRANCH  20  27
ENDBRANCH   6  20
TORSDOF 6
