REMARK  Name = ZINC12482816
REMARK  8 active torsions:
REMARK  status: ('A' for Active; 'I' for Inactive)
REMARK    1  A    between atoms: C_1  and  N_2
REMARK    2  A    between atoms: N_2  and  C_3
REMARK    3  A    between atoms: N_2  and  C_30
REMARK    4  A    between atoms: C_3  and  C_4
REMARK    5  A    between atoms: C_6  and  C_9
REMARK    6  A    between atoms: C_9  and  C_10
REMARK    7  A    between atoms: C_15  and  C_17
REMARK    8  A    between atoms: C_17  and  C_18
REMARK                            x       y       z     vdW  Elec       q    Type
REMARK                         _______ _______ _______ _____ _____    ______ ____
ROOT
ATOM      1  C   UNL     1       0.373   5.488   3.407  0.00  0.00    -0.019 C 
ATOM      2  C   UNL     1       1.068   6.563   4.247  0.00  0.00    -0.079 C 
ATOM      3  C   UNL     1       3.127   5.284   4.282  0.00  0.00    -0.082 C 
ATOM      4  C   UNL     1       2.493   4.172   3.444  0.00  0.00    -0.015 C 
ATOM      5  C   UNL     1       1.413   4.772   2.540  0.00  0.00    -0.002 C 
ATOM      6  N   UNL     1       2.092   5.938   5.106  0.00  0.00    +0.379 N 
ATOM      7  H   UNL     1       1.645   5.236   5.708  0.00  0.00    -0.086 HD
ATOM      8  H   UNL     1       2.530   6.660   5.690  0.00  0.00    -0.086 HD
ENDROOT
BRANCH   1   9
ATOM      9  C   UNL     1      -0.304   4.476   4.333  0.00  0.00    +0.061 C 
BRANCH   9  12
ATOM     10  C   UNL     1      -3.343   5.686   5.961  0.00  0.00    +0.155 A 
ATOM     11  C   UNL     1      -2.767   4.762   5.154  0.00  0.00    +0.072 A 
ATOM     12  C   UNL     1      -1.410   5.156   5.098  0.00  0.00    +0.084 A 
ATOM     13  N   UNL     1      -1.305   6.218   5.843  0.00  0.00    -0.083 NA
ATOM     14  O   UNL     1      -2.368   6.531   6.325  0.00  0.00    -0.358 OA
BRANCH  10  15
ATOM     15  C   UNL     1      -4.792   5.750   6.368  0.00  0.00    +0.181 C 
BRANCH  15  17
ATOM     16  C   UNL     1      -4.847   5.635   8.902  0.00  0.00    +0.129 C 
ATOM     17  N   UNL     1      -4.988   4.980   7.599  0.00  0.00    -0.326 N 
BRANCH  17  18
ATOM     18  C   UNL     1      -5.310   3.623   7.531  0.00  0.00    +0.030 A 
ATOM     19  C   UNL     1      -5.450   3.002   6.296  0.00  0.00    +0.023 A 
ATOM     20  C   UNL     1      -5.763   1.659   6.232  0.00  0.00    +0.002 A 
ATOM     21  C   UNL     1      -5.947   0.934   7.395  0.00  0.00    +0.000 A 
ATOM     22  C   UNL     1      -5.814   1.550   8.626  0.00  0.00    +0.002 A 
ATOM     23  C   UNL     1      -5.496   2.892   8.697  0.00  0.00    +0.023 A 
ENDBRANCH  17  18
ENDBRANCH  15  17
ENDBRANCH  10  15
ENDBRANCH   9  12
ENDBRANCH   1   9
BRANCH   5  24
ATOM     24  C   UNL     1       0.733   3.656   1.744  0.00  0.00    +0.099 C 
BRANCH  24  25
ATOM     25  C   UNL     1       1.732   3.029   0.807  0.00  0.00    +0.216 C 
ATOM     26  O   UNL     1       2.875   3.434   0.778  0.00  0.00    -0.276 OA
ATOM     27  N   UNL     1       1.356   2.017  -0.000  0.00  0.00    -0.297 N 
ATOM     28  C   UNL     1       2.308   1.382  -0.927  0.00  0.00    +0.113 C 
ATOM     29  C   UNL     1       2.485  -0.073  -0.494  0.00  0.00    +0.054 C 
ATOM     30  C   UNL     1       1.149  -0.724  -0.244  0.00  0.00    -0.041 A 
ATOM     31  C   UNL     1       1.098  -2.113  -0.253  0.00  0.00    +0.004 A 
ATOM     32  C   UNL     1      -0.088  -2.772  -0.009  0.00  0.00    +0.000 A 
ATOM     33  C   UNL     1      -1.238  -2.048   0.247  0.00  0.00    +0.000 A 
ATOM     34  C   UNL     1      -1.190  -0.669   0.252  0.00  0.00    +0.005 A 
ATOM     35  C   UNL     1       0.002  -0.004   0.002  0.00  0.00    -0.027 A 
ATOM     36  C   UNL     1      -0.018   1.504   0.010  0.00  0.00    +0.143 C 
ENDBRANCH  24  25
ENDBRANCH   5  24
TORSDOF 7
