REMARK  Name = ZINC27697394
REMARK  10 active torsions:
REMARK  status: ('A' for Active; 'I' for Inactive)
REMARK    1  A    between atoms: C_1  and  C_2
REMARK    2  A    between atoms: N_5  and  C_8
REMARK    3  A    between atoms: C_8  and  C_9
REMARK    4  A    between atoms: C_9  and  C_11
REMARK    5  A    between atoms: C_9  and  O_36
REMARK    6  A    between atoms: C_11  and  N_12
REMARK    7  A    between atoms: C_20  and  C_21
REMARK    8  A    between atoms: C_21  and  C_23
REMARK    9  A    between atoms: C_21  and  S_29
REMARK   10  A    between atoms: S_29  and  C_30
REMARK                            x       y       z     vdW  Elec       q    Type
REMARK                         _______ _______ _______ _____ _____    ______ ____
ROOT
ATOM      1  N   UNL     1      -6.432   2.436   1.649  0.00  0.00    -0.324 N 
ATOM      2  C   UNL     1      -7.684   1.868   1.772  0.00  0.00    +0.069 A 
ATOM      3  C   UNL     1      -8.685   1.934   2.732  0.00  0.00    +0.028 A 
ATOM      4  C   UNL     1      -9.854   1.225   2.550  0.00  0.00    +0.002 A 
ATOM      5  C   UNL     1     -10.035   0.448   1.415  0.00  0.00    +0.002 A 
ATOM      6  C   UNL     1      -9.061   0.372   0.460  0.00  0.00    +0.030 A 
ATOM      7  C   UNL     1      -7.869   1.081   0.623  0.00  0.00    +0.089 A 
ATOM      8  N   UNL     1      -6.745   1.210  -0.129  0.00  0.00    -0.231 NA
ATOM      9  C   UNL     1      -5.904   1.999   0.474  0.00  0.00    +0.129 A 
ENDROOT
BRANCH   1  10
ATOM     10  C   UNL     1      -5.791   3.341   2.606  0.00  0.00    +0.153 C 
BRANCH  10  11
ATOM     11  C   UNL     1      -4.885   2.537   3.540  0.00  0.00    +0.118 C 
BRANCH  11  12
ATOM     12  O   UNL     1      -5.681   1.645   4.324  0.00  0.00    -0.392 OA
ATOM     13  H   UNL     1      -6.299   0.881   3.830  0.00  0.00    +0.210 HD
ENDBRANCH  11  12
BRANCH  11  14
ATOM     14  C   UNL     1      -4.129   3.492   4.465  0.00  0.00    -0.045 C 
BRANCH  14  19
ATOM     15  C   UNL     1      -0.099   0.891   7.574  0.00  0.00    +0.007 C 
ATOM     16  C   UNL     1      -0.814   1.766   6.543  0.00  0.00    -0.018 C 
ATOM     17  C   UNL     1      -1.713   2.775   7.263  0.00  0.00    -0.016 C 
ATOM     18  C   UNL     1      -2.472   3.607   6.226  0.00  0.00    -0.078 C 
ATOM     19  N   UNL     1      -3.281   2.719   5.381  0.00  0.00    +0.381 N 
ATOM     20  C   UNL     1      -2.435   1.772   4.643  0.00  0.00    -0.078 C 
ATOM     21  C   UNL     1      -1.675   0.886   5.633  0.00  0.00    -0.016 C 
ATOM     22  H   UNL     1      -3.939   2.135   6.042  0.00  0.00    -0.082 HD
ENDBRANCH  14  19
ENDBRANCH  11  14
ENDBRANCH  10  11
ENDBRANCH   1  10
BRANCH   9  23
ATOM     23  C   UNL     1      -4.545   2.377  -0.056  0.00  0.00    +0.147 C 
BRANCH  23  24
ATOM     24  C   UNL     1      -4.704   3.320  -1.220  0.00  0.00    -0.027 A 
ATOM     25  C   UNL     1      -5.211   2.857  -2.420  0.00  0.00    +0.005 A 
ATOM     26  C   UNL     1      -5.361   3.723  -3.487  0.00  0.00    +0.000 A 
ATOM     27  C   UNL     1      -4.996   5.050  -3.357  0.00  0.00    +0.000 A 
ATOM     28  C   UNL     1      -4.485   5.512  -2.159  0.00  0.00    +0.000 A 
ATOM     29  C   UNL     1      -4.338   4.647  -1.091  0.00  0.00    +0.005 A 
ENDBRANCH  23  24
BRANCH  23  30
ATOM     30  S   UNL     1      -3.671   0.884  -0.601  0.00  0.00    -0.109 S 
BRANCH  30  31
ATOM     31  C   UNL     1      -2.068   1.467  -1.046  0.00  0.00    +0.009 A 
ATOM     32  C   UNL     1      -1.111   0.578  -1.520  0.00  0.00    +0.015 A 
ATOM     33  C   UNL     1       0.142   1.039  -1.872  0.00  0.00    +0.001 A 
ATOM     34  C   UNL     1       0.446   2.383  -1.751  0.00  0.00    +0.000 A 
ATOM     35  C   UNL     1      -0.503   3.270  -1.276  0.00  0.00    +0.001 A 
ATOM     36  C   UNL     1      -1.758   2.816  -0.921  0.00  0.00    +0.015 A 
ENDBRANCH  30  31
ENDBRANCH  23  30
ENDBRANCH   9  23
TORSDOF 9
