REMARK  Name = ZINC10248635
REMARK  6 active torsions:
REMARK  status: ('A' for Active; 'I' for Inactive)
REMARK    1  A    between atoms: C_1  and  N_2
REMARK    2  A    between atoms: N_11  and  C_27
REMARK    3  A    between atoms: N_17  and  C_20
REMARK    4  A    between atoms: C_27  and  C_28
REMARK    5  A    between atoms: C_28  and  S_29
REMARK    6  A    between atoms: S_29  and  C_30
REMARK                            x       y       z     vdW  Elec       q    Type
REMARK                         _______ _______ _______ _____ _____    ______ ____
ROOT
ATOM      1  C   UNL     1       3.643   2.079   0.307  0.00  0.00    +0.155 C 
ATOM      2  N   UNL     1       2.357   1.378   0.272  0.00  0.00    -0.280 N 
ATOM      3  C   UNL     1       1.181   2.096   0.128  0.00  0.00    +0.170 A 
ATOM      4  C   UNL     1      -0.026   1.406   0.099  0.00  0.00    +0.153 A 
ATOM      5  C   UNL     1      -0.019   0.005   0.215  0.00  0.00    +0.280 A 
ATOM      6  O   UNL     1      -1.065  -0.621   0.191  0.00  0.00    -0.265 OA
ATOM      7  N   UNL     1       1.158  -0.640   0.352  0.00  0.00    -0.273 N 
ATOM      8  H   UNL     1       1.167  -1.637   0.435  0.00  0.00    +0.173 HD
ATOM      9  C   UNL     1       2.319   0.036   0.379  0.00  0.00    +0.331 A 
ATOM     10  O   UNL     1       3.361  -0.578   0.505  0.00  0.00    -0.246 OA
ATOM     11  N   UNL     1      -1.020   2.363  -0.057  0.00  0.00    -0.305 N 
ATOM     12  C   UNL     1      -0.397   3.570  -0.107  0.00  0.00    +0.201 A 
ATOM     13  N   UNL     1       0.905   3.395   0.001  0.00  0.00    -0.196 NA
ATOM     14  N   UNL     1      -1.026   4.785  -0.252  0.00  0.00    -0.298 N 
ATOM     15  C   UNL     1      -0.623   5.440  -1.504  0.00  0.00    +0.127 C 
ATOM     16  C   UNL     1      -1.403   6.747  -1.667  0.00  0.00    +0.124 C 
ATOM     17  N   UNL     1      -1.141   7.618  -0.513  0.00  0.00    -0.325 N 
ATOM     18  C   UNL     1      -1.544   6.962   0.740  0.00  0.00    +0.124 C 
ATOM     19  C   UNL     1      -0.764   5.655   0.902  0.00  0.00    +0.127 C 
ENDROOT
BRANCH  17  20
ATOM     20  C   UNL     1      -1.781   8.852  -0.661  0.00  0.00    +0.065 A 
ATOM     21  C   UNL     1      -1.600   9.848   0.290  0.00  0.00    +0.026 A 
ATOM     22  C   UNL     1      -2.231  11.068   0.139  0.00  0.00    +0.002 A 
ATOM     23  C   UNL     1      -3.049  11.296  -0.953  0.00  0.00    +0.003 A 
ATOM     24  C   UNL     1      -3.236  10.306  -1.899  0.00  0.00    +0.040 A 
ATOM     25  C   UNL     1      -2.605   9.083  -1.757  0.00  0.00    +0.144 A 
ATOM     26  F   UNL     1      -2.788   8.116  -2.682  0.00  0.00    -0.204 F 
ENDBRANCH  17  20
BRANCH  11  27
ATOM     27  C   UNL     1      -2.462   2.119  -0.148  0.00  0.00    +0.136 C 
BRANCH  27  28
ATOM     28  C   UNL     1      -3.067   2.106   1.257  0.00  0.00    +0.096 C 
BRANCH  28  29
ATOM     29  S   UNL     1      -4.852   1.804   1.144  0.00  0.00    -0.123 S 
BRANCH  29  30
ATOM     30  C   UNL     1      -5.393   1.817   2.821  0.00  0.00    +0.008 A 
ATOM     31  C   UNL     1      -4.478   2.025   3.846  0.00  0.00    +0.016 A 
ATOM     32  C   UNL     1      -4.907   2.039   5.159  0.00  0.00    +0.021 A 
ATOM     33  C   UNL     1      -6.243   1.837   5.455  0.00  0.00    +0.041 A 
ATOM     34  C   UNL     1      -7.156   1.624   4.436  0.00  0.00    +0.021 A 
ATOM     35  C   UNL     1      -6.734   1.614   3.121  0.00  0.00    +0.016 A 
ATOM     36 CL   UNL     1      -6.777   1.850   7.106  0.00  0.00    -0.084 Cl
ENDBRANCH  29  30
ENDBRANCH  28  29
ENDBRANCH  27  28
ENDBRANCH  11  27
TORSDOF 5
