REMARK  Name = ZINC19814955
REMARK  9 active torsions:
REMARK  status: ('A' for Active; 'I' for Inactive)
REMARK    1  A    between atoms: C_1  and  S_2
REMARK    2  A    between atoms: S_2  and  C_3
REMARK    3  A    between atoms: C_3  and  C_4
REMARK    4  A    between atoms: C_4  and  C_5
REMARK    5  A    between atoms: C_5  and  C_7
REMARK    6  A    between atoms: C_5  and  N_27
REMARK    7  A    between atoms: N_9  and  C_10
REMARK    8  A    between atoms: C_13  and  C_16
REMARK    9  A    between atoms: C_19  and  C_21
REMARK                            x       y       z     vdW  Elec       q    Type
REMARK                         _______ _______ _______ _____ _____    ______ ____
ROOT
ATOM      1  C   UNL     1      -2.144  -3.569   1.159  0.00  0.00    +0.238 C 
ATOM      2  O   UNL     1      -2.288  -2.612   1.890  0.00  0.00    -0.273 OA
ATOM      3  N   UNL     1      -2.755  -4.736   1.449  0.00  0.00    -0.284 N 
ATOM      4  H   UNL     1      -2.695  -5.577   0.743  0.00  0.00    +0.155 HD
ENDROOT
BRANCH   3   5
ATOM      5  C   UNL     1      -3.464  -4.875   2.644  0.00  0.00    +0.033 A 
ATOM      6  C   UNL     1      -3.030  -4.215   3.789  0.00  0.00    +0.024 A 
ATOM      7  C   UNL     1      -3.730  -4.346   4.968  0.00  0.00    +0.015 A 
ATOM      8  C   UNL     1      -4.870  -5.152   5.016  0.00  0.00    +0.039 A 
ATOM      9  C   UNL     1      -5.300  -5.818   3.866  0.00  0.00    +0.015 A 
ATOM     10  C   UNL     1      -4.598  -5.678   2.689  0.00  0.00    +0.024 A 
BRANCH   8  11
ATOM     11  C   UNL     1      -5.620  -5.299   6.280  0.00  0.00    +0.249 A 
ATOM     12  N   UNL     1      -6.705  -6.017   6.461  0.00  0.00    -0.107 NA
ATOM     13  N   UNL     1      -7.084  -5.917   7.687  0.00  0.00    -0.107 NA
ATOM     14  C   UNL     1      -6.261  -5.123   8.334  0.00  0.00    +0.249 A 
ATOM     15  O   UNL     1      -5.319  -4.717   7.459  0.00  0.00    -0.416 OA
BRANCH  14  16
ATOM     16  C   UNL     1      -6.351  -4.746   9.760  0.00  0.00    +0.038 A 
ATOM     17  C   UNL     1      -5.398  -3.894  10.321  0.00  0.00    +0.013 A 
ATOM     18  C   UNL     1      -5.492  -3.541  11.651  0.00  0.00    +0.001 A 
ATOM     19  C   UNL     1      -6.520  -4.039  12.432  0.00  0.00    +0.000 A 
ATOM     20  C   UNL     1      -7.464  -4.889  11.884  0.00  0.00    +0.001 A 
ATOM     21  C   UNL     1      -7.386  -5.245  10.553  0.00  0.00    +0.013 A 
ENDBRANCH  14  16
ENDBRANCH   8  11
ENDBRANCH   3   5
BRANCH   1  22
ATOM     22  C   UNL     1      -1.282  -3.455  -0.071  0.00  0.00    +0.171 C 
BRANCH  22  23
ATOM     23  N   UNL     1      -0.736  -2.099  -0.161  0.00  0.00    -0.222 N 
ATOM     24  C   UNL     1      -1.481  -0.983  -0.250  0.00  0.00    +0.254 C 
ATOM     25  O   UNL     1      -2.695  -0.940  -0.269  0.00  0.00    -0.270 OA
ATOM     26  C   UNL     1      -0.576   0.184  -0.322  0.00  0.00    +0.049 A 
ATOM     27  C   UNL     1      -0.768   1.553  -0.421  0.00  0.00    +0.014 A 
ATOM     28  C   UNL     1       0.330   2.398  -0.467  0.00  0.00    +0.001 A 
ATOM     29  C   UNL     1       1.612   1.886  -0.415  0.00  0.00    +0.001 A 
ATOM     30  C   UNL     1       1.819   0.519  -0.314  0.00  0.00    +0.014 A 
ATOM     31  C   UNL     1       0.732  -0.339  -0.267  0.00  0.00    +0.049 A 
ATOM     32  C   UNL     1       0.577  -1.805  -0.165  0.00  0.00    +0.254 C 
ATOM     33  O   UNL     1       1.484  -2.611  -0.095  0.00  0.00    -0.270 OA
ENDBRANCH  22  23
BRANCH  22  34
ATOM     34  C   UNL     1      -2.125  -3.749  -1.314  0.00  0.00    +0.043 C 
BRANCH  34  35
ATOM     35  C   UNL     1      -1.225  -3.756  -2.551  0.00  0.00    +0.071 C 
BRANCH  35  37
ATOM     36  C   UNL     1      -1.025  -4.077  -5.385  0.00  0.00    +0.084 C 
ATOM     37  S   UNL     1      -2.224  -4.104  -4.024  0.00  0.00    -0.164 S 
ENDBRANCH  35  37
ENDBRANCH  34  35
ENDBRANCH  22  34
ENDBRANCH   1  22
TORSDOF 8
