REMARK  Name = ZINC06300868
REMARK  7 active torsions:
REMARK  status: ('A' for Active; 'I' for Inactive)
REMARK    1  A    between atoms: C_1  and  C_2
REMARK    2  A    between atoms: C_4  and  C_38
REMARK    3  A    between atoms: C_9  and  C_14
REMARK    4  A    between atoms: C_14  and  C_16
REMARK    5  A    between atoms: C_14  and  N_73
REMARK    6  A    between atoms: N_20  and  C_21
REMARK    7  A    between atoms: C_21  and  C_22
REMARK                            x       y       z     vdW  Elec       q    Type
REMARK                         _______ _______ _______ _____ _____    ______ ____
ROOT
ATOM      1  C   UNL     1      -0.426  -0.269   0.225  0.00  0.00    +0.039 C 
ENDROOT
BRANCH   1  10
ATOM      2  C   UNL     1      -1.662   6.791   2.286  0.00  0.00    +0.044 C 
ATOM      3  C   UNL     1      -1.343   5.768   1.227  0.00  0.00    -0.050 A 
ATOM      4  C   UNL     1      -1.149   6.175  -0.086  0.00  0.00    +0.008 A 
ATOM      5  C   UNL     1      -0.856   5.257  -1.071  0.00  0.00    -0.026 A 
ATOM      6  C   UNL     1      -0.753   3.908  -0.748  0.00  0.00    +0.052 A 
ATOM      7  C   UNL     1      -0.950   3.499   0.584  0.00  0.00    -0.001 A 
ATOM      8  C   UNL     1      -1.247   4.449   1.567  0.00  0.00    +0.013 A 
ATOM      9  C   UNL     1      -0.838   2.077   0.914  0.00  0.00    +0.017 A 
ATOM     10  C   UNL     1      -0.548   1.202  -0.081  0.00  0.00    +0.011 A 
ATOM     11  C   UNL     1      -0.355   1.664  -1.400  0.00  0.00    +0.251 A 
ATOM     12  O   UNL     1      -0.090   0.862  -2.278  0.00  0.00    -0.268 OA
ATOM     13  N   UNL     1      -0.461   2.968  -1.714  0.00  0.00    -0.322 N 
ATOM     14  H   UNL     1      -0.325   3.251  -2.631  0.00  0.00    +0.169 HD
ATOM     15  C   UNL     1      -0.648   5.713  -2.493  0.00  0.00    +0.046 C 
ENDBRANCH   1  10
BRANCH   1  26
ATOM     16  C   UNL     1      -2.734  -0.501  -0.468  0.00  0.00    -0.077 C 
ATOM     17  C   UNL     1      -3.661  -1.211  -1.457  0.00  0.00    -0.018 C 
ATOM     18  C   UNL     1      -3.638  -2.717  -1.181  0.00  0.00    +0.003 C 
ATOM     19  C   UNL     1      -2.198  -3.225  -1.290  0.00  0.00    -0.044 C 
ATOM     20  C   UNL     1      -1.314  -2.458  -0.305  0.00  0.00    -0.071 C 
ATOM     21  C   UNL     1      -1.687  -3.003  -2.715  0.00  0.00    +0.005 C 
ATOM     22  C   UNL     1      -2.575  -3.768  -3.699  0.00  0.00    +0.000 C 
ATOM     23  C   UNL     1      -2.534  -5.261  -3.369  0.00  0.00    +0.000 C 
ATOM     24  C   UNL     1      -3.045  -5.482  -1.944  0.00  0.00    +0.000 C 
ATOM     25  C   UNL     1      -2.158  -4.718  -0.959  0.00  0.00    +0.005 C 
ATOM     26  N   UNL     1      -1.360  -1.018  -0.640  0.00  0.00    +0.390 N 
ATOM     27  H   UNL     1      -1.079  -0.895  -1.620  0.00  0.00    -0.080 HD
ENDBRANCH   1  26
BRANCH   1  28
ATOM     28  C   UNL     1      -0.743  -0.507   1.679  0.00  0.00    +0.143 A 
ATOM     29  N   UNL     1      -1.926  -0.449   2.242  0.00  0.00    -0.115 NA
ATOM     30  N   UNL     1      -1.783  -0.715   3.495  0.00  0.00    -0.023 NA
ATOM     31  N   UNL     1      -0.541  -0.941   3.745  0.00  0.00    -0.044 NA
ATOM     32  N   UNL     1       0.132  -0.828   2.650  0.00  0.00    -0.226 N 
BRANCH  32  33
ATOM     33  C   UNL     1       1.577  -1.010   2.494  0.00  0.00    +0.182 C 
BRANCH  33  34
ATOM     34  C   UNL     1       2.285   0.275   2.833  0.00  0.00    -0.026 A 
ATOM     35  C   UNL     1       2.621   1.165   1.831  0.00  0.00    +0.005 A 
ATOM     36  C   UNL     1       3.267   2.347   2.143  0.00  0.00    +0.000 A 
ATOM     37  C   UNL     1       3.586   2.634   3.457  0.00  0.00    +0.000 A 
ATOM     38  C   UNL     1       3.255   1.742   4.459  0.00  0.00    +0.000 A 
ATOM     39  C   UNL     1       2.605   0.562   4.147  0.00  0.00    +0.005 A 
ENDBRANCH  33  34
ENDBRANCH  32  33
ENDBRANCH   1  28
TORSDOF 5
