REMARK  Name = ZINC38649930
REMARK  10 active torsions:
REMARK  status: ('A' for Active; 'I' for Inactive)
REMARK    1  A    between atoms: C_1  and  O_2
REMARK    2  A    between atoms: O_2  and  C_3
REMARK    3  A    between atoms: C_8  and  C_9
REMARK    4  A    between atoms: C_14  and  O_23
REMARK    5  A    between atoms: C_18  and  N_22
REMARK    6  A    between atoms: C_19  and  C_20
REMARK    7  A    between atoms: O_23  and  C_24
REMARK    8  A    between atoms: C_24  and  C_26
REMARK    9  A    between atoms: C_31  and  O_32
REMARK   10  A    between atoms: O_32  and  C_33
REMARK                            x       y       z     vdW  Elec       q    Type
REMARK                         _______ _______ _______ _____ _____    ______ ____
ROOT
ATOM      1  C   UNL     1       0.005  -2.788  -0.008  0.00  0.00    +0.101 C 
ATOM      2  C   UNL     1      -1.062  -3.672  -0.599  0.00  0.00    +0.008 A 
ATOM      3  C   UNL     1      -2.323  -3.153  -0.832  0.00  0.00    +0.012 A 
ATOM      4  C   UNL     1      -3.313  -3.949  -1.373  0.00  0.00    +0.047 A 
ATOM      5  C   UNL     1      -3.046  -5.275  -1.684  0.00  0.00    +0.135 A 
ATOM      6  C   UNL     1      -1.784  -5.797  -1.451  0.00  0.00    +0.093 A 
ATOM      7  C   UNL     1      -0.788  -4.995  -0.908  0.00  0.00    +0.138 A 
ATOM      8  O   UNL     1       0.441  -5.522  -0.686  0.00  0.00    -0.441 OA
ATOM      9  C   UNL     1       1.284  -4.919   0.169  0.00  0.00    +0.199 C 
ATOM     10  C   UNL     1       1.131  -3.626   0.529  0.00  0.00    +0.098 C 
ENDROOT
BRANCH   1  16
ATOM     11  C   UNL     1       0.428  -0.491  -0.920  0.00  0.00    +0.124 A 
ATOM     12  C   UNL     1       0.921   0.357  -1.901  0.00  0.00    +0.046 A 
ATOM     13  C   UNL     1       1.514  -0.170  -3.033  0.00  0.00    +0.004 A 
ATOM     14  C   UNL     1       1.615  -1.540  -3.187  0.00  0.00    +0.001 A 
ATOM     15  C   UNL     1       1.124  -2.387  -2.211  0.00  0.00    +0.008 A 
ATOM     16  C   UNL     1       0.535  -1.865  -1.075  0.00  0.00    +0.007 A 
BRANCH  11  18
ATOM     17  C   UNL     1      -0.232   1.449   0.287  0.00  0.00    +0.277 C 
ATOM     18  O   UNL     1      -0.155   0.025   0.194  0.00  0.00    -0.495 OA
ENDBRANCH  11  18
ENDBRANCH   1  16
BRANCH   9  19
ATOM     19  N   UNL     1       2.330  -5.638   0.691  0.00  0.00    -0.328 N 
ATOM     20  H   UNL     1       2.453  -6.568   0.441  0.00  0.00    +0.145 HD
ATOM     21  H   UNL     1       2.947  -5.218   1.310  0.00  0.00    +0.145 HD
ENDBRANCH   9  19
BRANCH  10  22
ATOM     22  C   UNL     1       2.065  -3.043   1.445  0.00  0.00    +0.101 C 
ATOM     23  N   UNL     1       2.806  -2.580   2.171  0.00  0.00    -0.191 NA
ENDBRANCH  10  22
BRANCH   5  24
ATOM     24  O   UNL     1      -4.020  -6.059  -2.215  0.00  0.00    -0.422 OA
BRANCH  24  25
ATOM     25  C   UNL     1      -4.428  -5.797  -3.472  0.00  0.00    +0.348 C 
ATOM     26  O   UNL     1      -3.857  -4.952  -4.133  0.00  0.00    -0.244 OA
BRANCH  25  27
ATOM     27  C   UNL     1      -5.566  -6.536  -4.047  0.00  0.00    +0.101 A 
ATOM     28  C   UNL     1      -6.230  -7.505  -3.289  0.00  0.00    +0.018 A 
ATOM     29  C   UNL     1      -7.294  -8.192  -3.832  0.00  0.00    +0.001 A 
ATOM     30  C   UNL     1      -7.709  -7.927  -5.127  0.00  0.00    +0.004 A 
ATOM     31  C   UNL     1      -7.063  -6.972  -5.887  0.00  0.00    +0.046 A 
ATOM     32  C   UNL     1      -5.994  -6.266  -5.354  0.00  0.00    +0.134 A 
BRANCH  32  33
ATOM     33  O   UNL     1      -5.362  -5.324  -6.098  0.00  0.00    -0.494 OA
ATOM     34  C   UNL     1      -5.854  -5.104  -7.421  0.00  0.00    +0.277 C 
ENDBRANCH  32  33
ENDBRANCH  25  27
ENDBRANCH  24  25
ENDBRANCH   5  24
TORSDOF 8
