REMARK  Name = ZINC08845518
REMARK  14 active torsions:
REMARK  status: ('A' for Active; 'I' for Inactive)
REMARK    1  A    between atoms: C_1  and  C_2
REMARK    2  A    between atoms: C_4  and  C_40
REMARK    3  A    between atoms: C_5  and  O_39
REMARK    4  A    between atoms: C_6  and  C_8
REMARK    5  A    between atoms: N_16  and  C_29
REMARK    6  A    between atoms: C_17  and  C_19
REMARK    7  A    between atoms: C_22  and  C_25
REMARK    8  A    between atoms: C_25  and  C_26
REMARK    9  A    between atoms: C_25  and  C_27
REMARK   10  A    between atoms: C_25  and  C_28
REMARK   11  A    between atoms: C_29  and  C_30
REMARK   12  A    between atoms: C_30  and  C_31
REMARK   13  A    between atoms: C_34  and  O_37
REMARK   14  A    between atoms: O_37  and  C_38
REMARK                            x       y       z     vdW  Elec       q    Type
REMARK                         _______ _______ _______ _____ _____    ______ ____
ROOT
ATOM      1  C   UNL     1      -0.031  -2.989   2.559  0.00  0.00    +0.075 A 
ATOM      2  C   UNL     1       1.067  -3.637   3.028  0.00  0.00    +0.035 A 
ATOM      3  C   UNL     1       0.693  -4.185   4.275  0.00  0.00    +0.153 A 
ATOM      4  N   UNL     1      -0.565  -3.848   4.480  0.00  0.00    -0.168 NA
ATOM      5  N   UNL     1      -1.009  -3.147   3.498  0.00  0.00    -0.276 N 
ATOM      6  H   UNL     1      -1.907  -2.785   3.434  0.00  0.00    +0.189 HD
ATOM      7  C   UNL     1       1.859  -4.900   4.824  0.00  0.00    +0.268 C 
ATOM      8  O   UNL     1       1.875  -5.487   5.888  0.00  0.00    -0.268 OA
ATOM      9  N   UNL     1       2.903  -4.811   3.982  0.00  0.00    -0.285 N 
ATOM     10  C   UNL     1       2.503  -4.028   2.807  0.00  0.00    +0.141 C 
ENDROOT
BRANCH   1  16
ATOM     11  C   UNL     1      -2.012  -2.525  -1.997  0.00  0.00    +0.044 C 
ATOM     12  C   UNL     1      -1.093  -2.023  -0.912  0.00  0.00    -0.049 A 
ATOM     13  C   UNL     1      -0.354  -0.871  -1.113  0.00  0.00    +0.010 A 
ATOM     14  C   UNL     1       0.491  -0.402  -0.125  0.00  0.00    -0.008 A 
ATOM     15  C   UNL     1       0.603  -1.086   1.075  0.00  0.00    +0.129 A 
ATOM     16  C   UNL     1      -0.143  -2.252   1.281  0.00  0.00    +0.042 A 
ATOM     17  C   UNL     1      -0.997  -2.712   0.279  0.00  0.00    +0.017 A 
ATOM     18  C   UNL     1       1.292   0.854  -0.353  0.00  0.00    +0.047 C 
BRANCH  15  19
ATOM     19  O   UNL     1       1.433  -0.627   2.046  0.00  0.00    -0.506 OA
ATOM     20  H   UNL     1       1.037   0.045   2.618  0.00  0.00    +0.292 HD
ENDBRANCH  15  19
ENDBRANCH   1  16
BRANCH  10  21
ATOM     21  C   UNL     1       2.625  -4.866   1.560  0.00  0.00    -0.022 A 
ATOM     22  C   UNL     1       2.127  -6.155   1.542  0.00  0.00    +0.006 A 
ATOM     23  C   UNL     1       2.239  -6.923   0.398  0.00  0.00    +0.004 A 
ATOM     24  C   UNL     1       2.849  -6.402  -0.728  0.00  0.00    -0.042 A 
ATOM     25  C   UNL     1       3.347  -5.112  -0.710  0.00  0.00    +0.004 A 
ATOM     26  C   UNL     1       3.231  -4.342   0.433  0.00  0.00    +0.006 A 
BRANCH  24  27
ATOM     27  C   UNL     1       2.973  -7.239  -1.974  0.00  0.00    -0.013 C 
ATOM     28  C   UNL     1       1.578  -7.638  -2.461  0.00  0.00    +0.015 C 
ATOM     29  C   UNL     1       3.681  -6.432  -3.064  0.00  0.00    +0.015 C 
ATOM     30  C   UNL     1       3.784  -8.499  -1.664  0.00  0.00    +0.015 C 
ENDBRANCH  24  27
ENDBRANCH  10  21
BRANCH   9  31
ATOM     31  C   UNL     1       4.226  -5.402   4.201  0.00  0.00    +0.114 C 
BRANCH  31  32
ATOM     32  C   UNL     1       4.256  -6.816   3.618  0.00  0.00    +0.054 C 
BRANCH  32  33
ATOM     33  C   UNL     1       5.617  -7.422   3.844  0.00  0.00    -0.046 A 
ATOM     34  C   UNL     1       6.613  -7.254   2.900  0.00  0.00    +0.007 A 
ATOM     35  C   UNL     1       7.861  -7.810   3.104  0.00  0.00    +0.046 A 
ATOM     36  C   UNL     1       8.115  -8.537   4.258  0.00  0.00    +0.120 A 
ATOM     37  C   UNL     1       7.114  -8.704   5.204  0.00  0.00    +0.046 A 
ATOM     38  C   UNL     1       5.870  -8.142   4.997  0.00  0.00    +0.007 A 
BRANCH  36  39
ATOM     39  O   UNL     1       9.342  -9.085   4.461  0.00  0.00    -0.495 OA
ATOM     40  C   UNL     1       9.532  -9.820   5.672  0.00  0.00    +0.277 C 
ENDBRANCH  36  39
ENDBRANCH  32  33
ENDBRANCH  31  32
ENDBRANCH   9  31
TORSDOF 8
