REMARK  Name = ZINC04837315
REMARK  7 active torsions:
REMARK  status: ('A' for Active; 'I' for Inactive)
REMARK    1  A    between atoms: C_1  and  O_2
REMARK    2  A    between atoms: O_2  and  P_3
REMARK    3  A    between atoms: P_3  and  C_5
REMARK    4  A    between atoms: P_3  and  O_28
REMARK    5  A    between atoms: C_5  and  O_27
REMARK    6  A    between atoms: C_15  and  C_17
REMARK    7  A    between atoms: O_28  and  C_29
REMARK                            x       y       z     vdW  Elec       q    Type
REMARK                         _______ _______ _______ _____ _____    ______ ____
ROOT
ATOM      1  C   UNL     1      -0.460   2.577  -3.641  0.00  0.00    +0.176 C 
ATOM      2  C   UNL     1      -1.977   2.481  -3.817  0.00  0.00    +0.045 C 
ATOM      3  C   UNL     1      -2.372   1.160  -4.457  0.00  0.00    +0.008 C 
ATOM      4  C   UNL     1      -1.851  -0.021  -3.639  0.00  0.00    +0.001 C 
ATOM      5  C   UNL     1      -0.330   0.096  -3.494  0.00  0.00    +0.011 C 
ATOM      6  C   UNL     1      -0.019   1.410  -2.761  0.00  0.00    +0.059 C 
ATOM      7  C   UNL     1      -0.800   1.401  -1.459  0.00  0.00    -0.063 C 
ATOM      8  C   UNL     1      -1.969   1.952  -1.346  0.00  0.00    -0.062 C 
ATOM      9  C   UNL     1      -2.649   2.693  -2.476  0.00  0.00    +0.051 C 
ATOM     10  C   UNL     1      -2.767   1.917  -0.057  0.00  0.00    +0.031 C 
ATOM     11  C   UNL     1      -2.252   0.840   0.890  0.00  0.00    +0.005 C 
ATOM     12  C   UNL     1      -0.736   1.027   1.022  0.00  0.00    +0.005 C 
ATOM     13  C   UNL     1      -0.111   0.675  -0.323  0.00  0.00    +0.031 C 
ENDROOT
BRANCH   9  14
ATOM     14  C   UNL     1      -4.079   2.225  -2.572  0.00  0.00    -0.040 A 
ATOM     15  C   UNL     1      -5.059   3.086  -3.029  0.00  0.00    +0.004 A 
ATOM     16  C   UNL     1      -6.369   2.655  -3.122  0.00  0.00    +0.000 A 
ATOM     17  C   UNL     1      -6.701   1.366  -2.747  0.00  0.00    +0.000 A 
ATOM     18  C   UNL     1      -5.722   0.507  -2.285  0.00  0.00    +0.000 A 
ATOM     19  C   UNL     1      -4.410   0.936  -2.197  0.00  0.00    +0.004 A 
ENDBRANCH   9  14
BRANCH   1  20
ATOM     20  P   UNL     1       0.358   2.469  -5.266  0.00  0.00    +0.364 P 
ATOM     21  O   UNL     1      -0.222   1.347  -6.037  0.00  0.00    -0.255 OA
BRANCH  20  23
ATOM     22  C   UNL     1       0.566   4.036  -7.421  0.00  0.00    +0.204 C 
ATOM     23  O   UNL     1       0.134   3.845  -6.072  0.00  0.00    -0.309 OA
ENDBRANCH  20  23
BRANCH  20  24
ATOM     24  O   UNL     1       1.935   2.220  -5.058  0.00  0.00    -0.309 OA
ATOM     25  C   UNL     1       2.836   1.986  -6.142  0.00  0.00    +0.204 C 
ENDBRANCH  20  24
ENDBRANCH   1  20
BRANCH   1  26
ATOM     26  O   UNL     1      -0.123   3.814  -3.011  0.00  0.00    -0.376 OA
ATOM     27  H   UNL     1       0.825   3.939  -2.870  0.00  0.00    +0.211 HD
ENDBRANCH   1  26
TORSDOF 5
