REMARK  Name = ZINC02375353
REMARK  7 active torsions:
REMARK  status: ('A' for Active; 'I' for Inactive)
REMARK    1  A    between atoms: C_1  and  C_2
REMARK    2  A    between atoms: C_5  and  N_9
REMARK    3  A    between atoms: C_10  and  C_12
REMARK    4  A    between atoms: C_12  and  S_13
REMARK    5  A    between atoms: S_13  and  C_14
REMARK    6  A    between atoms: N_27  and  C_28
REMARK    7  A    between atoms: C_28  and  C_29
REMARK                            x       y       z     vdW  Elec       q    Type
REMARK                         _______ _______ _______ _____ _____    ______ ____
ROOT
ATOM      1  C   UNL     1      -2.960   0.277   0.991  0.00  0.00    +0.173 A 
ATOM      2  N   UNL     1      -3.695  -0.165   1.991  0.00  0.00    -0.216 NA
ATOM      3  C   UNL     1      -3.627   0.405   3.188  0.00  0.00    +0.117 A 
ATOM      4  C   UNL     1      -2.776   1.492   3.451  0.00  0.00    +0.076 A 
ATOM      5  C   UNL     1      -2.811   2.015   4.818  0.00  0.00    -0.023 A 
ATOM      6  C   UNL     1      -3.648   1.409   5.684  0.00  0.00    -0.004 A 
ATOM      7  S   UNL     1      -4.430   0.124   4.746  0.00  0.00    -0.073 S 
ATOM      8  C   UNL     1      -3.867   1.752   7.126  0.00  0.00    +0.043 C 
ATOM      9  C   UNL     1      -2.721   2.665   7.586  0.00  0.00    +0.005 C 
ATOM     10  C   UNL     1      -2.533   3.776   6.548  0.00  0.00    +0.005 C 
ATOM     11  C   UNL     1      -1.947   3.192   5.263  0.00  0.00    +0.037 C 
ATOM     12  C   UNL     1      -1.986   1.946   2.348  0.00  0.00    +0.263 A 
ATOM     13  O   UNL     1      -1.218   2.884   2.483  0.00  0.00    -0.267 OA
ATOM     14  N   UNL     1      -2.102   1.325   1.160  0.00  0.00    -0.283 N 
ENDROOT
BRANCH   1  15
ATOM     15  S   UNL     1      -3.081  -0.500  -0.586  0.00  0.00    -0.078 S 
BRANCH  15  16
ATOM     16  C   UNL     1      -4.321  -1.767  -0.218  0.00  0.00    +0.173 C 
BRANCH  16  18
ATOM     17  N   UNL     1      -5.487  -3.586  -1.421  0.00  0.00    -0.284 N 
ATOM     18  C   UNL     1      -4.592  -2.579  -1.458  0.00  0.00    +0.228 C 
ATOM     19  O   UNL     1      -4.006  -2.327  -2.489  0.00  0.00    -0.275 OA
ATOM     20  H   UNL     1      -5.908  -3.830  -0.582  0.00  0.00    +0.155 HD
BRANCH  17  25
ATOM     21  C   UNL     1      -6.792  -6.397  -6.174  0.00  0.00    +0.044 C 
ATOM     22  C   UNL     1      -6.446  -5.651  -4.912  0.00  0.00    -0.049 A 
ATOM     23  C   UNL     1      -5.159  -5.183  -4.717  0.00  0.00    +0.005 A 
ATOM     24  C   UNL     1      -4.838  -4.499  -3.561  0.00  0.00    +0.024 A 
ATOM     25  C   UNL     1      -5.809  -4.279  -2.594  0.00  0.00    +0.047 A 
ATOM     26  C   UNL     1      -7.100  -4.755  -2.789  0.00  0.00    +0.039 A 
ATOM     27  C   UNL     1      -7.416  -5.435  -3.950  0.00  0.00    +0.020 A 
ATOM     28 BR   UNL     1      -8.425  -4.466  -1.471  0.00  0.00    -0.048 Br
ENDBRANCH  17  25
ENDBRANCH  16  18
ENDBRANCH  15  16
ENDBRANCH   1  15
BRANCH  14  29
ATOM     29  C   UNL     1      -1.297   1.786   0.026  0.00  0.00    +0.154 C 
BRANCH  29  30
ATOM     30  C   UNL     1       0.015   1.044   0.007  0.00  0.00    -0.013 C 
ATOM     31  C   UNL     1       1.143   1.709  -0.001  0.00  0.00    +0.005 C 
ENDBRANCH  29  30
ENDBRANCH  14  29
TORSDOF 6
