REMARK  Name = ZINC35913051
REMARK  8 active torsions:
REMARK  status: ('A' for Active; 'I' for Inactive)
REMARK    1  A    between atoms: C_1  and  C_2
REMARK    2  A    between atoms: C_10  and  C_13
REMARK    3  A    between atoms: C_18  and  C_23
REMARK    4  A    between atoms: C_29  and  C_41
REMARK    5  A    between atoms: C_30  and  C_31
REMARK    6  A    between atoms: C_31  and  O_33
REMARK    7  A    between atoms: O_33  and  C_34
REMARK    8  A    between atoms: C_34  and  C_35
REMARK                            x       y       z     vdW  Elec       q    Type
REMARK                         _______ _______ _______ _____ _____    ______ ____
ROOT
ATOM      1  C   UNL     1       0.088  -5.156   3.538  0.00  0.00    +0.099 C 
ATOM      2  C   UNL     1      -1.154  -4.888   4.349  0.00  0.00    +0.024 C 
ATOM      3  C   UNL     1      -1.099  -4.127   5.463  0.00  0.00    +0.016 C 
ATOM      4  C   UNL     1      -2.337  -3.857   6.282  0.00  0.00    +0.062 C 
ATOM      5  C   UNL     1      -3.566  -3.853   5.370  0.00  0.00    +0.068 C 
ATOM      6  C   UNL     1      -3.650  -5.209   4.661  0.00  0.00    +0.091 C 
ATOM      7  C   UNL     1      -2.367  -5.451   3.914  0.00  0.00    +0.162 C 
ATOM      8  O   UNL     1      -2.379  -6.144   2.916  0.00  0.00    -0.292 OA
ATOM      9  N   UNL     1       0.088  -3.585   5.876  0.00  0.00    -0.321 N 
ATOM     10  C   UNL     1       1.278  -4.099   5.440  0.00  0.00    +0.016 C 
ATOM     11  C   UNL     1       1.325  -4.857   4.332  0.00  0.00    +0.065 C 
ATOM     12  C   UNL     1       2.543  -3.813   6.207  0.00  0.00    +0.061 C 
ATOM     13  H   UNL     1       0.086  -2.828   6.483  0.00  0.00    +0.152 HD
ENDROOT
BRANCH   1  23
ATOM     14  C   UNL     1      -0.018   1.503   0.010  0.00  0.00    +0.044 C 
ATOM     15  C   UNL     1       0.002  -0.004   0.002  0.00  0.00    -0.050 A 
ATOM     16  C   UNL     1       0.006  -0.688  -1.205  0.00  0.00    +0.007 A 
ATOM     17  C   UNL     1       0.024  -2.066  -1.234  0.00  0.00    +0.047 A 
ATOM     18  C   UNL     1       0.039  -2.784  -0.043  0.00  0.00    +0.138 A 
ATOM     19  C   UNL     1       0.036  -2.090   1.178  0.00  0.00    +0.064 A 
ATOM     20  C   UNL     1       0.023  -0.696   1.193  0.00  0.00    +0.018 A 
ATOM     21  C   UNL     1       0.052  -2.874   2.428  0.00  0.00    +0.197 A 
ATOM     22  O   UNL     1       0.050  -2.331   3.519  0.00  0.00    -0.287 OA
ATOM     23  C   UNL     1       0.070  -4.289   2.305  0.00  0.00    +0.047 A 
ATOM     24  C   UNL     1       0.072  -4.850   1.083  0.00  0.00    +0.204 A 
ATOM     25  O   UNL     1       0.057  -4.132  -0.045  0.00  0.00    -0.462 OA
ENDBRANCH   1  23
BRANCH   5  26
ATOM     26  C   UNL     1      -4.808  -3.629   6.194  0.00  0.00    +0.109 A 
ATOM     27  C   UNL     1      -5.673  -2.609   6.051  0.00  0.00    +0.045 A 
ATOM     28  C   UNL     1      -6.683  -2.791   7.024  0.00  0.00    +0.041 A 
ATOM     29  C   UNL     1      -6.375  -3.911   7.702  0.00  0.00    +0.195 A 
ATOM     30  O   UNL     1      -5.241  -4.418   7.191  0.00  0.00    -0.468 OA
ENDBRANCH   5  26
BRANCH  11  31
ATOM     31  C   UNL     1       2.567  -5.385   3.908  0.00  0.00    +0.338 C 
ATOM     32  O   UNL     1       3.578  -5.149   4.544  0.00  0.00    -0.245 OA
BRANCH  31  33
ATOM     33  O   UNL     1       2.631  -6.149   2.797  0.00  0.00    -0.459 OA
BRANCH  33  34
ATOM     34  C   UNL     1       3.918  -6.648   2.427  0.00  0.00    +0.264 C 
BRANCH  34  35
ATOM     35  C   UNL     1       3.793  -7.486   1.153  0.00  0.00    +0.156 C 
ATOM     36  C   UNL     1       5.155  -8.129   0.813  0.00  0.00    +0.037 C 
ATOM     37  C   UNL     1       5.198  -8.008  -0.735  0.00  0.00    +0.031 C 
ATOM     38  C   UNL     1       4.455  -6.665  -0.947  0.00  0.00    +0.160 C 
ATOM     39  O   UNL     1       3.421  -6.646   0.054  0.00  0.00    -0.373 OA
ENDBRANCH  34  35
ENDBRANCH  33  34
ENDBRANCH  31  33
ENDBRANCH  11  31
TORSDOF 6
