REMARK  Name = ZINC25575392
REMARK  4 active torsions:
REMARK  status: ('A' for Active; 'I' for Inactive)
REMARK    1  A    between atoms: C_1  and  O_2
REMARK    2  A    between atoms: O_2  and  C_3
REMARK    3  A    between atoms: C_6  and  C_9
REMARK    4  A    between atoms: C_27  and  C_29
REMARK                            x       y       z     vdW  Elec       q    Type
REMARK                         _______ _______ _______ _____ _____    ______ ____
ROOT
ATOM      1  C   UNL     1      -4.981  -2.629   0.035  0.00  0.00    +0.234 C 
ATOM      2  C   UNL     1      -5.357  -2.963   1.449  0.00  0.00    +0.027 C 
ATOM      3  C   UNL     1      -4.989  -4.138   2.000  0.00  0.00    +0.083 C 
ATOM      4  C   UNL     1      -4.214  -5.078   1.150  0.00  0.00    +0.045 A 
ATOM      5  C   UNL     1      -3.518  -6.146   1.700  0.00  0.00    +0.052 A 
ATOM      6  C   UNL     1      -2.808  -6.997   0.872  0.00  0.00    +0.124 A 
ATOM      7  C   UNL     1      -2.793  -6.784  -0.498  0.00  0.00    +0.042 A 
ATOM      8  C   UNL     1      -3.485  -5.723  -1.051  0.00  0.00    +0.049 A 
ATOM      9  C   UNL     1      -4.200  -4.865  -0.234  0.00  0.00    +0.131 A 
ATOM     10  O   UNL     1      -4.893  -3.821  -0.748  0.00  0.00    -0.479 OA
ATOM     11  F   UNL     1      -2.127  -8.038   1.399  0.00  0.00    -0.205 F 
ATOM     12  N   UNL     1      -5.312  -4.454   3.277  0.00  0.00    -0.213 NA
ATOM     13  C   UNL     1      -6.001  -3.678   4.081  0.00  0.00    +0.237 C 
ATOM     14  N   UNL     1      -6.407  -3.836   5.360  0.00  0.00    -0.205 NA
ATOM     15  C   UNL     1      -7.079  -2.790   5.756  0.00  0.00    +0.203 C 
ATOM     16  N   UNL     1      -7.146  -1.883   4.742  0.00  0.00    -0.251 N 
ATOM     17  N   UNL     1      -6.457  -2.443   3.664  0.00  0.00    -0.208 N 
ATOM     18  C   UNL     1      -6.156  -1.999   2.298  0.00  0.00    +0.159 C 
ATOM     19  H   UNL     1      -7.587  -1.019   4.764  0.00  0.00    +0.171 HD
ENDROOT
BRANCH  18  20
ATOM     20  C   UNL     1      -7.460  -1.723   1.595  0.00  0.00    -0.021 A 
ATOM     21  C   UNL     1      -8.500  -2.630   1.688  0.00  0.00    +0.007 A 
ATOM     22  C   UNL     1      -9.697  -2.377   1.044  0.00  0.00    +0.015 A 
ATOM     23  C   UNL     1      -9.854  -1.218   0.306  0.00  0.00    +0.018 A 
ATOM     24  C   UNL     1      -8.813  -0.311   0.214  0.00  0.00    +0.015 A 
ATOM     25  C   UNL     1      -7.619  -0.561   0.863  0.00  0.00    +0.007 A 
ATOM     26 BR   UNL     1     -11.491  -0.872  -0.575  0.00  0.00    -0.050 Br
ENDBRANCH  18  20
BRANCH   1  30
ATOM     27  C   UNL     1      -1.200  -0.637   0.010  0.00  0.00    +0.120 A 
ATOM     28  C   UNL     1      -2.375   0.101   0.019  0.00  0.00    +0.046 A 
ATOM     29  C   UNL     1      -3.596  -0.545   0.027  0.00  0.00    +0.011 A 
ATOM     30  C   UNL     1      -3.648  -1.927   0.026  0.00  0.00    -0.003 A 
ATOM     31  C   UNL     1      -2.479  -2.665   0.017  0.00  0.00    +0.011 A 
ATOM     32  C   UNL     1      -1.255  -2.024   0.003  0.00  0.00    +0.046 A 
BRANCH  27  34
ATOM     33  C   UNL     1      -0.017   1.425   0.010  0.00  0.00    +0.277 C 
ATOM     34  O   UNL     1       0.002  -0.004   0.002  0.00  0.00    -0.495 OA
ENDBRANCH  27  34
ENDBRANCH   1  30
TORSDOF 3
