REMARK  Name = ZINC02204041
REMARK  6 active torsions:
REMARK  status: ('A' for Active; 'I' for Inactive)
REMARK    1  A    between atoms: C_5  and  C_7
REMARK    2  A    between atoms: C_7  and  O_8
REMARK    3  A    between atoms: O_8  and  C_9
REMARK    4  A    between atoms: C_12  and  C_15
REMARK    5  A    between atoms: C_29  and  N_33
REMARK    6  A    between atoms: C_30  and  C_31
REMARK                            x       y       z     vdW  Elec       q    Type
REMARK                         _______ _______ _______ _____ _____    ______ ____
ROOT
ATOM      1  C   UNL     1       3.542   6.168  -0.002  0.00  0.00    +0.105 C 
ATOM      2  C   UNL     1       2.302   5.316   0.006  0.00  0.00    +0.092 A 
ATOM      3  C   UNL     1       2.394   3.955  -0.001  0.00  0.00    +0.152 A 
ATOM      4  C   UNL     1       1.148   3.173   0.008  0.00  0.00    +0.060 A 
ATOM      5  C   UNL     1       1.173   1.777   0.000  0.00  0.00    +0.015 A 
ATOM      6  C   UNL     1      -0.013   1.076   0.008  0.00  0.00    +0.001 A 
ATOM      7  C   UNL     1      -1.225   1.750   0.017  0.00  0.00    +0.004 A 
ATOM      8  C   UNL     1      -1.264   3.128   0.031  0.00  0.00    +0.047 A 
ATOM      9  C   UNL     1      -0.080   3.855   0.023  0.00  0.00    +0.143 A 
ATOM     10  O   UNL     1      -0.098   5.205   0.029  0.00  0.00    -0.422 OA
ATOM     11  C   UNL     1       1.035   5.925   0.020  0.00  0.00    +0.345 A 
ATOM     12  O   UNL     1       0.964   7.142   0.024  0.00  0.00    -0.245 OA
ATOM     13  O   UNL     1       3.586   3.330  -0.014  0.00  0.00    -0.440 OA
ATOM     14  C   UNL     1       4.689   3.994  -0.401  0.00  0.00    +0.199 C 
ATOM     15  C   UNL     1       4.732   5.348  -0.418  0.00  0.00    +0.098 C 
ENDROOT
BRANCH   1  19
ATOM     16  C   UNL     1       4.204   7.740   3.916  0.00  0.00    +0.121 A 
ATOM     17  C   UNL     1       4.014   8.601   2.844  0.00  0.00    +0.046 A 
ATOM     18  C   UNL     1       3.800   8.090   1.579  0.00  0.00    +0.008 A 
ATOM     19  C   UNL     1       3.776   6.722   1.379  0.00  0.00    -0.034 A 
ATOM     20  C   UNL     1       3.959   5.862   2.446  0.00  0.00    +0.008 A 
ATOM     21  C   UNL     1       4.180   6.368   3.713  0.00  0.00    +0.046 A 
BRANCH  16  22
ATOM     22  O   UNL     1       4.414   8.240   5.162  0.00  0.00    -0.487 OA
BRANCH  22  23
ATOM     23  C   UNL     1       4.602   7.295   6.217  0.00  0.00    +0.266 C 
BRANCH  23  28
ATOM     24  C   UNL     1       5.013  10.083   8.729  0.00  0.00    +0.000 A 
ATOM     25  C   UNL     1       5.219   9.374   9.898  0.00  0.00    +0.001 A 
ATOM     26  C   UNL     1       5.225   7.993   9.877  0.00  0.00    +0.020 A 
ATOM     27  C   UNL     1       5.025   7.319   8.685  0.00  0.00    +0.047 A 
ATOM     28  C   UNL     1       4.819   8.028   7.515  0.00  0.00    +0.008 A 
ATOM     29  C   UNL     1       4.819   9.411   7.537  0.00  0.00    +0.008 A 
ATOM     30 CL   UNL     1       5.034   5.583   8.657  0.00  0.00    -0.083 Cl
ENDBRANCH  23  28
ENDBRANCH  22  23
ENDBRANCH  16  22
ENDBRANCH   1  19
BRANCH  14  31
ATOM     31  N   UNL     1       5.799   3.284  -0.787  0.00  0.00    -0.328 N 
ATOM     32  H   UNL     1       6.601   3.752  -1.068  0.00  0.00    +0.145 HD
ATOM     33  H   UNL     1       5.781   2.314  -0.779  0.00  0.00    +0.145 HD
ENDBRANCH  14  31
BRANCH  15  34
ATOM     34  C   UNL     1       5.931   6.010  -0.839  0.00  0.00    +0.101 C 
ATOM     35  N   UNL     1       6.881   6.535  -1.172  0.00  0.00    -0.191 NA
ENDBRANCH  15  34
TORSDOF 6
