REMARK  Name = ZINC40457172
REMARK  11 active torsions:
REMARK  status: ('A' for Active; 'I' for Inactive)
REMARK    1  A    between atoms: C_1  and  C_2
REMARK    2  A    between atoms: C_2  and  O_4
REMARK    3  A    between atoms: O_4  and  C_5
REMARK    4  A    between atoms: C_10  and  C_41
REMARK    5  A    between atoms: C_13  and  O_19
REMARK    6  A    between atoms: C_15  and  C_16
REMARK    7  A    between atoms: C_15  and  C_17
REMARK    8  A    between atoms: C_17  and  O_18
REMARK    9  A    between atoms: C_22  and  C_40
REMARK   10  A    between atoms: C_26  and  C_34
REMARK   11  A    between atoms: C_31  and  O_33
REMARK                            x       y       z     vdW  Elec       q    Type
REMARK                         _______ _______ _______ _____ _____    ______ ____
ROOT
ATOM      1  C   UNL     1      -1.026  -2.066  -0.052  0.00  0.00    +0.220 C 
ATOM      2  C   UNL     1      -1.013  -2.566   1.377  0.00  0.00    +0.053 C 
ATOM      3  C   UNL     1      -1.282  -4.052   1.550  0.00  0.00    +0.010 C 
ATOM      4  C   UNL     1      -2.542  -4.465   0.796  0.00  0.00    -0.019 C 
ATOM      5  C   UNL     1      -2.775  -5.976   0.905  0.00  0.00    +0.010 C 
ATOM      6  C   UNL     1      -1.531  -6.741   0.466  0.00  0.00    +0.032 C 
ATOM      7  C   UNL     1      -0.387  -6.411   1.419  0.00  0.00    +0.123 C 
ATOM      8  C   UNL     1      -0.058  -4.916   1.365  0.00  0.00    +0.020 C 
ATOM      9  C   UNL     1       0.703  -4.628   0.071  0.00  0.00    +0.016 C 
ATOM     10  C   UNL     1      -2.474  -4.051  -0.656  0.00  0.00    +0.076 C 
ATOM     11  C   UNL     1      -2.191  -2.577  -0.892  0.00  0.00    +0.150 C 
ATOM     12  O   UNL     1      -1.784  -2.462  -2.279  0.00  0.00    -0.481 OA
ATOM     13  C   UNL     1      -2.613  -2.995  -3.202  0.00  0.00    +0.137 A 
ATOM     14  C   UNL     1      -2.560  -2.516  -4.529  0.00  0.00    +0.093 A 
ATOM     15  C   UNL     1      -3.384  -3.049  -5.468  0.00  0.00    +0.144 A 
ATOM     16  O   UNL     1      -4.250  -4.031  -5.170  0.00  0.00    -0.422 OA
ATOM     17  C   UNL     1      -4.336  -4.499  -3.915  0.00  0.00    +0.346 A 
ATOM     18  O   UNL     1      -5.139  -5.382  -3.660  0.00  0.00    -0.245 OA
ATOM     19  C   UNL     1      -3.520  -3.989  -2.899  0.00  0.00    +0.107 A 
ATOM     20  C   UNL     1      -3.653  -4.529  -1.494  0.00  0.00    +0.163 C 
ATOM     21  C   UNL     1      -3.405  -1.670  -0.704  0.00  0.00    +0.060 C 
ATOM     22  C   UNL     1      -3.731  -3.809   1.530  0.00  0.00    +0.012 C 
ENDROOT
BRANCH  15  23
ATOM     23  C   UNL     1      -3.327  -2.535  -6.851  0.00  0.00    +0.036 A 
ATOM     24  C   UNL     1      -4.168  -3.060  -7.842  0.00  0.00    +0.014 A 
ATOM     25  C   UNL     1      -4.075  -2.543  -9.121  0.00  0.00    +0.020 A 
ATOM     26  C   UNL     1      -3.164  -1.534  -9.380  0.00  0.00    +0.111 A 
ATOM     27  N   UNL     1      -2.385  -1.059  -8.428  0.00  0.00    -0.263 NA
ATOM     28  C   UNL     1      -2.439  -1.514  -7.193  0.00  0.00    +0.122 A 
ENDBRANCH  15  23
BRANCH   7  29
ATOM     29  O   UNL     1      -0.748  -6.770   2.755  0.00  0.00    -0.391 OA
ATOM     30  H   UNL     1      -0.949  -7.709   2.869  0.00  0.00    +0.210 HD
ENDBRANCH   7  29
BRANCH  20  31
ATOM     31  O   UNL     1      -4.916  -4.146  -0.967  0.00  0.00    -0.386 OA
ATOM     32  H   UNL     1      -5.670  -4.447  -1.494  0.00  0.00    +0.210 HD
ENDBRANCH  20  31
BRANCH   1  33
ATOM     33  O   UNL     1      -1.102  -0.625  -0.025  0.00  0.00    -0.457 OA
BRANCH  33  35
ATOM     34  C   UNL     1       0.059   1.553   0.052  0.00  0.00    +0.136 C 
ATOM     35  C   UNL     1       0.059   0.046   0.022  0.00  0.00    +0.304 C 
ATOM     36  O   UNL     1       1.106  -0.558   0.039  0.00  0.00    -0.251 OA
ENDBRANCH  33  35
ENDBRANCH   1  33
BRANCH   8  37
ATOM     37  C   UNL     1       0.914  -4.641   2.537  0.00  0.00    +0.165 C 
BRANCH  37  38
ATOM     38  O   UNL     1       2.084  -5.449   2.385  0.00  0.00    -0.394 OA
ATOM     39  H   UNL     1       2.739  -5.329   3.086  0.00  0.00    +0.209 HD
ENDBRANCH  37  38
ENDBRANCH   8  37
TORSDOF 7
