REMARK  Name = ZINC16668935
REMARK  10 active torsions:
REMARK  status: ('A' for Active; 'I' for Inactive)
REMARK    1  A    between atoms: C_1  and  C_2
REMARK    2  A    between atoms: C_2  and  C_3
REMARK    3  A    between atoms: C_3  and  C_4
REMARK    4  A    between atoms: C_4  and  C_5
REMARK    5  A    between atoms: C_5  and  N_6
REMARK    6  A    between atoms: C_19  and  S_20
REMARK    7  A    between atoms: S_20  and  C_21
REMARK    8  A    between atoms: C_21  and  C_22
REMARK    9  A    between atoms: C_22  and  C_24
REMARK   10  A    between atoms: C_26  and  C_30
REMARK                            x       y       z     vdW  Elec       q    Type
REMARK                         _______ _______ _______ _____ _____    ______ ____
ROOT
ATOM      1  N   UNL     1      -6.738  -5.043   0.008  0.00  0.00    -0.277 N 
ATOM      2  C   UNL     1      -8.037  -4.679   0.015  0.00  0.00    +0.263 A 
ATOM      3  O   UNL     1      -8.915  -5.521   0.016  0.00  0.00    -0.267 OA
ATOM      4  C   UNL     1      -8.374  -3.244   0.023  0.00  0.00    +0.064 A 
ATOM      5  C   UNL     1      -9.699  -2.812   0.031  0.00  0.00    +0.015 A 
ATOM      6  C   UNL     1      -9.975  -1.461   0.039  0.00  0.00    +0.001 A 
ATOM      7  C   UNL     1      -8.943  -0.535   0.038  0.00  0.00    +0.002 A 
ATOM      8  C   UNL     1      -7.626  -0.951   0.030  0.00  0.00    +0.027 A 
ATOM      9  C   UNL     1      -7.331  -2.306   0.023  0.00  0.00    +0.064 A 
ATOM     10  N   UNL     1      -6.011  -2.752   0.021  0.00  0.00    -0.256 N 
ATOM     11  C   UNL     1      -5.729  -4.091   0.008  0.00  0.00    +0.240 A 
ATOM     12  N   UNL     1      -4.422  -4.227   0.002  0.00  0.00    -0.109 NA
ATOM     13  N   UNL     1      -3.852  -2.949   0.005  0.00  0.00    -0.120 NA
ATOM     14  C   UNL     1      -4.824  -2.070   0.013  0.00  0.00    +0.198 A 
ENDROOT
BRANCH   1  15
ATOM     15  C   UNL     1      -6.388  -6.465   0.001  0.00  0.00    +0.128 C 
BRANCH  15  16
ATOM     16  C   UNL     1      -6.260  -6.966   1.440  0.00  0.00    +0.022 C 
BRANCH  16  17
ATOM     17  C   UNL     1      -5.893  -8.452   1.433  0.00  0.00    +0.001 C 
BRANCH  17  19
ATOM     18  C   UNL     1      -5.399 -10.439   2.865  0.00  0.00    +0.004 C 
ATOM     19  C   UNL     1      -5.765  -8.953   2.873  0.00  0.00    -0.003 C 
ENDBRANCH  17  19
ENDBRANCH  16  17
ENDBRANCH  15  16
ENDBRANCH   1  15
BRANCH  14  20
ATOM     20  S   UNL     1      -4.637  -0.318   0.021  0.00  0.00    -0.078 S 
BRANCH  20  21
ATOM     21  C   UNL     1      -2.840  -0.068   0.015  0.00  0.00    +0.157 C 
BRANCH  21  22
ATOM     22  C   UNL     1      -2.538   1.408   0.021  0.00  0.00    +0.175 C 
ATOM     23  O   UNL     1      -3.446   2.213   0.028  0.00  0.00    -0.291 OA
BRANCH  22  24
ATOM     24  C   UNL     1      -1.147   1.872   0.017  0.00  0.00    +0.036 A 
ATOM     25  C   UNL     1      -0.708   3.218   0.025  0.00  0.00    +0.043 A 
ATOM     26  C   UNL     1       0.654   3.192   0.012  0.00  0.00    +0.103 A 
ATOM     27  N   UNL     1       1.064   1.875   0.002  0.00  0.00    -0.356 N 
ATOM     28  H   UNL     1       1.986   1.575  -0.008  0.00  0.00    +0.165 HD
ATOM     29  C   UNL     1      -0.013   1.076   0.008  0.00  0.00    +0.094 A 
BRANCH  26  30
ATOM     30  C   UNL     1       1.536   4.366   0.010  0.00  0.00    +0.263 C 
ATOM     31  O   UNL     1       1.058   5.485   0.019  0.00  0.00    -0.268 OA
ATOM     32  N   UNL     1       2.874   4.204  -0.003  0.00  0.00    -0.296 N 
ATOM     33  C   UNL     1       3.581   2.915  -0.009  0.00  0.00    +0.108 C 
ATOM     34  C   UNL     1       5.093   3.222   0.002  0.00  0.00    +0.020 C 
ATOM     35  C   UNL     1       5.151   4.655   0.592  0.00  0.00    +0.020 C 
ATOM     36  C   UNL     1       3.871   5.290  -0.007  0.00  0.00    +0.108 C 
ENDBRANCH  26  30
ENDBRANCH  22  24
ENDBRANCH  21  22
ENDBRANCH  20  21
ENDBRANCH  14  20
TORSDOF 9
