REMARK  Name = ZINC40049023
REMARK  18 active torsions:
REMARK  status: ('A' for Active; 'I' for Inactive)
REMARK    1  A    between atoms: C_1  and  C_2
REMARK    2  A    between atoms: C_2  and  C_3
REMARK    3  A    between atoms: C_3  and  O_4
REMARK    4  A    between atoms: O_4  and  C_5
REMARK    5  A    between atoms: C_8  and  C_12
REMARK    6  A    between atoms: C_10  and  C_11
REMARK    7  A    between atoms: C_12  and  C_14
REMARK    8  A    between atoms: N_18  and  C_34
REMARK    9  A    between atoms: C_19  and  C_21
REMARK   10  A    between atoms: C_24  and  O_30
REMARK   11  A    between atoms: C_25  and  O_27
REMARK   12  A    between atoms: O_27  and  C_28
REMARK   13  A    between atoms: C_28  and  C_29
REMARK   14  A    between atoms: O_30  and  C_31
REMARK   15  A    between atoms: C_31  and  C_32
REMARK   16  A    between atoms: C_34  and  C_35
REMARK   17  A    between atoms: C_35  and  C_36
REMARK   18  A    between atoms: C_36  and  O_37
REMARK                            x       y       z     vdW  Elec       q    Type
REMARK                         _______ _______ _______ _____ _____    ______ ____
ROOT
ATOM      1  C   UNL     1       3.837  -3.860  -6.772  0.00  0.00    +0.076 C 
ATOM      2  C   UNL     1       4.373  -4.213  -7.963  0.00  0.00    +0.249 C 
ATOM      3  C   UNL     1       4.856  -3.000  -8.657  0.00  0.00    +0.288 C 
ATOM      4  O   UNL     1       5.388  -2.987  -9.749  0.00  0.00    -0.266 OA
ATOM      5  N   UNL     1       4.619  -1.913  -7.899  0.00  0.00    -0.283 N 
ATOM      6  C   UNL     1       3.959  -2.358  -6.666  0.00  0.00    +0.145 C 
ATOM      7  O   UNL     1       4.454  -5.475  -8.444  0.00  0.00    -0.282 OA
ENDROOT
BRANCH   6   8
ATOM      8  C   UNL     1       4.800  -1.990  -5.471  0.00  0.00    -0.019 A 
ATOM      9  C   UNL     1       6.179  -2.016  -5.563  0.00  0.00    +0.009 A 
ATOM     10  C   UNL     1       6.954  -1.679  -4.469  0.00  0.00    +0.050 A 
ATOM     11  C   UNL     1       6.349  -1.313  -3.277  0.00  0.00    +0.162 A 
ATOM     12  C   UNL     1       4.961  -1.286  -3.185  0.00  0.00    +0.162 A 
ATOM     13  C   UNL     1       4.190  -1.620  -4.287  0.00  0.00    +0.055 A 
BRANCH  12  14
ATOM     14  O   UNL     1       4.363  -0.927  -2.018  0.00  0.00    -0.489 OA
BRANCH  14  15
ATOM     15  C   UNL     1       2.938  -1.020  -1.964  0.00  0.00    +0.226 C 
ATOM     16  C   UNL     1       2.442  -0.478  -0.622  0.00  0.00    +0.048 C 
ENDBRANCH  14  15
ENDBRANCH  12  14
BRANCH  11  17
ATOM     17  O   UNL     1       7.111  -0.982  -2.200  0.00  0.00    -0.484 OA
BRANCH  17  18
ATOM     18  C   UNL     1       8.529  -1.033  -2.368  0.00  0.00    +0.256 C 
BRANCH  18  19
ATOM     19  C   UNL     1       9.202  -0.636  -1.079  0.00  0.00    +0.006 C 
ATOM     20  C   UNL     1      10.212  -1.335  -0.626  0.00  0.00    +0.007 C 
ENDBRANCH  18  19
ENDBRANCH  17  18
ENDBRANCH  11  17
ENDBRANCH   6   8
BRANCH   1  21
ATOM     21  C   UNL     1       3.245  -4.761  -5.778  0.00  0.00    +0.195 C 
ATOM     22  O   UNL     1       3.945  -5.571  -5.198  0.00  0.00    -0.287 OA
BRANCH  21  26
ATOM     23  C   UNL     1      -0.910  -4.548  -4.925  0.00  0.00    +0.123 A 
ATOM     24  C   UNL     1      -0.373  -3.782  -5.954  0.00  0.00    +0.046 A 
ATOM     25  C   UNL     1       0.973  -3.848  -6.234  0.00  0.00    +0.015 A 
ATOM     26  C   UNL     1       1.801  -4.687  -5.481  0.00  0.00    +0.023 A 
ATOM     27  C   UNL     1       1.257  -5.455  -4.447  0.00  0.00    +0.018 A 
ATOM     28  C   UNL     1      -0.089  -5.379  -4.170  0.00  0.00    -0.008 A 
ATOM     29  C   UNL     1      -0.675  -6.202  -3.053  0.00  0.00    +0.047 C 
BRANCH  23  30
ATOM     30  O   UNL     1      -2.237  -4.480  -4.652  0.00  0.00    -0.492 OA
BRANCH  30  31
ATOM     31  C   UNL     1      -3.001  -3.518  -5.382  0.00  0.00    +0.229 C 
BRANCH  31  33
ATOM     32  C   UNL     1      -5.286  -2.565  -5.719  0.00  0.00    +0.007 C 
ATOM     33  C   UNL     1      -4.438  -3.503  -4.858  0.00  0.00    +0.038 C 
ENDBRANCH  31  33
ENDBRANCH  30  31
ENDBRANCH  23  30
ENDBRANCH  21  26
ENDBRANCH   1  21
BRANCH   5  34
ATOM     34  C   UNL     1       4.955  -0.531  -8.247  0.00  0.00    +0.111 C 
BRANCH  34  35
ATOM     35  C   UNL     1       3.782   0.107  -8.994  0.00  0.00    +0.047 C 
BRANCH  35  36
ATOM     36  C   UNL     1       4.133   1.551  -9.358  0.00  0.00    +0.157 C 
BRANCH  36  37
ATOM     37  O   UNL     1       3.037   2.146 -10.055  0.00  0.00    -0.395 OA
ATOM     38  H   UNL     1       3.190   3.065 -10.317  0.00  0.00    +0.209 HD
ENDBRANCH  36  37
ENDBRANCH  35  36
ENDBRANCH  34  35
ENDBRANCH   5  34
TORSDOF 15
