REMARK  Name = ZINC63514220
REMARK  9 active torsions:
REMARK  status: ('A' for Active; 'I' for Inactive)
REMARK    1  A    between atoms: C_1  and  C_2
REMARK    2  A    between atoms: C_4  and  C_14
REMARK    3  A    between atoms: C_7  and  O_12
REMARK    4  A    between atoms: O_12  and  C_13
REMARK    5  A    between atoms: C_14  and  C_15
REMARK    6  A    between atoms: C_15  and  N_16
REMARK    7  A    between atoms: C_17  and  C_19
REMARK    8  A    between atoms: C_26  and  O_31
REMARK    9  A    between atoms: O_31  and  C_32
REMARK                            x       y       z     vdW  Elec       q    Type
REMARK                         _______ _______ _______ _____ _____    ______ ____
ROOT
ATOM      1  N   UNL     1       0.997  -0.729  -4.977  0.00  0.00    -0.314 N 
ATOM      2  C   UNL     1       1.750  -1.249  -5.967  0.00  0.00    +0.227 C 
ATOM      3  O   UNL     1       2.731  -1.910  -5.699  0.00  0.00    -0.275 OA
ATOM      4  H   UNL     1       0.212  -0.201  -5.192  0.00  0.00    +0.149 HD
ENDROOT
BRANCH   2   5
ATOM      5  C   UNL     1       1.373  -1.009  -7.406  0.00  0.00    +0.188 C 
ATOM      6  C   UNL     1       2.368  -1.720  -8.329  0.00  0.00    +0.063 C 
ATOM      7  C   UNL     1       1.790  -1.828  -9.718  0.00  0.00    -0.000 A 
ATOM      8  C   UNL     1       2.658  -2.038 -10.780  0.00  0.00    +0.007 A 
ATOM      9  C   UNL     1       2.174  -2.150 -12.068  0.00  0.00    +0.004 A 
ATOM     10  C   UNL     1       0.816  -2.055 -12.308  0.00  0.00    +0.049 A 
ATOM     11  C   UNL     1      -0.057  -1.844 -11.255  0.00  0.00    +0.162 A 
ATOM     12  C   UNL     1       0.432  -1.726  -9.953  0.00  0.00    +0.176 A 
ATOM     13  O   UNL     1      -0.456  -1.498  -8.947  0.00  0.00    -0.421 OA
ATOM     14  C   UNL     1      -0.001  -1.587  -7.681  0.00  0.00    +0.325 C 
ATOM     15  O   UNL     1      -0.657  -2.103  -6.808  0.00  0.00    -0.250 OA
BRANCH  11  16
ATOM     16  O   UNL     1      -1.393  -1.751 -11.489  0.00  0.00    -0.491 OA
ATOM     17  C   UNL     1      -1.825  -1.881 -12.845  0.00  0.00    +0.277 C 
ENDBRANCH  11  16
ENDBRANCH   2   5
BRANCH   1  18
ATOM     18  C   UNL     1       1.363  -0.963  -3.578  0.00  0.00    +0.108 C 
BRANCH  18  19
ATOM     19  C   UNL     1       0.352  -0.269  -2.664  0.00  0.00    +0.052 C 
BRANCH  19  22
ATOM     20  C   UNL     1      -0.019   1.526   0.010  0.00  0.00    +0.035 C 
ATOM     21  C   UNL     1       0.002  -0.004   0.002  0.00  0.00    +0.103 C 
ATOM     22  C   UNL     1       0.729  -0.509  -1.224  0.00  0.00    -0.037 C 
ATOM     23  C   UNL     1       1.785  -1.220  -0.768  0.00  0.00    +0.003 A 
ATOM     24  C   UNL     1       2.858  -1.954  -1.447  0.00  0.00    +0.055 A 
ATOM     25  C   UNL     1       3.803  -2.586  -0.711  0.00  0.00    +0.121 A 
ATOM     26  C   UNL     1       3.796  -2.567   0.695  0.00  0.00    +0.047 A 
ATOM     27  C   UNL     1       2.851  -1.919   1.409  0.00  0.00    +0.029 A 
ATOM     28  C   UNL     1       1.779  -1.200   0.713  0.00  0.00    +0.043 A 
ATOM     29  N   UNL     1       0.758  -0.506   1.155  0.00  0.00    -0.378 N 
ATOM     30  H   UNL     1       0.540  -0.349   2.087  0.00  0.00    +0.160 HD
BRANCH  25  31
ATOM     31  O   UNL     1       4.792  -3.263  -1.353  0.00  0.00    -0.495 OA
ATOM     32  C   UNL     1       5.767  -3.915  -0.537  0.00  0.00    +0.277 C 
ENDBRANCH  25  31
ENDBRANCH  19  22
ENDBRANCH  18  19
ENDBRANCH   1  18
TORSDOF 6
