REMARK  Name = ZINC03665865
REMARK  9 active torsions:
REMARK  status: ('A' for Active; 'I' for Inactive)
REMARK    1  A    between atoms: C_1  and  C_2
REMARK    2  A    between atoms: C_5  and  N_9
REMARK    3  A    between atoms: C_7  and  C_8
REMARK    4  A    between atoms: C_19  and  C_20
REMARK    5  A    between atoms: C_19  and  O_32
REMARK    6  A    between atoms: N_22  and  C_23
REMARK    7  A    between atoms: C_23  and  C_24
REMARK    8  A    between atoms: C_27  and  O_30
REMARK    9  A    between atoms: O_30  and  C_31
REMARK                            x       y       z     vdW  Elec       q    Type
REMARK                         _______ _______ _______ _____ _____    ______ ____
ROOT
ATOM      1  N   UNL     1      -0.958   3.190   3.629  0.00  0.00    -0.214 N 
ATOM      2  C   UNL     1      -2.092   3.779   4.051  0.00  0.00    +0.314 C 
ATOM      3  O   UNL     1      -2.055   4.955   4.358  0.00  0.00    -0.252 OA
ATOM      4  N   UNL     1      -3.259   3.130   4.149  0.00  0.00    -0.269 N 
ATOM      5  C   UNL     1      -3.408   1.782   3.821  0.00  0.00    +0.043 A 
ATOM      6  C   UNL     1      -4.642   1.155   3.941  0.00  0.00    +0.024 A 
ATOM      7  C   UNL     1      -4.769  -0.180   3.613  0.00  0.00    +0.002 A 
ATOM      8  C   UNL     1      -3.674  -0.897   3.165  0.00  0.00    +0.001 A 
ATOM      9  C   UNL     1      -2.442  -0.277   3.044  0.00  0.00    +0.010 A 
ATOM     10  C   UNL     1      -2.313   1.055   3.370  0.00  0.00    +0.033 A 
ATOM     11  C   UNL     1      -0.986   1.767   3.252  0.00  0.00    +0.247 C 
ATOM     12  H   UNL     1      -4.036   3.619   4.462  0.00  0.00    +0.156 HD
ENDROOT
BRANCH   1  17
ATOM     13  C   UNL     1       3.866   6.157   3.300  0.00  0.00    +0.044 C 
ATOM     14  C   UNL     1       2.585   5.369   3.387  0.00  0.00    -0.047 A 
ATOM     15  C   UNL     1       1.679   5.407   2.343  0.00  0.00    +0.005 A 
ATOM     16  C   UNL     1       0.504   4.686   2.420  0.00  0.00    +0.024 A 
ATOM     17  C   UNL     1       0.232   3.922   3.547  0.00  0.00    +0.042 A 
ATOM     18  C   UNL     1       1.141   3.890   4.596  0.00  0.00    +0.027 A 
ATOM     19  C   UNL     1       2.317   4.610   4.511  0.00  0.00    -0.046 A 
ATOM     20  C   UNL     1       3.307   4.571   5.647  0.00  0.00    +0.044 C 
ENDBRANCH   1  17
BRANCH  11  21
ATOM     21  C   UNL     1      -0.523   1.655   1.822  0.00  0.00    +0.269 C 
ATOM     22  O   UNL     1       0.444   0.977   1.549  0.00  0.00    -0.270 OA
ATOM     23  N   UNL     1      -1.185   2.309   0.847  0.00  0.00    -0.307 N 
ATOM     24  H   UNL     1      -1.959   2.852   1.066  0.00  0.00    +0.149 HD
BRANCH  23  25
ATOM     25  C   UNL     1      -0.735   2.200  -0.543  0.00  0.00    +0.139 C 
BRANCH  25  26
ATOM     26  C   UNL     1      -1.638   3.020  -1.428  0.00  0.00    -0.030 A 
ATOM     27  C   UNL     1      -2.760   2.442  -1.994  0.00  0.00    +0.009 A 
ATOM     28  C   UNL     1      -3.592   3.193  -2.801  0.00  0.00    +0.046 A 
ATOM     29  C   UNL     1      -3.296   4.525  -3.054  0.00  0.00    +0.120 A 
ATOM     30  C   UNL     1      -2.167   5.101  -2.490  0.00  0.00    +0.046 A 
ATOM     31  C   UNL     1      -1.341   4.347  -1.678  0.00  0.00    +0.009 A 
BRANCH  29  32
ATOM     32  O   UNL     1      -4.109   5.264  -3.853  0.00  0.00    -0.495 OA
ATOM     33  C   UNL     1      -5.254   4.605  -4.399  0.00  0.00    +0.277 C 
ENDBRANCH  29  32
ENDBRANCH  25  26
ENDBRANCH  23  25
ENDBRANCH  11  21
BRANCH  11  34
ATOM     34  O   UNL     1      -0.041   1.076   4.072  0.00  0.00    -0.360 OA
ATOM     35  H   UNL     1       0.052   0.137   3.859  0.00  0.00    +0.213 HD
ENDBRANCH  11  34
TORSDOF 6
