REMARK  Name = ZINC35031468
REMARK  14 active torsions:
REMARK  status: ('A' for Active; 'I' for Inactive)
REMARK    1  A    between atoms: C_1  and  C_2
REMARK    2  A    between atoms: C_5  and  O_12
REMARK    3  A    between atoms: C_8  and  C_10
REMARK    4  A    between atoms: C_8  and  C_11
REMARK    5  A    between atoms: O_12  and  C_13
REMARK    6  A    between atoms: C_13  and  C_14
REMARK    7  A    between atoms: C_14  and  C_16
REMARK    8  A    between atoms: C_14  and  O_28
REMARK    9  A    between atoms: C_16  and  N_17
REMARK   10  A    between atoms: C_18  and  C_26
REMARK   11  A    between atoms: C_18  and  C_27
REMARK   12  A    between atoms: C_20  and  O_25
REMARK   13  A    between atoms: C_22  and  C_23
REMARK   14  A    between atoms: C_22  and  C_24
REMARK                            x       y       z     vdW  Elec       q    Type
REMARK                         _______ _______ _______ _____ _____    ______ ____
ROOT
ATOM      1  C   UNL     1      -3.577  -2.343  -3.758  0.00  0.00    +0.124 C 
ENDROOT
BRANCH   1   2
ATOM      2  O   UNL     1      -2.210  -2.745  -3.646  0.00  0.00    -0.391 OA
ATOM      3  H   UNL     1      -1.734  -2.758  -4.488  0.00  0.00    +0.210 HD
ENDBRANCH   1   2
BRANCH   1   4
ATOM      4  C   UNL     1      -3.654  -0.989  -4.465  0.00  0.00    +0.189 C 
BRANCH   4   5
ATOM      5  O   UNL     1      -3.032   0.009  -3.653  0.00  0.00    -0.374 OA
BRANCH   5   9
ATOM      6  C   UNL     1      -5.613   2.891  -1.820  0.00  0.00    +0.007 C 
ATOM      7  C   UNL     1      -4.343   2.159  -2.259  0.00  0.00    -0.011 C 
ATOM      8  C   UNL     1      -4.319   2.050  -3.785  0.00  0.00    +0.035 C 
ATOM      9  C   UNL     1      -3.049   1.318  -4.225  0.00  0.00    +0.119 C 
ATOM     10  C   UNL     1      -1.821   2.098  -3.750  0.00  0.00    +0.038 C 
ATOM     11  C   UNL     1      -1.845   2.208  -2.224  0.00  0.00    -0.032 C 
ATOM     12  C   UNL     1      -3.115   2.939  -1.785  0.00  0.00    +0.009 C 
ATOM     13  C   UNL     1      -1.826   0.806  -1.612  0.00  0.00    +0.011 C 
ATOM     14  C   UNL     1      -0.617   2.988  -1.750  0.00  0.00    +0.011 C 
ENDBRANCH   5   9
ENDBRANCH   4   5
ENDBRANCH   1   4
BRANCH   1  15
ATOM     15  C   UNL     1      -4.351  -3.386  -4.568  0.00  0.00    -0.043 C 
BRANCH  15  16
ATOM     16  N   UNL     1      -5.350  -4.042  -3.699  0.00  0.00    +0.388 N 
ATOM     17  C   UNL     1      -4.664  -4.984  -2.827  0.00  0.00    -0.068 C 
ATOM     18  C   UNL     1      -5.624  -5.911  -2.085  0.00  0.00    +0.019 C 
ATOM     19  C   UNL     1      -6.568  -6.591  -3.078  0.00  0.00    +0.112 C 
ATOM     20  C   UNL     1      -7.366  -5.503  -3.795  0.00  0.00    +0.019 C 
ATOM     21  C   UNL     1      -6.433  -4.546  -4.528  0.00  0.00    -0.068 C 
ATOM     22  C   UNL     1      -7.279  -3.332  -4.979  0.00  0.00    -0.010 C 
ATOM     23  C   UNL     1      -5.898  -5.215  -5.799  0.00  0.00    -0.010 C 
ATOM     24  C   UNL     1      -3.627  -5.808  -3.593  0.00  0.00    -0.010 C 
ATOM     25  C   UNL     1      -3.900  -4.164  -1.762  0.00  0.00    -0.010 C 
ATOM     26  H   UNL     1      -5.740  -3.300  -3.102  0.00  0.00    -0.080 HD
BRANCH  19  27
ATOM     27  O   UNL     1      -7.468  -7.444  -2.363  0.00  0.00    -0.392 OA
ATOM     28  H   UNL     1      -8.100  -7.912  -2.927  0.00  0.00    +0.210 HD
ENDBRANCH  19  27
ENDBRANCH  15  16
ENDBRANCH   1  15
TORSDOF 7
