REMARK  Name = ZINC13658651
REMARK  11 active torsions:
REMARK  status: ('A' for Active; 'I' for Inactive)
REMARK    1  A    between atoms: C_1  and  O_2
REMARK    2  A    between atoms: O_2  and  C_3
REMARK    3  A    between atoms: C_5  and  C_21
REMARK    4  A    between atoms: C_8  and  O_9
REMARK    5  A    between atoms: O_9  and  C_10
REMARK    6  A    between atoms: C_10  and  C_12
REMARK    7  A    between atoms: C_12  and  C_13
REMARK    8  A    between atoms: N_22  and  N_23
REMARK    9  A    between atoms: C_24  and  C_26
REMARK   10  A    between atoms: C_26  and  S_27
REMARK   11  A    between atoms: S_27  and  C_28
REMARK                            x       y       z     vdW  Elec       q    Type
REMARK                         _______ _______ _______ _____ _____    ______ ____
ROOT
ATOM      1  C   UNL     1      -3.643 -10.668  -0.049  0.00  0.00    +0.163 A 
ATOM      2  C   UNL     1      -2.659  -9.696  -0.061  0.00  0.00    +0.059 A 
ATOM      3  C   UNL     1      -3.015  -8.346  -0.018  0.00  0.00    -0.002 A 
ATOM      4  C   UNL     1      -4.364  -7.983   0.027  0.00  0.00    +0.013 A 
ATOM      5  C   UNL     1      -5.340  -8.957   0.033  0.00  0.00    +0.051 A 
ATOM      6  C   UNL     1      -4.986 -10.298  -0.005  0.00  0.00    +0.173 A 
ENDROOT
BRANCH   1   8
ATOM      7  C   UNL     1      -1.906 -12.289  -0.129  0.00  0.00    +0.277 C 
ATOM      8  O   UNL     1      -3.301 -11.983  -0.085  0.00  0.00    -0.491 OA
ENDBRANCH   1   8
BRANCH   3   9
ATOM      9  C   UNL     1      -1.970  -7.306  -0.024  0.00  0.00    +0.138 C 
ATOM     10  N   UNL     1      -2.302  -6.052   0.011  0.00  0.00    -0.188 NA
BRANCH  10  11
ATOM     11  N   UNL     1      -1.309  -5.064   0.005  0.00  0.00    -0.206 N 
ATOM     12  C   UNL     1      -1.654  -3.761   0.042  0.00  0.00    +0.243 C 
ATOM     13  O   UNL     1      -2.825  -3.445   0.081  0.00  0.00    -0.273 OA
ATOM     14  H   UNL     1      -0.373  -5.317  -0.025  0.00  0.00    +0.177 HD
BRANCH  12  15
ATOM     15  C   UNL     1      -0.586  -2.699   0.036  0.00  0.00    +0.176 C 
BRANCH  15  16
ATOM     16  S   UNL     1      -1.361  -1.064   0.091  0.00  0.00    -0.058 S 
BRANCH  16  17
ATOM     17  C   UNL     1       0.075  -0.043   0.074  0.00  0.00    +0.258 A 
ATOM     18  N   UNL     1       1.308  -0.483   0.032  0.00  0.00    -0.203 NA
ATOM     19  C   UNL     1       2.152   0.584   0.032  0.00  0.00    +0.110 A 
ATOM     20  C   UNL     1       3.542   0.714  -0.003  0.00  0.00    +0.031 A 
ATOM     21  C   UNL     1       4.111   1.968   0.008  0.00  0.00    +0.002 A 
ATOM     22  C   UNL     1       3.313   3.101   0.053  0.00  0.00    +0.004 A 
ATOM     23  C   UNL     1       1.938   2.986   0.088  0.00  0.00    +0.048 A 
ATOM     24  C   UNL     1       1.348   1.733   0.077  0.00  0.00    +0.156 A 
ATOM     25  O   UNL     1       0.066   1.301   0.102  0.00  0.00    -0.431 OA
ENDBRANCH  16  17
ENDBRANCH  15  16
ENDBRANCH  12  15
ENDBRANCH  10  11
ENDBRANCH   3   9
BRANCH   6  26
ATOM     26  O   UNL     1      -5.952 -11.255   0.001  0.00  0.00    -0.422 OA
BRANCH  26  27
ATOM     27  C   UNL     1      -6.224 -11.839   1.179  0.00  0.00    +0.314 C 
ATOM     28  O   UNL     1      -5.692 -11.441   2.188  0.00  0.00    -0.250 OA
BRANCH  27  29
ATOM     29  C   UNL     1      -7.194 -12.990   1.243  0.00  0.00    +0.145 C 
BRANCH  29  30
ATOM     30  C   UNL     1      -7.324 -13.468   2.690  0.00  0.00    +0.152 C 
ATOM     31  C   UNL     1      -8.386 -14.551   2.823  0.00  0.00    +0.234 C 
ATOM     32  O   UNL     1      -9.553 -14.348   2.566  0.00  0.00    -0.274 OA
ATOM     33  N   UNL     1      -7.947 -15.727   3.237  0.00  0.00    -0.246 N 
ATOM     34  C   UNL     1      -6.657 -15.975   3.528  0.00  0.00    +0.279 C 
ATOM     35  O   UNL     1      -6.162 -17.017   3.913  0.00  0.00    -0.263 OA
ATOM     36  S   UNL     1      -5.841 -14.416   3.216  0.00  0.00    -0.054 S 
ATOM     37  H   UNL     1      -8.588 -16.449   3.337  0.00  0.00    +0.158 HD
ENDBRANCH  29  30
ENDBRANCH  27  29
ENDBRANCH  26  27
ENDBRANCH   6  26
TORSDOF 10
