REMARK  Name = ZINC39672871
REMARK  6 active torsions:
REMARK  status: ('A' for Active; 'I' for Inactive)
REMARK    1  A    between atoms: C_1  and  C_2
REMARK    2  A    between atoms: C_2  and  C_8
REMARK    3  A    between atoms: C_12  and  C_21
REMARK    4  A    between atoms: N_23  and  C_24
REMARK    5  A    between atoms: C_24  and  C_25
REMARK    6  A    between atoms: C_25  and  N_31
REMARK                            x       y       z     vdW  Elec       q    Type
REMARK                         _______ _______ _______ _____ _____    ______ ____
ROOT
ATOM      1  C   UNL     1      -1.003  -0.597   0.018  0.00  0.00    +0.222 C 
ATOM      2  O   UNL     1       0.153  -0.232  -0.031  0.00  0.00    -0.275 OA
ATOM      3  N   UNL     1      -1.866  -0.236  -0.951  0.00  0.00    -0.300 N 
ATOM      4  C   UNL     1      -1.572   0.509  -2.198  0.00  0.00    +0.121 C 
ATOM      5  C   UNL     1      -2.446  -0.171  -3.275  0.00  0.00    +0.100 C 
ATOM      6  C   UNL     1      -3.595  -0.826  -2.491  0.00  0.00    -0.004 C 
ATOM      7  C   UNL     1      -3.324  -0.500  -1.015  0.00  0.00    +0.115 C 
ATOM      8  C   UNL     1      -4.934  -0.237  -2.925  0.00  0.00    -0.010 C 
ATOM      9  C   UNL     1      -6.066  -0.945  -2.174  0.00  0.00    -0.082 C 
ATOM     10  N   UNL     1      -6.024  -2.383  -2.465  0.00  0.00    +0.379 N 
ATOM     11  C   UNL     1      -4.771  -2.960  -1.961  0.00  0.00    -0.082 C 
ATOM     12  C   UNL     1      -3.585  -2.337  -2.703  0.00  0.00    -0.010 C 
ATOM     13  H   UNL     1      -6.805  -2.838  -2.018  0.00  0.00    -0.086 HD
ATOM     14  H   UNL     1      -6.080  -2.525  -3.462  0.00  0.00    -0.086 HD
ENDROOT
BRANCH   1  16
ATOM     15  C   UNL     1      -1.889  -2.829   0.635  0.00  0.00    +0.021 C 
ATOM     16  C   UNL     1      -1.473  -1.456   1.164  0.00  0.00    +0.044 C 
ATOM     17  C   UNL     1      -2.669  -0.787   1.845  0.00  0.00    +0.016 C 
ATOM     18  C   UNL     1      -2.253   0.587   2.374  0.00  0.00    +0.001 C 
ATOM     19  C   UNL     1      -1.117   0.420   3.386  0.00  0.00    +0.000 C 
ATOM     20  C   UNL     1       0.079  -0.248   2.706  0.00  0.00    +0.001 C 
ATOM     21  C   UNL     1      -0.338  -1.622   2.176  0.00  0.00    +0.016 C 
ENDBRANCH   1  16
BRANCH   5  22
ATOM     22  C   UNL     1      -1.650  -1.215  -4.015  0.00  0.00    +0.218 C 
ATOM     23  O   UNL     1      -0.700  -1.745  -3.479  0.00  0.00    -0.275 OA
ATOM     24  N   UNL     1      -1.994  -1.559  -5.272  0.00  0.00    -0.313 N 
ATOM     25  H   UNL     1      -2.708  -1.085  -5.726  0.00  0.00    +0.149 HD
BRANCH  24  26
ATOM     26  C   UNL     1      -1.291  -2.650  -5.951  0.00  0.00    +0.126 C 
BRANCH  26  27
ATOM     27  C   UNL     1      -1.744  -2.719  -7.410  0.00  0.00    +0.038 C 
ATOM     28  C   UNL     1      -3.272  -2.777  -7.468  0.00  0.00    +0.024 C 
ATOM     29  C   UNL     1      -3.763  -4.020  -6.722  0.00  0.00    +0.002 C 
ATOM     30  C   UNL     1      -3.180  -5.272  -7.379  0.00  0.00    +0.000 C 
ATOM     31  C   UNL     1      -1.652  -5.214  -7.322  0.00  0.00    +0.002 C 
ATOM     32  C   UNL     1      -1.161  -3.971  -8.067  0.00  0.00    +0.024 C 
BRANCH  27  33
ATOM     33  N   UNL     1      -1.273  -1.526  -8.126  0.00  0.00    -0.291 NA
ATOM     34  C   UNL     1       0.194  -1.521  -8.233  0.00  0.00    +0.113 C 
ATOM     35  C   UNL     1       0.637  -0.295  -9.036  0.00  0.00    +0.175 C 
ATOM     36  O   UNL     1       0.136   0.888  -8.406  0.00  0.00    -0.377 OA
ATOM     37  C   UNL     1      -1.288   0.917  -8.286  0.00  0.00    +0.175 C 
ATOM     38  C   UNL     1      -1.752  -0.297  -7.476  0.00  0.00    +0.113 C 
ENDBRANCH  27  33
ENDBRANCH  26  27
ENDBRANCH  24  26
ENDBRANCH   5  22
TORSDOF 5
