REMARK  Name = ZINC29872260
REMARK  8 active torsions:
REMARK  status: ('A' for Active; 'I' for Inactive)
REMARK    1  A    between atoms: C_1  and  C_2
REMARK    2  A    between atoms: C_4  and  C_28
REMARK    3  A    between atoms: C_5  and  O_9
REMARK    4  A    between atoms: C_6  and  C_8
REMARK    5  A    between atoms: O_9  and  C_10
REMARK    6  A    between atoms: C_10  and  C_11
REMARK    7  A    between atoms: C_16  and  C_19
REMARK    8  A    between atoms: C_21  and  C_25
REMARK                            x       y       z     vdW  Elec       q    Type
REMARK                         _______ _______ _______ _____ _____    ______ ____
ROOT
ATOM      1  C   UNL     1      -4.300   4.857  -1.006  0.00  0.00    +0.256 C 
ATOM      2  O   UNL     1      -4.694   5.077   0.120  0.00  0.00    -0.272 OA
ATOM      3  N   UNL     1      -5.026   5.265  -2.065  0.00  0.00    -0.262 N 
ATOM      4  C   UNL     1      -6.226   5.939  -1.867  0.00  0.00    +0.165 A 
ATOM      5  N   UNL     1      -7.065   6.410  -2.766  0.00  0.00    -0.225 NA
ATOM      6  C   UNL     1      -8.178   7.034  -2.406  0.00  0.00    +0.082 A 
ATOM      7  C   UNL     1      -8.431   7.176  -1.072  0.00  0.00    +0.077 A 
ATOM      8  S   UNL     1      -7.001   6.364  -0.373  0.00  0.00    -0.060 S 
ATOM      9  H   UNL     1      -4.670   5.066  -3.086  0.00  0.00    +0.157 HD
ENDROOT
BRANCH   6  10
ATOM     10  C   UNL     1      -9.120   7.565  -3.424  0.00  0.00    +0.019 A 
ATOM     11  C   UNL     1      -9.018   7.401  -4.819  0.00  0.00    +0.042 A 
ATOM     12  C   UNL     1     -10.088   8.041  -5.380  0.00  0.00    +0.102 A 
ATOM     13  N   UNL     1     -10.832   8.596  -4.364  0.00  0.00    -0.356 N 
ATOM     14  H   UNL     1     -11.744   9.166  -4.597  0.00  0.00    +0.165 HD
ATOM     15  C   UNL     1     -10.241   8.305  -3.179  0.00  0.00    +0.093 A 
BRANCH  12  16
ATOM     16  C   UNL     1     -10.388   8.125  -6.814  0.00  0.00    +0.258 C 
ATOM     17  O   UNL     1      -9.652   7.590  -7.622  0.00  0.00    -0.269 OA
ATOM     18  N   UNL     1     -11.478   8.796  -7.236  0.00  0.00    -0.324 N 
ATOM     19  H   UNL     1     -11.703   8.859  -8.311  0.00  0.00    +0.145 HD
ATOM     20  H   UNL     1     -12.143   9.279  -6.505  0.00  0.00    +0.145 HD
ENDBRANCH  12  16
ENDBRANCH   6  10
BRANCH   1  21
ATOM     21  C   UNL     1      -2.999   4.127  -1.220  0.00  0.00    +0.325 C 
BRANCH  21  22
ATOM     22  O   UNL     1      -2.422   3.802   0.046  0.00  0.00    -0.482 OA
BRANCH  22  27
ATOM     23  C   UNL     1       2.490   1.045  -0.016  0.00  0.00    +0.044 C 
ATOM     24  C   UNL     1       1.176   1.783   0.000  0.00  0.00    -0.050 A 
ATOM     25  C   UNL     1      -0.013   1.076   0.008  0.00  0.00    +0.010 A 
ATOM     26  C   UNL     1      -1.218   1.750   0.017  0.00  0.00    -0.008 A 
ATOM     27  C   UNL     1      -1.237   3.137   0.031  0.00  0.00    +0.127 A 
ATOM     28  C   UNL     1      -0.043   3.844   0.024  0.00  0.00    -0.008 A 
ATOM     29  C   UNL     1       1.160   3.165   0.008  0.00  0.00    +0.010 A 
ATOM     30  C   UNL     1      -0.059   5.351   0.032  0.00  0.00    +0.047 C 
ATOM     31  C   UNL     1      -2.513   0.979   0.019  0.00  0.00    +0.047 C 
ENDBRANCH  22  27
ENDBRANCH  21  22
ENDBRANCH   1  21
TORSDOF 5
