REMARK  Name = ZINC35472031
REMARK  9 active torsions:
REMARK  status: ('A' for Active; 'I' for Inactive)
REMARK    1  A    between atoms: C_1  and  N_2
REMARK    2  A    between atoms: C_5  and  C_10
REMARK    3  A    between atoms: C_12  and  O_18
REMARK    4  A    between atoms: C_14  and  O_16
REMARK    5  A    between atoms: O_16  and  C_17
REMARK    6  A    between atoms: O_18  and  C_19
REMARK    7  A    between atoms: N_22  and  C_24
REMARK    8  A    between atoms: N_27  and  C_30
REMARK    9  A    between atoms: C_30  and  C_31
REMARK                            x       y       z     vdW  Elec       q    Type
REMARK                         _______ _______ _______ _____ _____    ______ ____
ROOT
ATOM      1  C   UNL     1      -0.018   1.461   0.010  0.00  0.00    +0.139 C 
ATOM      2  N   UNL     1       0.002  -0.004   0.002  0.00  0.00    -0.260 N 
ATOM      3  C   UNL     1      -1.193  -0.666   0.004  0.00  0.00    +0.042 C 
ATOM      4  C   UNL     1      -1.245  -2.013  -0.003  0.00  0.00    +0.058 C 
ATOM      5  C   UNL     1       0.068  -2.769  -0.014  0.00  0.00    +0.142 C 
ATOM      6  N   UNL     1       1.301  -1.964  -0.016  0.00  0.00    -0.288 N 
ATOM      7  C   UNL     1       1.191  -0.621  -0.013  0.00  0.00    +0.307 C 
ATOM      8  O   UNL     1       2.203   0.052  -0.018  0.00  0.00    -0.252 OA
ATOM      9  C   UNL     1      -2.585  -2.452   0.002  0.00  0.00    +0.247 C 
ATOM     10  O   UNL     1      -2.927  -3.620  -0.003  0.00  0.00    -0.270 OA
ATOM     11  N   UNL     1      -3.437  -1.411   0.012  0.00  0.00    -0.289 N 
ATOM     12  C   UNL     1      -2.626  -0.184   0.015  0.00  0.00    +0.159 C 
ATOM     13  H   UNL     1       2.172  -2.391  -0.023  0.00  0.00    +0.151 HD
ENDROOT
BRANCH  11  14
ATOM     14  C   UNL     1      -4.900  -1.485   0.019  0.00  0.00    +0.073 C 
ATOM     15  C   UNL     1      -5.368  -2.247   1.262  0.00  0.00    +0.004 C 
ATOM     16  C   UNL     1      -6.891  -2.390   1.223  0.00  0.00    -0.077 C 
ATOM     17  N   UNL     1      -7.286  -3.129   0.017  0.00  0.00    +0.382 N 
ATOM     18  C   UNL     1      -6.904  -2.369  -1.179  0.00  0.00    -0.077 C 
ATOM     19  C   UNL     1      -5.381  -2.225  -1.232  0.00  0.00    +0.004 C 
ATOM     20  H   UNL     1      -6.823  -4.025   0.006  0.00  0.00    -0.081 HD
BRANCH  17  21
ATOM     21  C   UNL     1      -8.741  -3.331   0.023  0.00  0.00    -0.043 C 
BRANCH  21  22
ATOM     22  C   UNL     1      -9.133  -4.193  -1.149  0.00  0.00    -0.064 A 
ATOM     23  C   UNL     1      -9.446  -3.609  -2.363  0.00  0.00    +0.002 A 
ATOM     24  C   UNL     1      -9.806  -4.400  -3.438  0.00  0.00    +0.000 A 
ATOM     25  C   UNL     1      -9.851  -5.775  -3.300  0.00  0.00    +0.000 A 
ATOM     26  C   UNL     1      -9.537  -6.359  -2.087  0.00  0.00    +0.000 A 
ATOM     27  C   UNL     1      -9.173  -5.568  -1.013  0.00  0.00    +0.002 A 
ENDBRANCH  21  22
ENDBRANCH  17  21
ENDBRANCH  11  14
BRANCH   5  28
ATOM     28  C   UNL     1       0.100  -3.664   1.198  0.00  0.00    -0.016 A 
ATOM     29  C   UNL     1       0.423  -3.138   2.434  0.00  0.00    +0.051 A 
ATOM     30  C   UNL     1       0.453  -3.960   3.553  0.00  0.00    +0.124 A 
ATOM     31  C   UNL     1       0.157  -5.309   3.429  0.00  0.00    +0.091 A 
ATOM     32  C   UNL     1      -0.167  -5.833   2.187  0.00  0.00    +0.124 A 
ATOM     33  C   UNL     1      -0.201  -5.007   1.073  0.00  0.00    +0.051 A 
BRANCH  32  34
ATOM     34  O   UNL     1      -0.457  -7.155   2.062  0.00  0.00    -0.495 OA
ATOM     35  C   UNL     1      -0.408  -7.945   3.252  0.00  0.00    +0.277 C 
ENDBRANCH  32  34
BRANCH  30  36
ATOM     36  O   UNL     1       0.772  -3.443   4.768  0.00  0.00    -0.495 OA
ATOM     37  C   UNL     1       0.783  -4.346   5.875  0.00  0.00    +0.277 C 
ENDBRANCH  30  36
ENDBRANCH   5  28
TORSDOF 6
