REMARK  Name = ZINC16913376
REMARK  10 active torsions:
REMARK  status: ('A' for Active; 'I' for Inactive)
REMARK    1  A    between atoms: C_1  and  C_2
REMARK    2  A    between atoms: C_2  and  C_3
REMARK    3  A    between atoms: C_3  and  C_5
REMARK    4  A    between atoms: C_3  and  O_8
REMARK    5  A    between atoms: O_8  and  C_9
REMARK    6  A    between atoms: C_12  and  C_17
REMARK    7  A    between atoms: C_14  and  O_15
REMARK    8  A    between atoms: O_15  and  C_16
REMARK    9  A    between atoms: C_22  and  N_24
REMARK   10  A    between atoms: N_24  and  C_25
REMARK                            x       y       z     vdW  Elec       q    Type
REMARK                         _______ _______ _______ _____ _____    ______ ____
ROOT
ATOM      1  C   UNL     1       6.732   4.417   0.009  0.00  0.00    +0.028 C 
ATOM      2  C   UNL     1       7.881   3.828   0.428  0.00  0.00    +0.079 C 
ATOM      3  C   UNL     1       8.080   2.603   1.236  0.00  0.00    +0.276 C 
ATOM      4  O   UNL     1       7.139   1.940   1.643  0.00  0.00    -0.267 OA
ATOM      5  N   UNL     1       9.326   2.268   1.492  0.00  0.00    -0.152 NA
ATOM      6  C   UNL     1      10.355   2.978   1.056  0.00  0.00    +0.175 C 
ATOM      7  S   UNL     1       9.582   4.310   0.153  0.00  0.00    -0.050 S 
ENDROOT
BRANCH   1  11
ATOM      8  C   UNL     1       3.012   2.466   0.610  0.00  0.00    +0.163 A 
ATOM      9  C   UNL     1       4.142   1.723   0.293  0.00  0.00    +0.050 A 
ATOM     10  C   UNL     1       5.351   2.352   0.092  0.00  0.00    +0.012 A 
ATOM     11  C   UNL     1       5.444   3.744   0.218  0.00  0.00    -0.020 A 
ATOM     12  C   UNL     1       4.306   4.492   0.543  0.00  0.00    +0.057 A 
ATOM     13  C   UNL     1       3.097   3.853   0.738  0.00  0.00    +0.162 A 
BRANCH  13  14
ATOM     14  O   UNL     1       1.989   4.575   1.053  0.00  0.00    -0.491 OA
ATOM     15  C   UNL     1       2.149   5.991   1.167  0.00  0.00    +0.277 C 
ENDBRANCH  13  14
BRANCH   8  16
ATOM     16  O   UNL     1       1.822   1.841   0.802  0.00  0.00    -0.474 OA
BRANCH  16  17
ATOM     17  C   UNL     1       1.831   0.412   0.786  0.00  0.00    +0.285 C 
BRANCH  17  18
ATOM     18  C   UNL     1       1.593  -0.076  -0.620  0.00  0.00    +0.396 C 
ATOM     19  O   UNL     1       1.433   0.719  -1.516  0.00  0.00    -0.242 OA
ATOM     20  O   UNL     1       1.559  -1.393  -0.877  0.00  0.00    -0.242 OA
ENDBRANCH  17  18
BRANCH  17  22
ATOM     21  C   UNL     1       1.032   0.274   3.149  0.00  0.00    +0.008 C 
ATOM     22  C   UNL     1       0.724  -0.115   1.702  0.00  0.00    +0.053 C 
ENDBRANCH  17  22
ENDBRANCH  16  17
ENDBRANCH   8  16
ENDBRANCH   1  11
BRANCH   6  23
ATOM     23  N   UNL     1      11.692   2.743   1.248  0.00  0.00    -0.190 NA
BRANCH  23  24
ATOM     24  C   UNL     1      12.112   1.565   1.875  0.00  0.00    +0.075 A 
ATOM     25  C   UNL     1      11.193   0.566   2.167  0.00  0.00    +0.027 A 
ATOM     26  C   UNL     1      11.611  -0.596   2.786  0.00  0.00    +0.003 A 
ATOM     27  C   UNL     1      12.943  -0.766   3.116  0.00  0.00    +0.021 A 
ATOM     28  C   UNL     1      13.862   0.227   2.827  0.00  0.00    +0.061 A 
ATOM     29  C   UNL     1      13.452   1.390   2.201  0.00  0.00    +0.082 A 
ATOM     30 CL   UNL     1      14.606   2.632   1.831  0.00  0.00    -0.080 Cl
ATOM     31 CL   UNL     1      15.534   0.009   3.243  0.00  0.00    -0.082 Cl
ENDBRANCH  23  24
ENDBRANCH   6  23
TORSDOF 8
