REMARK  Name = ZINC39016786
REMARK  11 active torsions:
REMARK  status: ('A' for Active; 'I' for Inactive)
REMARK    1  A    between atoms: C_1  and  C_2
REMARK    2  A    between atoms: C_5  and  C_9
REMARK    3  A    between atoms: C_6  and  O_8
REMARK    4  A    between atoms: C_12  and  C_14
REMARK    5  A    between atoms: N_16  and  C_17
REMARK    6  A    between atoms: C_19  and  C_30
REMARK    7  A    between atoms: N_32  and  C_33
REMARK    8  A    between atoms: C_33  and  C_34
REMARK    9  A    between atoms: C_34  and  C_35
REMARK   10  A    between atoms: C_35  and  O_36
REMARK   11  A    between atoms: O_36  and  C_37
REMARK                            x       y       z     vdW  Elec       q    Type
REMARK                         _______ _______ _______ _____ _____    ______ ____
ROOT
ATOM      1  C   UNL     1       0.103  -7.837  -1.261  0.00  0.00    +0.261 C 
ATOM      2  O   UNL     1       0.104  -7.900  -2.476  0.00  0.00    -0.269 OA
ATOM      3  N   UNL     1       0.116  -8.967  -0.527  0.00  0.00    -0.298 N 
ATOM      4  H   UNL     1       0.115  -8.916   0.442  0.00  0.00    +0.150 HD
ENDROOT
BRANCH   3   5
ATOM      5  C   UNL     1       0.132 -10.272  -1.192  0.00  0.00    +0.144 C 
ATOM      6  C   UNL     1       1.117 -11.229  -0.492  0.00  0.00    +0.109 C 
ATOM      7  C   UNL     1       0.566 -12.617  -0.280  0.00  0.00    +0.016 C 
ATOM      8  C   UNL     1       1.542 -13.729  -0.496  0.00  0.00    +0.005 C 
ATOM      9  C   UNL     1       1.360 -14.500  -1.789  0.00  0.00    +0.000 C 
ATOM     10  C   UNL     1      -0.108 -14.854  -2.009  0.00  0.00    +0.001 C 
ATOM     11  C   UNL     1      -0.922 -13.561  -2.082  0.00  0.00    +0.014 C 
ATOM     12  C   UNL     1      -0.859 -12.853  -0.749  0.00  0.00    +0.052 C 
ATOM     13  S   UNL     1      -1.484 -11.126  -0.991  0.00  0.00    -0.134 S 
BRANCH   6  14
ATOM     14  C   UNL     1       1.482 -10.649   0.850  0.00  0.00    +0.219 C 
ATOM     15  O   UNL     1       1.217 -11.257   1.866  0.00  0.00    -0.275 OA
ATOM     16  N   UNL     1       2.103  -9.455   0.921  0.00  0.00    -0.315 N 
ATOM     17  H   UNL     1       2.314  -8.969   0.109  0.00  0.00    +0.149 HD
BRANCH  16  18
ATOM     18  C   UNL     1       2.457  -8.890   2.226  0.00  0.00    +0.106 C 
BRANCH  18  19
ATOM     19  C   UNL     1       3.146  -7.539   2.027  0.00  0.00    +0.047 C 
BRANCH  19  20
ATOM     20  C   UNL     1       3.517  -6.949   3.389  0.00  0.00    +0.161 C 
BRANCH  20  21
ATOM     21  O   UNL     1       4.160  -5.687   3.203  0.00  0.00    -0.383 OA
ATOM     22  C   UNL     1       4.549  -5.048   4.421  0.00  0.00    +0.193 C 
ENDBRANCH  20  21
ENDBRANCH  19  20
ENDBRANCH  18  19
ENDBRANCH  16  18
ENDBRANCH   6  14
ENDBRANCH   3   5
BRANCH   1  26
ATOM     23  C   UNL     1       0.058  -4.243  -0.037  0.00  0.00    +0.080 C 
ATOM     24  N   UNL     1       0.068  -5.054   0.997  0.00  0.00    -0.153 NA
ATOM     25  N   UNL     1       0.083  -6.292   0.690  0.00  0.00    -0.148 NA
ATOM     26  C   UNL     1       0.086  -6.530  -0.596  0.00  0.00    +0.131 C 
ATOM     27  C   UNL     1       0.064  -5.159  -1.250  0.00  0.00    +0.120 C 
BRANCH  23  32
ATOM     28  C   UNL     1      -0.018   1.503   0.010  0.00  0.00    +0.044 C 
ATOM     29  C   UNL     1       0.002  -0.004   0.002  0.00  0.00    -0.047 A 
ATOM     30  C   UNL     1       0.006  -0.686  -1.206  0.00  0.00    +0.004 A 
ATOM     31  C   UNL     1       0.024  -2.062  -1.228  0.00  0.00    +0.013 A 
ATOM     32  C   UNL     1       0.039  -2.779  -0.023  0.00  0.00    +0.040 A 
ATOM     33  C   UNL     1       0.036  -2.082   1.199  0.00  0.00    +0.126 A 
ATOM     34  C   UNL     1       0.023  -0.696   1.197  0.00  0.00    +0.049 A 
BRANCH  33  35
ATOM     35  O   UNL     1       0.051  -2.762   2.372  0.00  0.00    -0.506 OA
ATOM     36  H   UNL     1       0.938  -2.948   2.708  0.00  0.00    +0.292 HD
ENDBRANCH  33  35
ENDBRANCH  23  32
ENDBRANCH   1  26
TORSDOF 9
