REMARK  Name = ZINC20154727
REMARK  3 active torsions:
REMARK  status: ('A' for Active; 'I' for Inactive)
REMARK    1  A    between atoms: C_1  and  C_2
REMARK    2  A    between atoms: N_8  and  C_9
REMARK    3  A    between atoms: C_12  and  N_19
REMARK                            x       y       z     vdW  Elec       q    Type
REMARK                         _______ _______ _______ _____ _____    ______ ____
ROOT
ATOM      1  C   UNL     1      -3.731   3.302   0.038  0.00  0.00    +0.057 A 
ATOM      2  C   UNL     1      -3.697   1.925   0.030  0.00  0.00    +0.027 A 
ATOM      3  C   UNL     1      -2.496   1.232   0.021  0.00  0.00    +0.036 A 
ATOM      4  C   UNL     1      -1.306   1.937   0.019  0.00  0.00    +0.142 A 
ATOM      5  C   UNL     1      -1.328   3.310   0.032  0.00  0.00    +0.073 A 
ATOM      6  C   UNL     1      -2.528   4.054   0.037  0.00  0.00    +0.103 A 
ATOM      7  N   UNL     1      -2.384   5.399   0.043  0.00  0.00    -0.223 NA
ATOM      8  C   UNL     1      -1.208   5.981   0.040  0.00  0.00    +0.157 A 
ATOM      9  S   UNL     1      -0.092   4.586   0.027  0.00  0.00    -0.050 S 
ATOM     10  N   UNL     1      -0.909   7.330   0.045  0.00  0.00    -0.337 N 
ATOM     11  H   UNL     1       0.140   7.661   0.042  0.00  0.00    +0.144 HD
ATOM     12  H   UNL     1      -1.720   8.073   0.053  0.00  0.00    +0.144 HD
ENDROOT
BRANCH   1  19
ATOM     13  C   UNL     1      -4.934   3.885  -2.399  0.00  0.00    +0.028 C 
ATOM     14  C   UNL     1      -5.756   3.616  -1.137  0.00  0.00    +0.070 C 
ATOM     15  C   UNL     1      -7.029   4.466  -1.167  0.00  0.00    +0.022 C 
ATOM     16  C   UNL     1      -7.839   4.210   0.106  0.00  0.00    +0.003 C 
ATOM     17  C   UNL     1      -6.972   4.534   1.327  0.00  0.00    +0.019 C 
ATOM     18  C   UNL     1      -5.702   3.682   1.285  0.00  0.00    +0.105 C 
ATOM     19  N   UNL     1      -4.962   3.964   0.048  0.00  0.00    -0.325 N 
ENDBRANCH   1  19
BRANCH   4  20
ATOM     20  N   UNL     1      -0.014   1.214   0.009  0.00  0.00    +0.058 N 
ATOM     21  O   UNL     1       0.002  -0.004   0.002  0.00  0.00    -0.126 OA
ATOM     22  O   UNL     1       1.032   1.837   0.002  0.00  0.00    -0.126 OA
ENDBRANCH   4  20
TORSDOF 2
