REMARK  Name = ZINC62158481
REMARK  10 active torsions:
REMARK  status: ('A' for Active; 'I' for Inactive)
REMARK    1  A    between atoms: C_1  and  C_2
REMARK    2  A    between atoms: C_3  and  C_11
REMARK    3  A    between atoms: C_4  and  C_7
REMARK    4  A    between atoms: C_7  and  C_8
REMARK    5  A    between atoms: C_7  and  C_9
REMARK    6  A    between atoms: C_7  and  C_10
REMARK    7  A    between atoms: N_13  and  C_14
REMARK    8  A    between atoms: C_14  and  C_15
REMARK    9  A    between atoms: C_15  and  C_17
REMARK   10  A    between atoms: C_15  and  N_26
REMARK                            x       y       z     vdW  Elec       q    Type
REMARK                         _______ _______ _______ _____ _____    ______ ____
ROOT
ATOM      1  C   UNL     1      -5.687   0.374   2.591  0.00  0.00    -0.020 C 
ENDROOT
BRANCH   1   2
ATOM      2  C   UNL     1      -7.105   0.851   2.410  0.00  0.00    -0.056 A 
ATOM      3  C   UNL     1      -8.103  -0.053   2.097  0.00  0.00    +0.006 A 
ATOM      4  C   UNL     1      -9.405   0.380   1.930  0.00  0.00    +0.050 A 
ATOM      5  C   UNL     1      -9.713   1.722   2.075  0.00  0.00    +0.166 A 
ATOM      6  C   UNL     1      -8.708   2.634   2.390  0.00  0.00    +0.166 A 
ATOM      7  C   UNL     1      -7.406   2.192   2.562  0.00  0.00    +0.051 A 
ATOM      8  O   UNL     1      -9.260   3.879   2.478  0.00  0.00    -0.453 OA
ATOM      9  C   UNL     1     -10.534   3.782   1.813  0.00  0.00    +0.466 C 
ATOM     10  O   UNL     1     -10.895   2.397   1.965  0.00  0.00    -0.453 OA
ENDBRANCH   1   2
BRANCH   1  11
ATOM     11  N   UNL     1      -5.690  -0.908   3.308  0.00  0.00    +0.385 N 
ATOM     12  C   UNL     1      -4.297  -1.345   3.583  0.00  0.00    -0.078 C 
ATOM     13  C   UNL     1      -4.461  -2.328   4.769  0.00  0.00    -0.020 C 
ATOM     14  C   UNL     1      -5.579  -1.671   5.611  0.00  0.00    -0.020 C 
ATOM     15  C   UNL     1      -6.331  -0.751   4.632  0.00  0.00    -0.078 C 
ATOM     16  H   UNL     1      -6.175  -1.608   2.768  0.00  0.00    -0.081 HD
ENDBRANCH   1  11
BRANCH   1  17
ATOM     17  C   UNL     1      -5.031   0.191   1.221  0.00  0.00    +0.094 C 
BRANCH  17  20
ATOM     18  C   UNL     1      -4.460   1.565  -0.709  0.00  0.00    +0.249 C 
ATOM     19  O   UNL     1      -4.071   0.561  -1.273  0.00  0.00    -0.270 OA
ATOM     20  N   UNL     1      -4.911   1.492   0.560  0.00  0.00    -0.312 N 
ATOM     21  H   UNL     1      -5.155   2.302   1.034  0.00  0.00    +0.149 HD
BRANCH  18  24
ATOM     22  C   UNL     1      -6.750   2.716  -2.505  0.00  0.00    +0.090 C 
ATOM     23  C   UNL     1      -5.431   3.376  -2.197  0.00  0.00    +0.147 A 
ATOM     24  C   UNL     1      -4.440   2.860  -1.411  0.00  0.00    +0.102 A 
ATOM     25  C   UNL     1      -3.355   3.842  -1.399  0.00  0.00    +0.101 A 
ATOM     26  N   UNL     1      -3.734   4.841  -2.140  0.00  0.00    -0.082 NA
ATOM     27  O   UNL     1      -5.023   4.564  -2.650  0.00  0.00    -0.359 OA
BRANCH  25  28
ATOM     28  C   UNL     1      -2.044   3.719  -0.666  0.00  0.00    +0.008 C 
ATOM     29  C   UNL     1      -1.266   2.520  -1.210  0.00  0.00    +0.017 C 
ATOM     30  C   UNL     1      -1.224   4.995  -0.869  0.00  0.00    +0.017 C 
ATOM     31  C   UNL     1      -2.312   3.518   0.827  0.00  0.00    +0.017 C 
ENDBRANCH  25  28
ENDBRANCH  18  24
ENDBRANCH  17  20
ENDBRANCH   1  17
TORSDOF 6
