REMARK  Name = ZINC36727493
REMARK  8 active torsions:
REMARK  status: ('A' for Active; 'I' for Inactive)
REMARK    1  A    between atoms: C_1  and  C_2
REMARK    2  A    between atoms: C_2  and  C_3
REMARK    3  A    between atoms: C_6  and  N_9
REMARK    4  A    between atoms: C_10  and  C_12
REMARK    5  A    between atoms: C_12  and  N_13
REMARK    6  A    between atoms: C_18  and  C_25
REMARK    7  A    between atoms: C_21  and  C_23
REMARK    8  A    between atoms: C_21  and  C_24
REMARK                            x       y       z     vdW  Elec       q    Type
REMARK                         _______ _______ _______ _____ _____    ______ ____
ROOT
ATOM      1  N   UNL     1       1.901  -2.519   8.133  0.00  0.00    -0.215 N 
ATOM      2  C   UNL     1       1.566  -1.486   8.935  0.00  0.00    +0.247 C 
ATOM      3  O   UNL     1       1.835  -0.319   8.754  0.00  0.00    -0.273 OA
ATOM      4  C   UNL     1       0.793  -2.100  10.078  0.00  0.00    +0.113 C 
ATOM      5  C   UNL     1      -0.519  -1.366  10.303  0.00  0.00    +0.038 C 
ATOM      6  C   UNL     1      -0.254  -0.003  10.944  0.00  0.00    -0.011 C 
ATOM      7  C   UNL     1       0.400  -0.224  12.306  0.00  0.00    +0.009 C 
ATOM      8  C   UNL     1       1.738  -0.940  12.162  0.00  0.00    -0.032 C 
ATOM      9  C   UNL     1       1.633  -2.210  11.335  0.00  0.00    +0.041 C 
ATOM     10  C   UNL     1       2.219  -1.328  13.576  0.00  0.00    +0.011 C 
ATOM     11  C   UNL     1       2.781   0.010  11.566  0.00  0.00    +0.011 C 
ATOM     12  C   UNL     1      -1.583   0.735  11.133  0.00  0.00    +0.007 C 
ATOM     13  N   UNL     1       0.500  -3.464   9.584  0.00  0.00    -0.285 N 
ATOM     14  C   UNL     1       1.248  -3.635   8.480  0.00  0.00    +0.310 C 
ATOM     15  O   UNL     1       1.323  -4.681   7.867  0.00  0.00    -0.252 OA
ATOM     16  H   UNL     1      -0.112  -4.096   9.987  0.00  0.00    +0.151 HD
ENDROOT
BRANCH   1  17
ATOM     17  C   UNL     1       2.836  -2.423   7.010  0.00  0.00    +0.214 C 
BRANCH  17  19
ATOM     18  N   UNL     1       2.746  -1.883   4.598  0.00  0.00    -0.284 N 
ATOM     19  C   UNL     1       2.085  -2.032   5.763  0.00  0.00    +0.235 C 
ATOM     20  O   UNL     1       0.887  -1.852   5.809  0.00  0.00    -0.274 OA
ATOM     21  H   UNL     1       3.689  -2.102   4.544  0.00  0.00    +0.155 HD
BRANCH  18  25
ATOM     22  C   UNL     1       0.736  -0.485   1.228  0.00  0.00    -0.048 A 
ATOM     23  C   UNL     1       0.375  -0.033   2.483  0.00  0.00    +0.005 A 
ATOM     24  C   UNL     1       1.039  -0.494   3.603  0.00  0.00    +0.023 A 
ATOM     25  C   UNL     1       2.071  -1.414   3.466  0.00  0.00    +0.033 A 
ATOM     26  C   UNL     1       2.431  -1.866   2.204  0.00  0.00    +0.023 A 
ATOM     27  C   UNL     1       1.759  -1.404   1.089  0.00  0.00    +0.005 A 
BRANCH  22  29
ATOM     28  C   UNL     1      -1.189  -0.885  -0.284  0.00  0.00    +0.009 C 
ATOM     29  C   UNL     1       0.009   0.021   0.008  0.00  0.00    +0.032 C 
ENDBRANCH  22  29
ENDBRANCH  18  25
ENDBRANCH  17  19
ENDBRANCH   1  17
TORSDOF 4
