REMARK  Name = ZINC32961219
REMARK  6 active torsions:
REMARK  status: ('A' for Active; 'I' for Inactive)
REMARK    1  A    between atoms: C_1  and  C_2
REMARK    2  A    between atoms: C_2  and  S_3
REMARK    3  A    between atoms: S_3  and  C_6
REMARK    4  A    between atoms: C_14  and  C_15
REMARK    5  A    between atoms: C_18  and  S_20
REMARK    6  A    between atoms: S_20  and  C_21
REMARK                            x       y       z     vdW  Elec       q    Type
REMARK                         _______ _______ _______ _____ _____    ______ ____
ROOT
ATOM      1  C   UNL     1       0.262  -2.737   0.432  0.00  0.00    +0.257 C 
ATOM      2  N   UNL     1       0.689  -3.454   1.425  0.00  0.00    -0.174 NA
ATOM      3  S   UNL     1       0.614  -5.030   0.859  0.00  0.00    +0.049 S 
ATOM      4  C   UNL     1       0.075  -4.736  -0.690  0.00  0.00    +0.183 C 
ATOM      5  N   UNL     1      -0.143  -5.565  -1.685  0.00  0.00    -0.152 NA
ATOM      6  C   UNL     1      -0.522  -5.076  -2.882  0.00  0.00    +0.273 C 
ATOM      7  O   UNL     1      -0.860  -5.827  -3.785  0.00  0.00    -0.268 OA
ATOM      8  C   UNL     1      -0.519  -3.611  -3.078  0.00  0.00    +0.082 C 
ATOM      9  C   UNL     1      -0.376  -3.039  -4.339  0.00  0.00    +0.062 C 
ATOM     10  C   UNL     1      -0.677  -2.782  -1.854  0.00  0.00    +0.138 C 
ATOM     11  N   UNL     1      -1.286  -1.623  -1.844  0.00  0.00    -0.284 NA
ATOM     12  N   UNL     1      -0.113  -3.369  -0.705  0.00  0.00    -0.201 N 
ATOM     13  H   UNL     1      -1.660  -1.265  -2.664  0.00  0.00    +0.188 HD
ENDROOT
BRANCH   9  14
ATOM     14  C   UNL     1       0.018  -3.828  -5.424  0.00  0.00    +0.130 A 
ATOM     15  C   UNL     1       0.049  -3.428  -6.755  0.00  0.00    +0.050 A 
ATOM     16  C   UNL     1       0.499  -4.519  -7.492  0.00  0.00    +0.057 A 
ATOM     17  C   UNL     1       0.729  -5.545  -6.598  0.00  0.00    +0.167 A 
ATOM     18  O   UNL     1       0.440  -5.111  -5.361  0.00  0.00    -0.449 OA
BRANCH  17  19
ATOM     19  S   UNL     1       1.311  -7.156  -7.012  0.00  0.00    -0.052 S 
BRANCH  19  20
ATOM     20  C   UNL     1       3.065  -7.002  -6.960  0.00  0.00    +0.016 A 
ATOM     21  C   UNL     1       3.647  -5.787  -6.620  0.00  0.00    +0.016 A 
ATOM     22  C   UNL     1       5.022  -5.669  -6.581  0.00  0.00    +0.021 A 
ATOM     23  C   UNL     1       5.821  -6.759  -6.880  0.00  0.00    +0.041 A 
ATOM     24  C   UNL     1       5.244  -7.970  -7.219  0.00  0.00    +0.021 A 
ATOM     25  C   UNL     1       3.869  -8.096  -7.255  0.00  0.00    +0.016 A 
ATOM     26 CL   UNL     1       7.550  -6.606  -6.830  0.00  0.00    -0.084 Cl
ENDBRANCH  19  20
ENDBRANCH  17  19
ENDBRANCH   9  14
BRANCH   1  27
ATOM     27  S   UNL     1       0.165  -0.983   0.563  0.00  0.00    +0.029 S 
ATOM     28  O   UNL     1       0.228  -0.516  -0.778  0.00  0.00    -0.167 OA
ATOM     29  O   UNL     1       1.175  -0.633   1.500  0.00  0.00    -0.167 OA
BRANCH  27  31
ATOM     30  C   UNL     1      -1.673   0.852   1.421  0.00  0.00    +0.028 C 
ATOM     31  C   UNL     1      -1.476  -0.657   1.262  0.00  0.00    +0.172 C 
ENDBRANCH  27  31
ENDBRANCH   1  27
TORSDOF 5
