REMARK  Name = ZINC35105446
REMARK  12 active torsions:
REMARK  status: ('A' for Active; 'I' for Inactive)
REMARK    1  A    between atoms: C_1  and  N_2
REMARK    2  A    between atoms: N_2  and  C_3
REMARK    3  A    between atoms: N_2  and  C_4
REMARK    4  A    between atoms: C_7  and  C_10
REMARK    5  A    between atoms: C_11  and  C_12
REMARK    6  A    between atoms: C_11  and  N_28
REMARK    7  A    between atoms: N_14  and  N_15
REMARK    8  A    between atoms: C_16  and  C_17
REMARK    9  A    between atoms: C_22  and  O_23
REMARK   10  A    between atoms: O_23  and  C_24
REMARK   11  A    between atoms: C_24  and  C_25
REMARK   12  A    between atoms: C_29  and  C_31
REMARK                            x       y       z     vdW  Elec       q    Type
REMARK                         _______ _______ _______ _____ _____    ______ ____
ROOT
ATOM      1  C   UNL     1      -4.600  -2.760  -0.063  0.00  0.00    +0.036 C 
ATOM      2  C   UNL     1      -5.840  -2.217  -0.002  0.00  0.00    +0.098 C 
ENDROOT
BRANCH   1   6
ATOM      3  C   UNL     1      -1.188  -0.330   0.598  0.00  0.00    +0.029 A 
ATOM      4  C   UNL     1      -1.119  -1.395  -0.296  0.00  0.00    +0.023 A 
ATOM      5  C   UNL     1      -2.223  -2.186  -0.513  0.00  0.00    +0.010 A 
ATOM      6  C   UNL     1      -3.418  -1.919   0.166  0.00  0.00    -0.023 A 
ATOM      7  C   UNL     1      -3.483  -0.847   1.065  0.00  0.00    +0.010 A 
ATOM      8  C   UNL     1      -2.372  -0.064   1.280  0.00  0.00    +0.023 A 
BRANCH   3  10
ATOM      9  C   UNL     1      -0.135   1.585   1.761  0.00  0.00    +0.129 C 
ATOM     10  N   UNL     1      -0.067   0.467   0.816  0.00  0.00    -0.336 N 
ATOM     11  C   UNL     1       1.181   0.189   0.100  0.00  0.00    +0.129 C 
ENDBRANCH   3  10
ENDBRANCH   1   6
BRANCH   2  12
ATOM     12  C   UNL     1      -6.000  -0.768   0.164  0.00  0.00    +0.277 C 
ATOM     13  O   UNL     1      -6.363  -0.314   1.234  0.00  0.00    -0.267 OA
ATOM     14  N   UNL     1      -5.744   0.060  -0.868  0.00  0.00    -0.202 N 
ATOM     15  H   UNL     1      -5.525  -0.304  -1.740  0.00  0.00    +0.178 HD
BRANCH  14  16
ATOM     16  N   UNL     1      -5.793   1.448  -0.681  0.00  0.00    -0.187 NA
ATOM     17  C   UNL     1      -5.646   2.245  -1.695  0.00  0.00    +0.142 C 
BRANCH  17  18
ATOM     18  C   UNL     1      -5.588   3.703  -1.484  0.00  0.00    +0.036 A 
ATOM     19  C   UNL     1      -5.538   4.569  -2.579  0.00  0.00    +0.013 A 
ATOM     20  C   UNL     1      -5.484   5.932  -2.374  0.00  0.00    +0.001 A 
ATOM     21  C   UNL     1      -5.477   6.445  -1.089  0.00  0.00    +0.004 A 
ATOM     22  C   UNL     1      -5.526   5.598   0.003  0.00  0.00    +0.046 A 
ATOM     23  C   UNL     1      -5.587   4.227  -0.184  0.00  0.00    +0.130 A 
BRANCH  23  24
ATOM     24  O   UNL     1      -5.641   3.394   0.887  0.00  0.00    -0.480 OA
BRANCH  24  25
ATOM     25  C   UNL     1      -5.743   4.002   2.176  0.00  0.00    +0.353 C 
BRANCH  25  26
ATOM     26  C   UNL     1      -5.670   2.938   3.241  0.00  0.00    +0.393 C 
ATOM     27  O   UNL     1      -5.445   1.780   2.931  0.00  0.00    -0.243 OA
ATOM     28  O   UNL     1      -5.837   3.234   4.412  0.00  0.00    -0.243 OA
ENDBRANCH  25  26
ENDBRANCH  24  25
ENDBRANCH  23  24
ENDBRANCH  17  18
ENDBRANCH  14  16
ENDBRANCH   2  12
BRANCH   2  29
ATOM     29  N   UNL     1      -6.969  -3.039  -0.096  0.00  0.00    -0.277 N 
ATOM     30  C   UNL     1      -8.202  -2.496  -0.064  0.00  0.00    +0.248 C 
ATOM     31  O   UNL     1      -8.337  -1.304   0.134  0.00  0.00    -0.270 OA
ATOM     32  H   UNL     1      -6.864  -3.999  -0.185  0.00  0.00    +0.155 HD
BRANCH  30  33
ATOM     33  C   UNL     1      -9.391  -3.350  -0.269  0.00  0.00    +0.037 A 
ATOM     34  C   UNL     1      -9.241  -4.720  -0.491  0.00  0.00    +0.013 A 
ATOM     35  C   UNL     1     -10.354  -5.511  -0.682  0.00  0.00    +0.001 A 
ATOM     36  C   UNL     1     -11.619  -4.950  -0.653  0.00  0.00    +0.000 A 
ATOM     37  C   UNL     1     -11.775  -3.592  -0.435  0.00  0.00    +0.001 A 
ATOM     38  C   UNL     1     -10.670  -2.791  -0.236  0.00  0.00    +0.013 A 
ENDBRANCH  30  33
ENDBRANCH   2  29
TORSDOF 10
