REMARK  Name = ZINC41023246
REMARK  11 active torsions:
REMARK  status: ('A' for Active; 'I' for Inactive)
REMARK    1  A    between atoms: C_1  and  C_2
REMARK    2  A    between atoms: C_2  and  C_3
REMARK    3  A    between atoms: C_3  and  S_4
REMARK    4  A    between atoms: S_4  and  C_5
REMARK    5  A    between atoms: C_10  and  C_28
REMARK    6  A    between atoms: C_12  and  C_16
REMARK    7  A    between atoms: C_13  and  C_15
REMARK    8  A    between atoms: N_18  and  C_19
REMARK    9  A    between atoms: C_24  and  O_25
REMARK   10  A    between atoms: O_25  and  C_26
REMARK   11  A    between atoms: C_26  and  C_27
REMARK                            x       y       z     vdW  Elec       q    Type
REMARK                         _______ _______ _______ _____ _____    ______ ____
ROOT
ATOM      1  C   UNL     1       1.802  -2.782   2.591  0.00  0.00    +0.210 A 
ATOM      2  N   UNL     1       2.269  -1.919   3.505  0.00  0.00    -0.187 NA
ATOM      3  C   UNL     1       2.825  -2.579   4.484  0.00  0.00    +0.219 A 
ATOM      4  N   UNL     1       2.719  -3.903   4.213  0.00  0.00    -0.219 N 
ATOM      5  N   UNL     1       2.055  -4.009   2.992  0.00  0.00    -0.141 NA
ATOM      6  C   UNL     1       3.223  -4.951   5.096  0.00  0.00    +0.184 C 
ATOM      7  C   UNL     1       4.109  -4.338   6.148  0.00  0.00    +0.061 C 
ATOM      8  C   UNL     1       4.176  -3.017   6.369  0.00  0.00    +0.018 C 
ATOM      9  N   UNL     1       3.444  -2.115   5.637  0.00  0.00    -0.287 N 
ATOM     10  C   UNL     1       5.085  -2.506   7.456  0.00  0.00    +0.061 C 
ATOM     11  H   UNL     1       3.362  -1.189   5.915  0.00  0.00    +0.155 HD
ENDROOT
BRANCH   6  12
ATOM     12  C   UNL     1       2.064  -5.650   5.760  0.00  0.00    +0.019 A 
ATOM     13  C   UNL     1       1.713  -6.958   5.707  0.00  0.00    +0.013 A 
ATOM     14  C   UNL     1       0.597  -7.380   6.405  0.00  0.00    +0.008 A 
ATOM     15  C   UNL     1      -0.113  -6.474   7.122  0.00  0.00    +0.045 A 
ATOM     16  S   UNL     1       0.803  -4.971   6.826  0.00  0.00    -0.099 S 
ENDBRANCH   6  12
BRANCH   7  17
ATOM     17  C   UNL     1       4.907  -5.196   6.941  0.00  0.00    +0.248 C 
ATOM     18  O   UNL     1       5.911  -5.700   6.471  0.00  0.00    -0.270 OA
ATOM     19  N   UNL     1       4.556  -5.455   8.216  0.00  0.00    -0.279 N 
ATOM     20  H   UNL     1       3.725  -5.104   8.572  0.00  0.00    +0.155 HD
BRANCH  19  21
ATOM     21  C   UNL     1       5.393  -6.230   9.029  0.00  0.00    +0.076 A 
ATOM     22  C   UNL     1       6.122  -7.275   8.480  0.00  0.00    +0.027 A 
ATOM     23  C   UNL     1       6.947  -8.039   9.284  0.00  0.00    +0.002 A 
ATOM     24  C   UNL     1       7.048  -7.764  10.636  0.00  0.00    +0.004 A 
ATOM     25  C   UNL     1       6.324  -6.725  11.190  0.00  0.00    +0.047 A 
ATOM     26  C   UNL     1       5.499  -5.951  10.390  0.00  0.00    +0.142 A 
BRANCH  26  27
ATOM     27  O   UNL     1       4.791  -4.925  10.933  0.00  0.00    -0.490 OA
BRANCH  27  28
ATOM     28  C   UNL     1       4.949  -4.697  12.334  0.00  0.00    +0.226 C 
ATOM     29  C   UNL     1       4.081  -3.511  12.760  0.00  0.00    +0.048 C 
ENDBRANCH  27  28
ENDBRANCH  26  27
ENDBRANCH  19  21
ENDBRANCH   7  17
BRANCH   1  30
ATOM     30  S   UNL     1       0.977  -2.344   1.097  0.00  0.00    -0.084 S 
BRANCH  30  31
ATOM     31  C   UNL     1       0.944  -0.530   1.130  0.00  0.00    +0.077 C 
BRANCH  31  33
ATOM     32  C   UNL     1       0.217   1.520  -0.100  0.00  0.00    +0.004 C 
ATOM     33  C   UNL     1       0.244  -0.010  -0.128  0.00  0.00    +0.008 C 
ENDBRANCH  31  33
ENDBRANCH  30  31
ENDBRANCH   1  30
TORSDOF 8
