REMARK  Name = ZINC21601907
REMARK  8 active torsions:
REMARK  status: ('A' for Active; 'I' for Inactive)
REMARK    1  A    between atoms: C_1  and  C_2
REMARK    2  A    between atoms: C_2  and  C_4
REMARK    3  A    between atoms: C_2  and  O_14
REMARK    4  A    between atoms: N_6  and  C_7
REMARK    5  A    between atoms: C_8  and  C_12
REMARK    6  A    between atoms: O_14  and  C_15
REMARK    7  A    between atoms: C_15  and  C_17
REMARK    8  A    between atoms: C_31  and  C_32
REMARK                            x       y       z     vdW  Elec       q    Type
REMARK                         _______ _______ _______ _____ _____    ______ ____
ROOT
ATOM      1  C   UNL     1       3.650   2.153   0.596  0.00  0.00    +0.073 A 
ATOM      2  C   UNL     1       3.690   3.499   0.022  0.00  0.00    +0.015 A 
ATOM      3  C   UNL     1       4.887   4.214  -0.081  0.00  0.00    +0.011 A 
ATOM      4  C   UNL     1       4.880   5.466  -0.624  0.00  0.00    +0.001 A 
ATOM      5  C   UNL     1       3.695   6.040  -1.077  0.00  0.00    +0.002 A 
ATOM      6  C   UNL     1       2.513   5.372  -0.991  0.00  0.00    +0.028 A 
ATOM      7  C   UNL     1       2.481   4.079  -0.436  0.00  0.00    +0.072 A 
ATOM      8  N   UNL     1       1.339   3.400  -0.338  0.00  0.00    -0.247 NA
ATOM      9  C   UNL     1       1.274   2.182   0.178  0.00  0.00    +0.072 A 
ATOM     10  C   UNL     1       2.418   1.516   0.658  0.00  0.00    -0.007 A 
ATOM     11  C   UNL     1       2.346   0.130   1.236  0.00  0.00    +0.038 C 
ATOM     12  C   UNL     1       0.937  -0.193   1.726  0.00  0.00    +0.009 C 
ATOM     13  C   UNL     1      -0.061   0.035   0.584  0.00  0.00    +0.038 C 
ATOM     14  C   UNL     1      -0.040   1.512   0.250  0.00  0.00    -0.018 C 
ATOM     15  C   UNL     1      -1.184   2.191   0.020  0.00  0.00    +0.052 C 
ENDROOT
BRANCH  15  16
ATOM     16  C   UNL     1      -2.453   1.472  -0.089  0.00  0.00    +0.128 A 
ATOM     17  C   UNL     1      -3.692   2.040  -0.188  0.00  0.00    +0.049 A 
ATOM     18  C   UNL     1      -4.615   0.983  -0.273  0.00  0.00    +0.042 A 
ATOM     19  C   UNL     1      -3.910  -0.166  -0.213  0.00  0.00    +0.195 A 
ATOM     20  O   UNL     1      -2.606   0.132  -0.102  0.00  0.00    -0.464 OA
ENDBRANCH  15  16
BRANCH   1  21
ATOM     21  C   UNL     1       4.877   1.495   1.092  0.00  0.00    +0.341 C 
ATOM     22  O   UNL     1       5.546   0.813   0.342  0.00  0.00    -0.245 OA
BRANCH  21  23
ATOM     23  O   UNL     1       5.253   1.652   2.376  0.00  0.00    -0.449 OA
BRANCH  23  25
ATOM     24  C   UNL     1       6.124  -0.422   3.309  0.00  0.00    +0.062 C 
ATOM     25  C   UNL     1       6.469   0.977   2.794  0.00  0.00    +0.259 C 
BRANCH  25  26
ATOM     26  C   UNL     1       7.130   1.768   3.893  0.00  0.00    +0.258 C 
ATOM     27  O   UNL     1       6.582   2.750   4.348  0.00  0.00    -0.271 OA
ATOM     28  N   UNL     1       8.331   1.385   4.370  0.00  0.00    -0.276 N 
ATOM     29  H   UNL     1       8.828   0.495   3.957  0.00  0.00    +0.155 HD
BRANCH  28  30
ATOM     30  C   UNL     1       8.940   2.114   5.382  0.00  0.00    +0.089 A 
ATOM     31  C   UNL     1      10.161   1.876   6.002  0.00  0.00    +0.080 A 
ATOM     32  C   UNL     1      10.557   2.804   7.033  0.00  0.00    +0.028 A 
ATOM     33  C   UNL     1       9.710   3.812   7.311  0.00  0.00    +0.048 A 
ATOM     34  S   UNL     1       8.360   3.534   6.183  0.00  0.00    -0.081 S 
BRANCH  31  35
ATOM     35  C   UNL     1      10.986   0.766   5.632  0.00  0.00    +0.102 C 
ATOM     36  N   UNL     1      11.642  -0.115   5.340  0.00  0.00    -0.191 NA
ENDBRANCH  31  35
ENDBRANCH  28  30
ENDBRANCH  25  26
ENDBRANCH  23  25
ENDBRANCH  21  23
ENDBRANCH   1  21
TORSDOF 7
