REMARK  Name = ZINC33863527
REMARK  5 active torsions:
REMARK  status: ('A' for Active; 'I' for Inactive)
REMARK    1  A    between atoms: C_1  and  C_2
REMARK    2  A    between atoms: C_2  and  C_4
REMARK    3  A    between atoms: C_2  and  N_7
REMARK    4  A    between atoms: C_8  and  C_26
REMARK    5  A    between atoms: N_17  and  C_20
REMARK                            x       y       z     vdW  Elec       q    Type
REMARK                         _______ _______ _______ _____ _____    ______ ____
ROOT
ATOM      1  N   UNL     1      -1.308  -0.510   0.059  0.00  0.00    -0.167 NA
ATOM      2  C   UNL     1      -1.336  -1.977   0.355  0.00  0.00    +0.131 C 
ATOM      3  C   UNL     1      -2.190  -2.551  -0.766  0.00  0.00    +0.139 C 
ATOM      4  C   UNL     1      -3.138  -1.310  -0.980  0.00  0.00    +0.241 C 
ATOM      5  O   UNL     1      -2.251  -0.270  -1.078  0.00  0.00    -0.282 OA
ATOM      6  C   UNL     1      -4.231  -1.914  -1.722  0.00  0.00    +0.254 C 
ATOM      7  O   UNL     1      -4.907  -1.397  -2.585  0.00  0.00    -0.272 OA
ATOM      8  N   UNL     1      -4.334  -3.192  -1.238  0.00  0.00    -0.236 N 
ATOM      9  C   UNL     1      -3.247  -3.571  -0.482  0.00  0.00    +0.230 C 
ATOM     10  O   UNL     1      -3.160  -4.524   0.261  0.00  0.00    -0.275 OA
ENDROOT
BRANCH   2  11
ATOM     11  C   UNL     1       0.056  -2.552   0.313  0.00  0.00    -0.012 A 
ATOM     12  C   UNL     1       1.101  -1.909   0.976  0.00  0.00    -0.011 A 
ATOM     13  C   UNL     1       0.882  -0.715   1.695  0.00  0.00    +0.009 A 
ATOM     14  C   UNL     1       1.921  -0.114   2.329  0.00  0.00    +0.001 A 
ATOM     15  C   UNL     1       3.210  -0.647   2.291  0.00  0.00    +0.001 A 
ATOM     16  C   UNL     1       3.490  -1.792   1.617  0.00  0.00    +0.010 A 
ATOM     17  C   UNL     1       2.455  -2.469   0.936  0.00  0.00    +0.001 A 
ATOM     18  C   UNL     1       2.707  -3.648   0.234  0.00  0.00    +0.056 A 
ATOM     19  C   UNL     1       1.662  -4.290  -0.429  0.00  0.00    +0.001 A 
ATOM     20  C   UNL     1       0.306  -3.734  -0.383  0.00  0.00    -0.011 A 
ATOM     21  C   UNL     1      -0.730  -4.413  -1.060  0.00  0.00    +0.009 A 
ATOM     22  C   UNL     1      -0.452  -5.562  -1.728  0.00  0.00    +0.001 A 
ATOM     23  C   UNL     1       0.837  -6.095  -1.766  0.00  0.00    +0.001 A 
ATOM     24  C   UNL     1       1.881  -5.485  -1.148  0.00  0.00    +0.010 A 
ATOM     25 CL   UNL     1       4.311  -4.311   0.187  0.00  0.00    -0.082 Cl
ENDBRANCH   2  11
BRANCH   8  26
ATOM     26  C   UNL     1      -5.475  -4.070  -1.504  0.00  0.00    +0.084 C 
ATOM     27  C   UNL     1      -5.609  -4.289  -3.013  0.00  0.00    +0.023 C 
ATOM     28  C   UNL     1      -6.801  -5.207  -3.291  0.00  0.00    +0.002 C 
ATOM     29  C   UNL     1      -8.079  -4.559  -2.755  0.00  0.00    +0.000 C 
ATOM     30  C   UNL     1      -7.946  -4.340  -1.247  0.00  0.00    +0.002 C 
ATOM     31  C   UNL     1      -6.753  -3.422  -0.968  0.00  0.00    +0.023 C 
ENDBRANCH   8  26
BRANCH   1  33
ATOM     32  C   UNL     1       0.114   0.290  -1.767  0.00  0.00    +0.036 C 
ATOM     33  C   UNL     1       0.050  -0.067  -0.281  0.00  0.00    +0.167 C 
BRANCH  33  34
ATOM     34  C   UNL     1       0.404   1.145   0.542  0.00  0.00    +0.230 C 
ATOM     35  O   UNL     1      -0.437   1.669   1.242  0.00  0.00    -0.274 OA
ATOM     36  N   UNL     1       1.654   1.647   0.501  0.00  0.00    -0.328 N 
ATOM     37  H   UNL     1       2.327   1.227  -0.059  0.00  0.00    +0.145 HD
ATOM     38  H   UNL     1       1.882   2.426   1.031  0.00  0.00    +0.145 HD
ENDBRANCH  33  34
ENDBRANCH   1  33
TORSDOF 4
