REMARK  Name = ZINC01817113
REMARK  2 active torsions:
REMARK  status: ('A' for Active; 'I' for Inactive)
REMARK    1  A    between atoms: C_4  and  C_7
REMARK    2  A    between atoms: C_17  and  C_19
REMARK                            x       y       z     vdW  Elec       q    Type
REMARK                         _______ _______ _______ _____ _____    ______ ____
ROOT
ATOM      1  C   UNL     1       3.711  -0.707  -0.038  0.00  0.00    +0.019 C 
ATOM      2  C   UNL     1       3.791  -1.579  -1.292  0.00  0.00    +0.013 C 
ATOM      3  C   UNL     1       5.124  -2.329  -1.308  0.00  0.00    +0.067 C 
ATOM      4  C   UNL     1       5.220  -3.223  -0.066  0.00  0.00    +0.180 C 
ATOM      5  C   UNL     1       5.150  -2.343   1.187  0.00  0.00    +0.067 C 
ATOM      6  C   UNL     1       3.817  -1.592   1.206  0.00  0.00    +0.013 C 
ATOM      7  N   UNL     1       6.446  -3.980  -0.082  0.00  0.00    -0.177 NA
ATOM      8  C   UNL     1       6.422  -4.981  -1.193  0.00  0.00    +0.138 C 
ATOM      9  C   UNL     1       7.856  -5.433  -1.200  0.00  0.00    +0.023 C 
ATOM     10  C   UNL     1       8.542  -4.455  -0.577  0.00  0.00    +0.047 C 
ATOM     11  N   UNL     1       7.663  -3.421  -0.195  0.00  0.00    -0.273 N 
ATOM     12  C   UNL     1       5.416  -5.990  -0.726  0.00  0.00    +0.018 A 
ATOM     13  C   UNL     1       5.580  -7.344  -0.845  0.00  0.00    +0.024 A 
ATOM     14  C   UNL     1       4.597  -8.199  -0.368  0.00  0.00    +0.018 A 
ATOM     15  C   UNL     1       3.461  -7.677   0.225  0.00  0.00    +0.019 A 
ATOM     16  C   UNL     1       3.292  -6.311   0.340  0.00  0.00    +0.047 A 
ATOM     17  C   UNL     1       4.266  -5.448  -0.141  0.00  0.00    +0.128 A 
ATOM     18  O   UNL     1       4.100  -4.120  -0.060  0.00  0.00    -0.469 OA
ATOM     19 BR   UNL     1       4.810 -10.071  -0.526  0.00  0.00    -0.050 Br
ATOM     20  H   UNL     1       7.892  -2.491  -0.042  0.00  0.00    +0.167 HD
ENDROOT
BRANCH  10  21
ATOM     21  C   UNL     1      10.002  -4.464  -0.331  0.00  0.00    -0.003 A 
ATOM     22  C   UNL     1      10.777  -5.541  -0.760  0.00  0.00    +0.011 A 
ATOM     23  C   UNL     1      12.138  -5.544  -0.528  0.00  0.00    +0.016 A 
ATOM     24  C   UNL     1      12.733  -4.481   0.129  0.00  0.00    +0.018 A 
ATOM     25  C   UNL     1      11.968  -3.409   0.557  0.00  0.00    +0.016 A 
ATOM     26  C   UNL     1      10.608  -3.393   0.326  0.00  0.00    +0.011 A 
ATOM     27 BR   UNL     1      14.597  -4.493   0.444  0.00  0.00    -0.050 Br
ENDBRANCH  10  21
BRANCH   1  31
ATOM     28  C   UNL     1      -0.017   1.378   0.010  0.00  0.00    +0.000 A 
ATOM     29  C   UNL     1       1.171   2.086   0.002  0.00  0.00    +0.000 A 
ATOM     30  C   UNL     1       2.377   1.411  -0.013  0.00  0.00    +0.004 A 
ATOM     31  C   UNL     1       2.396   0.029  -0.020  0.00  0.00    -0.044 A 
ATOM     32  C   UNL     1       1.208  -0.679  -0.012  0.00  0.00    +0.004 A 
ATOM     33  C   UNL     1       0.002  -0.004   0.002  0.00  0.00    +0.000 A 
ENDBRANCH   1  31
TORSDOF 2
