REMARK  Name = ZINC12497384
REMARK  10 active torsions:
REMARK  status: ('A' for Active; 'I' for Inactive)
REMARK    1  A    between atoms: C_1  and  C_2
REMARK    2  A    between atoms: C_5  and  N_8
REMARK    3  A    between atoms: C_13  and  C_30
REMARK    4  A    between atoms: C_15  and  C_20
REMARK    5  A    between atoms: C_15  and  C_26
REMARK    6  A    between atoms: C_26  and  O_28
REMARK    7  A    between atoms: O_28  and  C_29
REMARK    8  A    between atoms: C_33  and  O_38
REMARK    9  A    between atoms: C_34  and  O_36
REMARK   10  A    between atoms: O_36  and  C_37
REMARK                            x       y       z     vdW  Elec       q    Type
REMARK                         _______ _______ _______ _____ _____    ______ ____
ROOT
ATOM      1  N   UNL     1      -1.425   7.063   2.933  0.00  0.00    -0.210 N 
ATOM      2  C   UNL     1      -1.203   6.599   4.206  0.00  0.00    +0.229 C 
ATOM      3  O   UNL     1      -0.838   7.235   5.171  0.00  0.00    -0.275 OA
ATOM      4  C   UNL     1      -1.503   5.171   4.142  0.00  0.00    +0.078 C 
ATOM      5  C   UNL     1      -1.017   3.984   4.890  0.00  0.00    -0.026 C 
ATOM      6  C   UNL     1      -1.489   3.443   2.579  0.00  0.00    +0.070 C 
ATOM      7  C   UNL     1      -0.968   4.856   2.689  0.00  0.00    +0.090 C 
ATOM      8  C   UNL     1      -1.522   6.051   2.014  0.00  0.00    +0.229 C 
ATOM      9  O   UNL     1      -1.965   6.120   0.888  0.00  0.00    -0.275 OA
ATOM     10  N   UNL     1      -1.114   2.868   3.906  0.00  0.00    +0.398 N 
ATOM     11  H   UNL     1      -1.832   2.199   4.210  0.00  0.00    -0.083 HD
ATOM     12  H   UNL     1      -0.209   2.389   3.833  0.00  0.00    -0.083 HD
ENDROOT
BRANCH   1  17
ATOM     13  C   UNL     1      -1.889  12.565   1.623  0.00  0.00    +0.044 C 
ATOM     14  C   UNL     1      -1.767  11.104   1.971  0.00  0.00    -0.050 A 
ATOM     15  C   UNL     1      -1.544  10.723   3.281  0.00  0.00    +0.005 A 
ATOM     16  C   UNL     1      -1.430   9.385   3.603  0.00  0.00    +0.024 A 
ATOM     17  C   UNL     1      -1.540   8.422   2.610  0.00  0.00    +0.044 A 
ATOM     18  C   UNL     1      -1.759   8.807   1.294  0.00  0.00    +0.024 A 
ATOM     19  C   UNL     1      -1.877  10.147   0.979  0.00  0.00    +0.005 A 
ENDBRANCH   1  17
BRANCH   6  20
ATOM     20  C   UNL     1      -2.985   3.437   2.391  0.00  0.00    -0.047 A 
ATOM     21  C   UNL     1      -3.816   3.190   3.467  0.00  0.00    +0.003 A 
ATOM     22  C   UNL     1      -5.187   3.189   3.296  0.00  0.00    +0.000 A 
ATOM     23  C   UNL     1      -5.728   3.426   2.046  0.00  0.00    +0.000 A 
ATOM     24  C   UNL     1      -4.896   3.668   0.968  0.00  0.00    +0.000 A 
ATOM     25  C   UNL     1      -3.525   3.673   1.141  0.00  0.00    +0.003 A 
ENDBRANCH   6  20
BRANCH   5  26
ATOM     26  C   UNL     1       0.412   4.186   5.326  0.00  0.00    -0.057 A 
ATOM     27  C   UNL     1       1.442   3.985   4.426  0.00  0.00    +0.006 A 
ATOM     28  C   UNL     1       2.754   4.170   4.821  0.00  0.00    +0.049 A 
ATOM     29  C   UNL     1       3.039   4.558   6.120  0.00  0.00    +0.158 A 
ATOM     30  C   UNL     1       2.002   4.761   7.025  0.00  0.00    +0.161 A 
ATOM     31  C   UNL     1       0.689   4.579   6.622  0.00  0.00    +0.051 A 
BRANCH  30  32
ATOM     32  O   UNL     1       2.276   5.142   8.302  0.00  0.00    -0.491 OA
ATOM     33  C   UNL     1       1.162   5.331   9.176  0.00  0.00    +0.277 C 
ENDBRANCH  30  32
BRANCH  29  34
ATOM     34  O   UNL     1       4.329   4.740   6.510  0.00  0.00    -0.503 OA
ATOM     35  H   UNL     1       4.656   5.641   6.379  0.00  0.00    +0.292 HD
ENDBRANCH  29  34
ENDBRANCH   5  26
BRANCH   6  36
ATOM     36  C   UNL     1      -0.808   2.706   1.454  0.00  0.00    +0.301 C 
ATOM     37  O   UNL     1      -0.334   3.321   0.529  0.00  0.00    -0.252 OA
BRANCH  36  38
ATOM     38  O   UNL     1      -0.727   1.367   1.482  0.00  0.00    -0.469 OA
ATOM     39  C   UNL     1      -0.056   0.724   0.365  0.00  0.00    +0.280 C 
ENDBRANCH  36  38
ENDBRANCH   6  36
TORSDOF 7
