REMARK  Name = ZINC63243306
REMARK  9 active torsions:
REMARK  status: ('A' for Active; 'I' for Inactive)
REMARK    1  A    between atoms: C_1  and  C_2
REMARK    2  A    between atoms: C_4  and  C_27
REMARK    3  A    between atoms: C_5  and  S_23
REMARK    4  A    between atoms: C_7  and  C_8
REMARK    5  A    between atoms: N_10  and  C_11
REMARK    6  A    between atoms: C_11  and  C_12
REMARK    7  A    between atoms: C_11  and  C_13
REMARK    8  A    between atoms: C_14  and  C_22
REMARK    9  A    between atoms: S_23  and  N_26
REMARK                            x       y       z     vdW  Elec       q    Type
REMARK                         _______ _______ _______ _____ _____    ______ ____
ROOT
ATOM      1  C   UNL     1       0.242   0.021   2.481  0.00  0.00    +0.245 C 
ATOM      2  O   UNL     1       0.135   1.232   2.503  0.00  0.00    -0.270 OA
ATOM      3  N   UNL     1       0.465  -0.656   3.625  0.00  0.00    -0.302 N 
ATOM      4  H   UNL     1       0.551  -1.622   3.607  0.00  0.00    +0.150 HD
ENDROOT
BRANCH   1  11
ATOM      5  C   UNL     1      -0.511   1.452   0.082  0.00  0.00    +0.044 C 
ATOM      6  C   UNL     1      -0.234  -0.028   0.036  0.00  0.00    -0.038 A 
ATOM      7  C   UNL     1      -0.334  -0.714  -1.157  0.00  0.00    +0.009 A 
ATOM      8  C   UNL     1      -0.080  -2.073  -1.200  0.00  0.00    -0.024 A 
ATOM      9  C   UNL     1       0.275  -2.754  -0.049  0.00  0.00    +0.109 A 
ATOM     10  C   UNL     1       0.378  -2.080   1.150  0.00  0.00    +0.042 A 
ATOM     11  C   UNL     1       0.128  -0.708   1.200  0.00  0.00    +0.041 A 
ATOM     12  C   UNL     1      -0.190  -2.815  -2.507  0.00  0.00    +0.046 C 
BRANCH   9  13
ATOM     13  S   UNL     1       0.595  -4.486  -0.115  0.00  0.00    +0.056 S 
ATOM     14  O   UNL     1       1.487  -4.692  -1.202  0.00  0.00    -0.153 OA
ATOM     15  O   UNL     1       0.903  -4.893   1.211  0.00  0.00    -0.153 OA
BRANCH  13  16
ATOM     16  N   UNL     1      -0.827  -5.231  -0.521  0.00  0.00    -0.204 NA
ATOM     17  H   UNL     1      -0.813  -6.062  -1.021  0.00  0.00    +0.144 HD
ATOM     18  H   UNL     1      -1.674  -4.836  -0.260  0.00  0.00    +0.144 HD
ENDBRANCH  13  16
ENDBRANCH   9  13
ENDBRANCH   1  11
BRANCH   3  19
ATOM     19  C   UNL     1       0.578   0.067   4.894  0.00  0.00    +0.137 C 
ATOM     20  C   UNL     1      -0.818   0.298   5.475  0.00  0.00    +0.036 C 
BRANCH  19  21
ATOM     21  C   UNL     1       1.397  -0.746   5.863  0.00  0.00    +0.129 A 
ATOM     22  C   UNL     1       2.372  -0.257   6.643  0.00  0.00    +0.000 A 
ATOM     23  C   UNL     1       2.888  -1.393   7.414  0.00  0.00    +0.023 A 
ATOM     24  C   UNL     1       3.884  -1.545   8.378  0.00  0.00    +0.012 A 
ATOM     25  C   UNL     1       4.123  -2.779   8.917  0.00  0.00    +0.001 A 
ATOM     26  C   UNL     1       3.381  -3.879   8.510  0.00  0.00    +0.004 A 
ATOM     27  C   UNL     1       2.393  -3.748   7.558  0.00  0.00    +0.047 A 
ATOM     28  C   UNL     1       2.133  -2.503   6.998  0.00  0.00    +0.136 A 
ATOM     29  O   UNL     1       1.253  -2.066   6.076  0.00  0.00    -0.458 OA
ATOM     30  C   UNL     1       2.842   1.173   6.712  0.00  0.00    +0.048 C 
ENDBRANCH  19  21
ENDBRANCH   3  19
TORSDOF 5
