REMARK  Name = ZINC38732361
REMARK  5 active torsions:
REMARK  status: ('A' for Active; 'I' for Inactive)
REMARK    1  A    between atoms: C_4  and  C_7
REMARK    2  A    between atoms: C_7  and  C_9
REMARK    3  A    between atoms: C_7  and  N_15
REMARK    4  A    between atoms: C_16  and  C_18
REMARK    5  A    between atoms: C_24  and  C_26
REMARK                            x       y       z     vdW  Elec       q    Type
REMARK                         _______ _______ _______ _____ _____    ______ ____
ROOT
ATOM      1  C   UNL     1       3.123  -3.594  -2.858  0.00  0.00    +0.087 C 
ATOM      2  C   UNL     1       1.694  -3.946  -3.277  0.00  0.00    +0.013 C 
ATOM      3  C   UNL     1       1.727  -5.098  -4.283  0.00  0.00    +0.001 C 
ATOM      4  C   UNL     1       2.530  -4.677  -5.515  0.00  0.00    +0.001 C 
ATOM      5  C   UNL     1       3.959  -4.324  -5.096  0.00  0.00    +0.013 C 
ATOM      6  C   UNL     1       3.926  -3.172  -4.090  0.00  0.00    +0.087 C 
ENDROOT
BRANCH   6   7
ATOM      7  C   UNL     1       5.333  -2.825  -3.678  0.00  0.00    +0.219 C 
ATOM      8  O   UNL     1       5.823  -3.344  -2.697  0.00  0.00    -0.275 OA
ATOM      9  N   UNL     1       6.048  -1.938  -4.399  0.00  0.00    -0.298 N 
ATOM     10  C   UNL     1       5.508  -1.383  -5.648  0.00  0.00    +0.126 C 
ATOM     11  C   UNL     1       5.523   0.148  -5.550  0.00  0.00    +0.125 C 
ATOM     12  N   UNL     1       6.855   0.577  -5.101  0.00  0.00    -0.314 N 
ATOM     13  C   UNL     1       7.395   0.021  -3.852  0.00  0.00    +0.125 C 
ATOM     14  C   UNL     1       7.377  -1.506  -3.947  0.00  0.00    +0.126 C 
ATOM     15  C   UNL     1       7.592   1.491  -5.844  0.00  0.00    +0.099 A 
ATOM     16  C   UNL     1       7.013   2.105  -6.951  0.00  0.00    +0.042 A 
ATOM     17  C   UNL     1       7.758   3.013  -7.682  0.00  0.00    +0.005 A 
ATOM     18  C   UNL     1       9.061   3.278  -7.280  0.00  0.00    +0.018 A 
ATOM     19  C   UNL     1       9.571   2.632  -6.172  0.00  0.00    +0.084 A 
ATOM     20  N   UNL     1       8.836   1.774  -5.490  0.00  0.00    -0.350 N 
ATOM     21  H   UNL     1       9.217   1.337  -4.713  0.00  0.00    +0.166 HD
ENDBRANCH   6   7
BRANCH   1  23
ATOM     22  N   UNL     1       2.435  -2.603  -0.698  0.00  0.00    -0.303 N 
ATOM     23  C   UNL     1       3.090  -2.459  -1.867  0.00  0.00    +0.218 C 
ATOM     24  O   UNL     1       3.654  -1.416  -2.121  0.00  0.00    -0.275 OA
ATOM     25  H   UNL     1       1.984  -3.438  -0.495  0.00  0.00    +0.150 HD
BRANCH  22  26
ATOM     26  C   UNL     1       2.403  -1.500   0.265  0.00  0.00    +0.152 C 
BRANCH  26  30
ATOM     27  C   UNL     1      -0.833   1.122  -0.681  0.00  0.00    +0.000 A 
ATOM     28  C   UNL     1       0.380   1.642  -0.270  0.00  0.00    +0.000 A 
ATOM     29  C   UNL     1       1.428   0.793   0.036  0.00  0.00    +0.006 A 
ATOM     30  C   UNL     1       1.261  -0.575  -0.068  0.00  0.00    -0.021 A 
ATOM     31  C   UNL     1       0.048  -1.095  -0.477  0.00  0.00    +0.006 A 
ATOM     32  C   UNL     1      -0.999  -0.246  -0.785  0.00  0.00    +0.000 A 
ENDBRANCH  26  30
BRANCH  26  33
ATOM     33  C   UNL     1       2.214  -2.052   1.655  0.00  0.00    +0.066 A 
ATOM     34  C   UNL     1       3.233  -1.933   2.581  0.00  0.00    +0.025 A 
ATOM     35  C   UNL     1       3.049  -2.443   3.857  0.00  0.00    +0.003 A 
ATOM     36  C   UNL     1       1.842  -3.058   4.154  0.00  0.00    +0.020 A 
ATOM     37  C   UNL     1       0.869  -3.140   3.175  0.00  0.00    +0.111 A 
ATOM     38  N   UNL     1       1.077  -2.638   1.974  0.00  0.00    -0.258 NA
ENDBRANCH  26  33
ENDBRANCH  22  26
ENDBRANCH   1  23
TORSDOF 5
