REMARK  Name = ZINC13065119
REMARK  12 active torsions:
REMARK  status: ('A' for Active; 'I' for Inactive)
REMARK    1  A    between atoms: C_1  and  C_2
REMARK    2  A    between atoms: C_2  and  C_3
REMARK    3  A    between atoms: C_3  and  C_5
REMARK    4  A    between atoms: C_3  and  N_66
REMARK    5  A    between atoms: N_9  and  C_10
REMARK    6  A    between atoms: C_10  and  C_11
REMARK    7  A    between atoms: C_16  and  C_17
REMARK    8  A    between atoms: C_16  and  N_66
REMARK    9  A    between atoms: C_23  and  C_24
REMARK   10  A    between atoms: C_23  and  N_66
REMARK   11  A    between atoms: C_29  and  C_37
REMARK   12  A    between atoms: C_30  and  C_36
REMARK                            x       y       z     vdW  Elec       q    Type
REMARK                         _______ _______ _______ _____ _____    ______ ____
ROOT
ATOM      1  N   UNL     1       4.113  -0.764  -1.383  0.00  0.00    +0.392 N 
ATOM      2  H   UNL     1       4.227   0.066  -1.976  0.00  0.00    -0.080 HD
ENDROOT
BRANCH   1   3
ATOM      3  C   UNL     1       5.380  -1.523  -1.370  0.00  0.00    +0.003 C 
BRANCH   3   4
ATOM      4  C   UNL     1       6.411  -0.752  -0.586  0.00  0.00    +0.139 A 
ATOM      5  N   UNL     1       6.651   0.534  -0.663  0.00  0.00    -0.115 NA
ATOM      6  N   UNL     1       7.599   0.812   0.164  0.00  0.00    -0.023 NA
ATOM      7  N   UNL     1       7.975  -0.265   0.760  0.00  0.00    -0.044 NA
ATOM      8  N   UNL     1       7.266  -1.251   0.325  0.00  0.00    -0.223 N 
BRANCH   8   9
ATOM      9  C   UNL     1       7.372  -2.651   0.745  0.00  0.00    +0.221 C 
BRANCH   9  10
ATOM     10  C   UNL     1       8.364  -3.365  -0.137  0.00  0.00    +0.126 A 
ATOM     11  C   UNL     1       9.686  -3.466   0.088  0.00  0.00    +0.046 A 
ATOM     12  C   UNL     1      10.228  -4.217  -0.981  0.00  0.00    +0.041 A 
ATOM     13  C   UNL     1       9.205  -4.522  -1.800  0.00  0.00    +0.195 A 
ATOM     14  O   UNL     1       8.079  -4.003  -1.284  0.00  0.00    -0.466 OA
ENDBRANCH   9  10
ENDBRANCH   8   9
ENDBRANCH   3   4
BRANCH   3  16
ATOM     15  C   UNL     1       6.107  -0.325  -3.439  0.00  0.00    +0.002 C 
ATOM     16  C   UNL     1       5.863  -1.699  -2.812  0.00  0.00    -0.011 C 
ENDBRANCH   3  16
ENDBRANCH   1   3
BRANCH   1  17
ATOM     17  C   UNL     1       3.770  -0.331  -0.012  0.00  0.00    -0.042 C 
BRANCH  17  18
ATOM     18  C   UNL     1       2.761   0.786  -0.096  0.00  0.00    -0.064 A 
ATOM     19  C   UNL     1       1.416   0.494  -0.223  0.00  0.00    +0.002 A 
ATOM     20  C   UNL     1       0.491   1.518  -0.301  0.00  0.00    +0.000 A 
ATOM     21  C   UNL     1       0.911   2.834  -0.251  0.00  0.00    +0.000 A 
ATOM     22  C   UNL     1       2.256   3.126  -0.124  0.00  0.00    +0.000 A 
ATOM     23  C   UNL     1       3.181   2.102  -0.047  0.00  0.00    +0.002 A 
ENDBRANCH  17  18
ENDBRANCH   1  17
BRANCH   1  24
ATOM     24  C   UNL     1       3.027  -1.602  -1.934  0.00  0.00    -0.036 C 
BRANCH  24  25
ATOM     25  C   UNL     1       2.859  -2.855  -1.114  0.00  0.00    +0.001 A 
ATOM     26  C   UNL     1       1.951  -2.888  -0.108  0.00  0.00    +0.017 A 
ATOM     27  C   UNL     1       1.810  -4.122   0.667  0.00  0.00    -0.001 A 
ATOM     28  C   UNL     1       0.885  -4.218   1.713  0.00  0.00    +0.010 A 
ATOM     29  C   UNL     1       0.781  -5.383   2.420  0.00  0.00    +0.004 A 
ATOM     30  C   UNL     1       1.584  -6.472   2.109  0.00  0.00    -0.046 A 
ATOM     31  C   UNL     1       2.500  -6.400   1.082  0.00  0.00    -0.024 A 
ATOM     32  C   UNL     1       2.624  -5.225   0.348  0.00  0.00    +0.052 A 
ATOM     33  N   UNL     1       3.533  -5.125  -0.684  0.00  0.00    -0.322 N 
ATOM     34  H   UNL     1       4.093  -5.886  -0.902  0.00  0.00    +0.169 HD
ATOM     35  C   UNL     1       3.652  -3.989  -1.393  0.00  0.00    +0.251 A 
ATOM     36  O   UNL     1       4.466  -3.937  -2.299  0.00  0.00    -0.268 OA
ATOM     37  C   UNL     1       3.364  -7.591   0.755  0.00  0.00    +0.046 C 
ATOM     38  C   UNL     1       1.451  -7.746   2.902  0.00  0.00    +0.044 C 
ENDBRANCH  24  25
ENDBRANCH   1  24
TORSDOF 9
