REMARK  Name = ZINC00684805
REMARK  9 active torsions:
REMARK  status: ('A' for Active; 'I' for Inactive)
REMARK    1  A    between atoms: C_1  and  C_2
REMARK    2  A    between atoms: C_2  and  O_3
REMARK    3  A    between atoms: O_3  and  C_4
REMARK    4  A    between atoms: C_6  and  C_12
REMARK    5  A    between atoms: C_9  and  O_10
REMARK    6  A    between atoms: C_15  and  C_26
REMARK    7  A    between atoms: N_17  and  C_25
REMARK    8  A    between atoms: C_20  and  N_24
REMARK    9  A    between atoms: C_21  and  C_22
REMARK                            x       y       z     vdW  Elec       q    Type
REMARK                         _______ _______ _______ _____ _____    ______ ____
ROOT
ATOM      1  C   UNL     1      -0.218  -4.968   0.485  0.00  0.00    +0.102 C 
ATOM      2  C   UNL     1      -1.251  -5.862  -0.152  0.00  0.00    +0.054 A 
ATOM      3  C   UNL     1      -2.538  -5.548  -0.598  0.00  0.00    +0.101 A 
ATOM      4  N   UNL     1      -3.078  -6.648  -1.087  0.00  0.00    -0.168 NA
ATOM      5  N   UNL     1      -2.147  -7.690  -0.963  0.00  0.00    -0.235 N 
ATOM      6  C   UNL     1      -1.035  -7.189  -0.387  0.00  0.00    +0.225 A 
ATOM      7  O   UNL     1       0.127  -7.809  -0.063  0.00  0.00    -0.423 OA
ATOM      8  C   UNL     1       0.980  -7.155   0.751  0.00  0.00    +0.200 C 
ATOM      9  C   UNL     1       0.876  -5.840   1.049  0.00  0.00    +0.098 C 
ATOM     10  C   UNL     1      -2.347  -9.079  -1.385  0.00  0.00    +0.176 C 
ENDROOT
BRANCH   1  13
ATOM     11  C   UNL     1       0.777  -1.811  -1.336  0.00  0.00    +0.163 A 
ATOM     12  C   UNL     1       0.253  -2.669  -0.382  0.00  0.00    +0.054 A 
ATOM     13  C   UNL     1       0.357  -4.037  -0.551  0.00  0.00    -0.030 A 
ATOM     14  C   UNL     1       0.992  -4.553  -1.666  0.00  0.00    +0.023 A 
ATOM     15  C   UNL     1       1.521  -3.702  -2.619  0.00  0.00    +0.063 A 
ATOM     16  C   UNL     1       1.416  -2.329  -2.458  0.00  0.00    +0.173 A 
ATOM     17 BR   UNL     1       2.388  -4.412  -4.143  0.00  0.00    -0.046 Br
BRANCH  16  18
ATOM     18  O   UNL     1       1.936  -1.491  -3.394  0.00  0.00    -0.503 OA
ATOM     19  H   UNL     1       2.856  -1.241  -3.230  0.00  0.00    +0.292 HD
ENDBRANCH  16  18
BRANCH  11  20
ATOM     20  O   UNL     1       0.671  -0.465  -1.174  0.00  0.00    -0.489 OA
BRANCH  20  22
ATOM     21  C   UNL     1      -0.019   1.526   0.010  0.00  0.00    +0.048 C 
ATOM     22  C   UNL     1       0.002  -0.004   0.002  0.00  0.00    +0.226 C 
ENDBRANCH  20  22
ENDBRANCH  11  20
ENDBRANCH   1  13
BRANCH   3  23
ATOM     23  C   UNL     1      -3.184  -4.213  -0.533  0.00  0.00    +0.003 A 
ATOM     24  C   UNL     1      -2.934  -3.367   0.547  0.00  0.00    +0.010 A 
ATOM     25  C   UNL     1      -3.534  -2.125   0.600  0.00  0.00    +0.001 A 
ATOM     26  C   UNL     1      -4.388  -1.723  -0.410  0.00  0.00    +0.000 A 
ATOM     27  C   UNL     1      -4.643  -2.560  -1.482  0.00  0.00    +0.001 A 
ATOM     28  C   UNL     1      -4.046  -3.802  -1.548  0.00  0.00    +0.010 A 
ENDBRANCH   3  23
BRANCH   8  29
ATOM     29  N   UNL     1       2.013  -7.864   1.310  0.00  0.00    -0.328 N 
ATOM     30  H   UNL     1       2.114  -8.809   1.115  0.00  0.00    +0.145 HD
ATOM     31  H   UNL     1       2.643  -7.421   1.900  0.00  0.00    +0.145 HD
ENDBRANCH   8  29
BRANCH   9  32
ATOM     32  C   UNL     1       1.839  -5.253   1.932  0.00  0.00    +0.101 C 
ATOM     33  N   UNL     1       2.603  -4.787   2.632  0.00  0.00    -0.191 NA
ENDBRANCH   9  32
TORSDOF 7
