REMARK  Name = ZINC31055320
REMARK  11 active torsions:
REMARK  status: ('A' for Active; 'I' for Inactive)
REMARK    1  A    between atoms: C_1  and  C_2
REMARK    2  A    between atoms: C_2  and  C_4
REMARK    3  A    between atoms: C_2  and  N_14
REMARK    4  A    between atoms: C_7  and  C_10
REMARK    5  A    between atoms: C_10  and  C_11
REMARK    6  A    between atoms: C_10  and  C_12
REMARK    7  A    between atoms: C_10  and  C_13
REMARK    8  A    between atoms: C_15  and  C_17
REMARK    9  A    between atoms: N_22  and  C_24
REMARK   10  A    between atoms: C_24  and  C_25
REMARK   11  A    between atoms: C_27  and  C_30
REMARK                            x       y       z     vdW  Elec       q    Type
REMARK                         _______ _______ _______ _____ _____    ______ ____
ROOT
ATOM      1  C   UNL     1       8.520   0.779   2.800  0.00  0.00    +0.058 C 
ATOM      2  C   UNL     1       7.864  -0.275   3.696  0.00  0.00    +0.009 C 
ATOM      3  C   UNL     1       6.342  -0.133   3.606  0.00  0.00    -0.018 C 
ATOM      4  C   UNL     1       5.905  -0.282   2.147  0.00  0.00    -0.078 C 
ATOM      5  N   UNL     1       6.560   0.750   1.331  0.00  0.00    +0.386 N 
ATOM      6  C   UNL     1       8.021   0.604   1.364  0.00  0.00    -0.065 C 
ATOM      7  H   UNL     1       6.310   1.729   1.766  0.00  0.00    -0.081 HD
ENDROOT
BRANCH   1   9
ATOM      8  N   UNL     1      10.680   0.721   4.004  0.00  0.00    -0.309 N 
ATOM      9  C   UNL     1      10.017   0.609   2.836  0.00  0.00    +0.215 C 
ATOM     10  O   UNL     1      10.625   0.371   1.814  0.00  0.00    -0.276 OA
ATOM     11  H   UNL     1      10.129   0.937   4.931  0.00  0.00    +0.149 HD
BRANCH   8  13
ATOM     12  C   UNL     1      12.476  -0.931   4.157  0.00  0.00    +0.033 C 
ATOM     13  C   UNL     1      12.135   0.555   4.039  0.00  0.00    +0.100 C 
BRANCH  13  14
ATOM     14  C   UNL     1      12.696   1.295   5.226  0.00  0.00    -0.027 A 
ATOM     15  C   UNL     1      12.023   1.277   6.434  0.00  0.00    +0.006 A 
ATOM     16  C   UNL     1      12.540   1.952   7.523  0.00  0.00    +0.004 A 
ATOM     17  C   UNL     1      13.726   2.653   7.404  0.00  0.00    -0.042 A 
ATOM     18  C   UNL     1      14.396   2.675   6.195  0.00  0.00    +0.004 A 
ATOM     19  C   UNL     1      13.882   1.996   5.106  0.00  0.00    +0.006 A 
BRANCH  17  20
ATOM     20  C   UNL     1      14.287   3.393   8.591  0.00  0.00    -0.013 C 
ATOM     21  C   UNL     1      14.398   4.882   8.257  0.00  0.00    +0.015 C 
ATOM     22  C   UNL     1      13.358   3.208   9.793  0.00  0.00    +0.015 C 
ATOM     23  C   UNL     1      15.673   2.840   8.927  0.00  0.00    +0.015 C 
ENDBRANCH  17  20
ENDBRANCH  13  14
ENDBRANCH   8  13
ENDBRANCH   1   9
BRANCH   5  24
ATOM     24  C   UNL     1       6.059   0.725  -0.049  0.00  0.00    +0.022 C 
BRANCH  24  25
ATOM     25  C   UNL     1       4.555   0.629  -0.036  0.00  0.00    +0.211 A 
ATOM     26  N   UNL     1       3.711   1.631  -0.029  0.00  0.00    -0.193 NA
ATOM     27  C   UNL     1       2.481   1.069  -0.015  0.00  0.00    +0.203 A 
ATOM     28  N   UNL     1       2.648  -0.228  -0.023  0.00  0.00    -0.056 NA
ATOM     29  O   UNL     1       3.831  -0.495  -0.035  0.00  0.00    -0.340 OA
BRANCH  27  30
ATOM     30  C   UNL     1       1.184   1.790   0.000  0.00  0.00    +0.041 A 
ATOM     31  C   UNL     1      -0.013   1.076   0.008  0.00  0.00    +0.014 A 
ATOM     32  C   UNL     1      -1.216   1.750   0.017  0.00  0.00    +0.021 A 
ATOM     33  C   UNL     1      -1.237   3.135   0.030  0.00  0.00    +0.042 A 
ATOM     34  C   UNL     1      -0.052   3.850   0.022  0.00  0.00    +0.040 A 
ATOM     35  C   UNL     1       1.159   3.184   0.008  0.00  0.00    +0.053 A 
ATOM     36 CL   UNL     1       2.645   4.082  -0.001  0.00  0.00    -0.083 Cl
ATOM     37 CL   UNL     1      -2.755   3.977   0.049  0.00  0.00    -0.083 Cl
ENDBRANCH  27  30
ENDBRANCH  24  25
ENDBRANCH   5  24
TORSDOF 7
