REMARK  Name = ZINC63117522
REMARK  9 active torsions:
REMARK  status: ('A' for Active; 'I' for Inactive)
REMARK    1  A    between atoms: C_1  and  O_2
REMARK    2  A    between atoms: O_2  and  C_3
REMARK    3  A    between atoms: C_7  and  C_11
REMARK    4  A    between atoms: C_8  and  O_9
REMARK    5  A    between atoms: O_9  and  C_10
REMARK    6  A    between atoms: C_11  and  C_13
REMARK    7  A    between atoms: C_11  and  C_28
REMARK    8  A    between atoms: C_13  and  N_14
REMARK    9  A    between atoms: C_15  and  C_17
REMARK                            x       y       z     vdW  Elec       q    Type
REMARK                         _______ _______ _______ _____ _____    ______ ____
ROOT
ATOM      1  C   UNL     1       1.394  -4.134   2.219  0.00  0.00    +0.068 C 
ENDROOT
BRANCH   1   2
ATOM      2  C   UNL     1       2.837  -4.570   2.229  0.00  0.00    -0.033 C 
ATOM      3  C   UNL     1       3.455  -5.356   1.318  0.00  0.00    -0.000 A 
ATOM      4  C   UNL     1       2.986  -6.016   0.093  0.00  0.00    +0.010 A 
ATOM      5  C   UNL     1       3.859  -6.756  -0.628  0.00  0.00    +0.001 A 
ATOM      6  C   UNL     1       5.196  -6.910  -0.235  0.00  0.00    +0.002 A 
ATOM      7  C   UNL     1       5.699  -6.335   0.877  0.00  0.00    +0.026 A 
ATOM      8  C   UNL     1       4.871  -5.533   1.710  0.00  0.00    +0.043 A 
ATOM      9  N   UNL     1       5.119  -4.882   2.821  0.00  0.00    -0.380 N 
ATOM     10  C   UNL     1       3.888  -4.212   3.255  0.00  0.00    +0.145 C 
ATOM     11  H   UNL     1       5.974  -4.846   3.276  0.00  0.00    +0.160 HD
ENDBRANCH   1   2
BRANCH   1  16
ATOM     12  C   UNL     1       0.626  -0.619   1.042  0.00  0.00    +0.162 A 
ATOM     13  C   UNL     1       1.202   0.137   2.051  0.00  0.00    +0.049 A 
ATOM     14  C   UNL     1       1.836  -0.490   3.108  0.00  0.00    +0.004 A 
ATOM     15  C   UNL     1       1.897  -1.870   3.161  0.00  0.00    +0.008 A 
ATOM     16  C   UNL     1       1.325  -2.630   2.158  0.00  0.00    +0.007 A 
ATOM     17  C   UNL     1       0.683  -2.008   1.099  0.00  0.00    +0.165 A 
BRANCH  12  19
ATOM     18  C   UNL     1      -0.017   1.425   0.010  0.00  0.00    +0.277 C 
ATOM     19  O   UNL     1       0.002  -0.004   0.002  0.00  0.00    -0.491 OA
ENDBRANCH  12  19
BRANCH  17  20
ATOM     20  O   UNL     1       0.115  -2.754   0.114  0.00  0.00    -0.491 OA
ATOM     21  C   UNL     1       0.940  -3.091  -1.003  0.00  0.00    +0.277 C 
ENDBRANCH  17  20
ENDBRANCH   1  16
BRANCH   1  22
ATOM     22  C   UNL     1       0.704  -4.625   3.493  0.00  0.00    +0.117 C 
BRANCH  22  23
ATOM     23  N   UNL     1       0.666  -6.089   3.495  0.00  0.00    -0.311 N 
ATOM     24  C   UNL     1       0.101  -6.747   4.526  0.00  0.00    +0.257 C 
ATOM     25  O   UNL     1      -0.376  -6.128   5.453  0.00  0.00    -0.272 OA
ATOM     26  H   UNL     1       1.048  -6.585   2.753  0.00  0.00    +0.149 HD
BRANCH  24  27
ATOM     27  C   UNL     1       0.062  -8.254   4.528  0.00  0.00    +0.296 C 
ATOM     28  C   UNL     1       1.490  -8.809   4.618  0.00  0.00    +0.283 C 
ATOM     29  O   UNL     1       1.415 -10.239   4.631  0.00  0.00    -0.484 OA
ATOM     30  C   UNL     1       0.494 -10.795   5.464  0.00  0.00    +0.162 A 
ATOM     31  C   UNL     1       0.604 -12.136   5.802  0.00  0.00    +0.049 A 
ATOM     32  C   UNL     1      -0.326 -12.716   6.644  0.00  0.00    +0.004 A 
ATOM     33  C   UNL     1      -1.367 -11.962   7.153  0.00  0.00    +0.004 A 
ATOM     34  C   UNL     1      -1.482 -10.625   6.821  0.00  0.00    +0.049 A 
ATOM     35  C   UNL     1      -0.551 -10.036   5.977  0.00  0.00    +0.163 A 
ATOM     36  O   UNL     1      -0.673  -8.717   5.666  0.00  0.00    -0.473 OA
ENDBRANCH  24  27
ENDBRANCH  22  23
ENDBRANCH   1  22
TORSDOF 7
