REMARK  Name = ZINC40983422
REMARK  9 active torsions:
REMARK  status: ('A' for Active; 'I' for Inactive)
REMARK    1  A    between atoms: C_1  and  C_2
REMARK    2  A    between atoms: C_2  and  C_3
REMARK    3  A    between atoms: C_3  and  C_4
REMARK    4  A    between atoms: C_4  and  S_5
REMARK    5  A    between atoms: S_5  and  C_6
REMARK    6  A    between atoms: C_11  and  C_21
REMARK    7  A    between atoms: C_25  and  O_27
REMARK    8  A    between atoms: O_27  and  C_28
REMARK    9  A    between atoms: C_28  and  C_29
REMARK                            x       y       z     vdW  Elec       q    Type
REMARK                         _______ _______ _______ _____ _____    ______ ____
ROOT
ATOM      1  C   UNL     1       1.529  -4.368  -2.621  0.00  0.00    +0.210 A 
ATOM      2  N   UNL     1       0.962  -5.052  -1.617  0.00  0.00    -0.187 NA
ATOM      3  C   UNL     1       1.096  -6.333  -1.832  0.00  0.00    +0.219 A 
ATOM      4  N   UNL     1       1.769  -6.497  -2.997  0.00  0.00    -0.220 N 
ATOM      5  N   UNL     1       2.029  -5.219  -3.491  0.00  0.00    -0.141 NA
ATOM      6  C   UNL     1       2.108  -7.802  -3.550  0.00  0.00    +0.176 C 
ATOM      7  C   UNL     1       1.324  -8.884  -2.842  0.00  0.00    +0.041 C 
ATOM      8  C   UNL     1       0.674  -8.656  -1.681  0.00  0.00    +0.020 C 
ATOM      9  N   UNL     1       0.671  -7.418  -1.083  0.00  0.00    -0.287 N 
ATOM     10  C   UNL     1      -0.081  -9.763  -0.983  0.00  0.00    +0.052 C 
ATOM     11  C   UNL     1      -0.638 -10.739  -2.022  0.00  0.00    +0.014 C 
ATOM     12  C   UNL     1       0.534 -11.297  -2.836  0.00  0.00    +0.080 C 
ATOM     13  C   UNL     1       1.295 -10.154  -3.447  0.00  0.00    +0.163 C 
ATOM     14  O   UNL     1       1.899 -10.330  -4.487  0.00  0.00    -0.292 OA
ATOM     15  H   UNL     1       0.381  -7.308  -0.164  0.00  0.00    +0.155 HD
ENDROOT
BRANCH   6  16
ATOM     16  C   UNL     1       3.583  -8.054  -3.367  0.00  0.00    -0.015 A 
ATOM     17  C   UNL     1       4.126  -8.082  -2.096  0.00  0.00    +0.006 A 
ATOM     18  C   UNL     1       5.478  -8.313  -1.925  0.00  0.00    +0.004 A 
ATOM     19  C   UNL     1       6.290  -8.517  -3.024  0.00  0.00    +0.045 A 
ATOM     20  C   UNL     1       5.747  -8.490  -4.300  0.00  0.00    +0.121 A 
ATOM     21  C   UNL     1       4.389  -8.264  -4.469  0.00  0.00    +0.051 A 
BRANCH  20  22
ATOM     22  O   UNL     1       6.544  -8.690  -5.383  0.00  0.00    -0.487 OA
BRANCH  22  23
ATOM     23  C   UNL     1       7.932  -8.923  -5.133  0.00  0.00    +0.266 C 
BRANCH  23  24
ATOM     24  C   UNL     1       8.651  -9.122  -6.442  0.00  0.00    +0.008 A 
ATOM     25  C   UNL     1       7.951  -9.056  -7.633  0.00  0.00    +0.008 A 
ATOM     26  C   UNL     1       8.611  -9.239  -8.834  0.00  0.00    +0.000 A 
ATOM     27  C   UNL     1       9.971  -9.487  -8.845  0.00  0.00    +0.001 A 
ATOM     28  C   UNL     1      10.672  -9.553  -7.656  0.00  0.00    +0.020 A 
ATOM     29  C   UNL     1      10.013  -9.364  -6.454  0.00  0.00    +0.047 A 
ATOM     30 CL   UNL     1      10.894  -9.440  -4.960  0.00  0.00    -0.083 Cl
ENDBRANCH  23  24
ENDBRANCH  22  23
ENDBRANCH  20  22
ENDBRANCH   6  16
BRANCH   1  31
ATOM     31  S   UNL     1       1.588  -2.612  -2.758  0.00  0.00    -0.084 S 
BRANCH  31  32
ATOM     32  C   UNL     1       0.739  -2.027  -1.265  0.00  0.00    +0.077 C 
BRANCH  32  33
ATOM     33  C   UNL     1       0.718  -0.497  -1.257  0.00  0.00    +0.011 C 
BRANCH  33  35
ATOM     34  C   UNL     1      -0.019   1.526   0.010  0.00  0.00    +0.004 C 
ATOM     35  C   UNL     1       0.002  -0.004   0.002  0.00  0.00    -0.003 C 
ENDBRANCH  33  35
ENDBRANCH  32  33
ENDBRANCH  31  32
ENDBRANCH   1  31
TORSDOF 8
