REMARK  Name = ZINC38821387
REMARK  7 active torsions:
REMARK  status: ('A' for Active; 'I' for Inactive)
REMARK    1  A    between atoms: C_1  and  C_2
REMARK    2  A    between atoms: C_2  and  C_38
REMARK    3  A    between atoms: C_6  and  C_26
REMARK    4  A    between atoms: C_12  and  S_16
REMARK    5  A    between atoms: S_16  and  C_17
REMARK    6  A    between atoms: C_17  and  C_18
REMARK    7  A    between atoms: C_31  and  N_32
REMARK                            x       y       z     vdW  Elec       q    Type
REMARK                         _______ _______ _______ _____ _____    ______ ____
ROOT
ATOM      1  C   UNL     1      -0.430   3.463   1.283  0.00  0.00    +0.011 C 
ATOM      2  C   UNL     1      -0.978   2.101   1.715  0.00  0.00    -0.023 C 
ATOM      3  C   UNL     1      -0.824   1.097   0.572  0.00  0.00    +0.058 C 
ATOM      4  C   UNL     1       0.638   0.932   0.231  0.00  0.00    +0.017 C 
ATOM      5  C   UNL     1       1.591   1.079   1.173  0.00  0.00    +0.021 C 
ATOM      6  C   UNL     1       3.062   0.936   0.858  0.00  0.00    +0.075 C 
ATOM      7  C   UNL     1       3.254   0.107  -0.413  0.00  0.00    +0.152 C 
ATOM      8  C   UNL     1       2.269   0.615  -1.440  0.00  0.00    +0.115 C 
ATOM      9  N   UNL     1       2.648   1.045  -2.604  0.00  0.00    -0.213 NA
ATOM     10  C   UNL     1       3.939   1.097  -2.960  0.00  0.00    +0.182 C 
ATOM     11  N   UNL     1       4.908   0.726  -2.136  0.00  0.00    -0.154 NA
ATOM     12  C   UNL     1       4.660   0.253  -0.919  0.00  0.00    +0.250 C 
ATOM     13  O   UNL     1       5.585  -0.066  -0.198  0.00  0.00    -0.273 OA
ATOM     14  N   UNL     1       0.952   0.614  -1.072  0.00  0.00    -0.305 N 
ATOM     15  C   UNL     1       1.247   1.379   2.507  0.00  0.00    +0.162 C 
ATOM     16  O   UNL     1       2.126   1.474   3.340  0.00  0.00    -0.292 OA
ATOM     17  C   UNL     1      -0.184   1.584   2.920  0.00  0.00    +0.086 C 
ATOM     18  C   UNL     1      -2.455   2.235   2.090  0.00  0.00    +0.011 C 
ATOM     19  H   UNL     1       0.257   0.394  -1.711  0.00  0.00    +0.153 HD
ENDROOT
BRANCH   6  20
ATOM     20  C   UNL     1       3.663   2.303   0.654  0.00  0.00    -0.009 A 
ATOM     21  C   UNL     1       3.135   3.155  -0.298  0.00  0.00    +0.006 A 
ATOM     22  C   UNL     1       3.687   4.409  -0.486  0.00  0.00    +0.000 A 
ATOM     23  C   UNL     1       4.766   4.811   0.280  0.00  0.00    +0.002 A 
ATOM     24  C   UNL     1       5.293   3.959   1.232  0.00  0.00    +0.033 A 
ATOM     25  C   UNL     1       4.739   2.707   1.422  0.00  0.00    +0.130 A 
BRANCH  25  26
ATOM     26  N   UNL     1       5.300   1.796   2.446  0.00  0.00    +0.057 N 
ATOM     27  O   UNL     1       5.667   2.237   3.510  0.00  0.00    -0.126 OA
ATOM     28  O   UNL     1       5.391   0.613   2.217  0.00  0.00    -0.126 OA
ENDBRANCH  25  26
ENDBRANCH   6  20
BRANCH  10  29
ATOM     29  S   UNL     1       4.359   1.676  -4.571  0.00  0.00    -0.084 S 
BRANCH  29  30
ATOM     30  C   UNL     1       6.170   1.577  -4.614  0.00  0.00    +0.113 C 
BRANCH  30  31
ATOM     31  C   UNL     1       6.667   2.050  -5.955  0.00  0.00    -0.019 A 
ATOM     32  C   UNL     1       6.819   1.149  -6.993  0.00  0.00    +0.006 A 
ATOM     33  C   UNL     1       7.275   1.583  -8.224  0.00  0.00    +0.000 A 
ATOM     34  C   UNL     1       7.579   2.917  -8.418  0.00  0.00    +0.001 A 
ATOM     35  C   UNL     1       7.428   3.819  -7.381  0.00  0.00    +0.020 A 
ATOM     36  C   UNL     1       6.966   3.386  -6.151  0.00  0.00    +0.045 A 
ATOM     37 CL   UNL     1       6.769   4.519  -4.850  0.00  0.00    -0.083 Cl
ENDBRANCH  30  31
ENDBRANCH  29  30
ENDBRANCH  10  29
TORSDOF 5
