REMARK  Name = ZINC16350019
REMARK  8 active torsions:
REMARK  status: ('A' for Active; 'I' for Inactive)
REMARK    1  A    between atoms: C_1  and  C_2
REMARK    2  A    between atoms: C_8  and  N_10
REMARK    3  A    between atoms: C_14  and  C_16
REMARK    4  A    between atoms: C_16  and  N_54
REMARK    5  A    between atoms: C_17  and  C_18
REMARK    6  A    between atoms: C_17  and  N_54
REMARK    7  A    between atoms: C_23  and  C_24
REMARK    8  A    between atoms: C_23  and  N_54
REMARK                            x       y       z     vdW  Elec       q    Type
REMARK                         _______ _______ _______ _____ _____    ______ ____
ROOT
ATOM      1  N   UNL     1      -5.791   4.928  -5.089  0.00  0.00    -0.296 N 
ATOM      2  C   UNL     1      -4.668   4.294  -4.698  0.00  0.00    +0.306 C 
ATOM      3  O   UNL     1      -3.986   3.706  -5.514  0.00  0.00    -0.252 OA
ATOM      4  N   UNL     1      -4.301   4.311  -3.401  0.00  0.00    -0.242 N 
ATOM      5  C   UNL     1      -3.178   3.676  -3.010  0.00  0.00    +0.204 C 
ATOM      6  O   UNL     1      -2.498   3.090  -3.825  0.00  0.00    -0.277 OA
ATOM      7  H   UNL     1      -6.335   5.398  -4.437  0.00  0.00    +0.151 HD
ATOM      8  H   UNL     1      -4.845   4.780  -2.749  0.00  0.00    +0.159 HD
ENDROOT
BRANCH   1  15
ATOM      9  C   UNL     1      -6.264   7.407  -6.511  0.00  0.00    +0.009 C 
ATOM     10  C   UNL     1      -7.059   6.132  -6.799  0.00  0.00    +0.006 C 
ATOM     11  C   UNL     1      -7.476   6.112  -8.271  0.00  0.00    +0.005 C 
ATOM     12  C   UNL     1      -8.272   4.838  -8.559  0.00  0.00    +0.000 C 
ATOM     13  C   UNL     1      -7.402   3.615  -8.258  0.00  0.00    +0.002 C 
ATOM     14  C   UNL     1      -6.986   3.635  -6.786  0.00  0.00    +0.022 C 
ATOM     15  C   UNL     1      -6.190   4.910  -6.498  0.00  0.00    +0.077 C 
ENDBRANCH   1  15
BRANCH   5  16
ATOM     16  C   UNL     1      -2.768   3.696  -1.560  0.00  0.00    +0.020 C 
BRANCH  16  17
ATOM     17  N   UNL     1      -1.524   2.913  -1.406  0.00  0.00    +0.393 N 
ATOM     18  H   UNL     1      -1.655   1.990  -1.837  0.00  0.00    -0.080 HD
BRANCH  17  19
ATOM     19  C   UNL     1      -0.405   3.604  -2.082  0.00  0.00    -0.002 C 
BRANCH  19  20
ATOM     20  C   UNL     1       0.705   2.612  -2.316  0.00  0.00    +0.089 A 
ATOM     21  C   UNL     1       0.793   1.761  -3.354  0.00  0.00    +0.042 A 
ATOM     22  C   UNL     1       1.986   1.022  -3.178  0.00  0.00    +0.041 A 
ATOM     23  C   UNL     1       2.550   1.460  -2.039  0.00  0.00    +0.195 A 
ATOM     24  O   UNL     1       1.770   2.423  -1.521  0.00  0.00    -0.470 OA
ENDBRANCH  19  20
ENDBRANCH  17  19
BRANCH  17  25
ATOM     25  C   UNL     1      -1.214   2.733   0.028  0.00  0.00    -0.034 C 
BRANCH  25  26
ATOM     26  C   UNL     1      -2.115   1.662   0.586  0.00  0.00    -0.027 A 
ATOM     27  C   UNL     1      -1.960   0.316   0.556  0.00  0.00    +0.009 A 
ATOM     28  C   UNL     1      -2.928  -0.484   1.134  0.00  0.00    +0.008 A 
ATOM     29  C   UNL     1      -4.004   0.102   1.714  0.00  0.00    +0.045 A 
ATOM     30  S   UNL     1      -3.666   1.836   1.451  0.00  0.00    -0.103 S 
ENDBRANCH  25  26
ENDBRANCH  17  25
ENDBRANCH  16  17
ENDBRANCH   5  16
TORSDOF 7
