REMARK  Name = ZINC16547847
REMARK  9 active torsions:
REMARK  status: ('A' for Active; 'I' for Inactive)
REMARK    1  A    between atoms: C_1  and  C_2
REMARK    2  A    between atoms: C_2  and  C_3
REMARK    3  A    between atoms: C_3  and  C_5
REMARK    4  A    between atoms: C_3  and  S_14
REMARK    5  A    between atoms: C_10  and  C_13
REMARK    6  A    between atoms: S_14  and  C_15
REMARK    7  A    between atoms: C_18  and  C_27
REMARK    8  A    between atoms: N_19  and  C_20
REMARK    9  A    between atoms: C_27  and  N_59
REMARK                            x       y       z     vdW  Elec       q    Type
REMARK                         _______ _______ _______ _____ _____    ______ ____
ROOT
ATOM      1  C   UNL     1       1.430   3.836  -0.234  0.00  0.00    +0.197 A 
ATOM      2  N   UNL     1       0.269   4.438  -0.349  0.00  0.00    -0.122 NA
ATOM      3  N   UNL     1       0.445   5.690  -0.576  0.00  0.00    -0.135 NA
ATOM      4  C   UNL     1       1.718   5.964  -0.619  0.00  0.00    +0.122 A 
ATOM      5  N   UNL     1       2.394   4.793  -0.397  0.00  0.00    -0.276 N 
ENDROOT
BRANCH   5   6
ATOM      6  C   UNL     1       3.785   4.613  -0.350  0.00  0.00    +0.050 A 
ATOM      7  C   UNL     1       4.530   5.218   0.653  0.00  0.00    +0.029 A 
ATOM      8  C   UNL     1       5.898   5.035   0.701  0.00  0.00    +0.040 A 
ATOM      9  C   UNL     1       6.528   4.258  -0.257  0.00  0.00    +0.124 A 
ATOM     10  C   UNL     1       5.786   3.659  -1.262  0.00  0.00    +0.040 A 
ATOM     11  C   UNL     1       4.417   3.835  -1.309  0.00  0.00    +0.029 A 
ATOM     12  F   UNL     1       7.867   4.085  -0.212  0.00  0.00    -0.205 F 
ENDBRANCH   5   6
BRANCH   1  13
ATOM     13  S   UNL     1       1.697   2.123   0.079  0.00  0.00    -0.073 S 
BRANCH  13  14
ATOM     14  C   UNL     1      -0.009   1.523   0.017  0.00  0.00    +0.140 C 
BRANCH  14  15
ATOM     15  C   UNL     1      -0.537   1.653  -1.388  0.00  0.00    +0.232 C 
ATOM     16  O   UNL     1       0.232   1.662  -2.326  0.00  0.00    -0.274 OA
ATOM     17  N   UNL     1      -1.863   1.761  -1.603  0.00  0.00    -0.267 N 
ATOM     18  C   UNL     1      -2.352   1.882  -2.904  0.00  0.00    +0.168 A 
ATOM     19  C   UNL     1      -1.589   1.908  -4.102  0.00  0.00    +0.091 A 
ATOM     20  C   UNL     1      -2.518   2.038  -5.077  0.00  0.00    +0.136 A 
ATOM     21  O   UNL     1      -3.711   2.081  -4.466  0.00  0.00    -0.358 OA
ATOM     22  N   UNL     1      -3.603   1.988  -3.266  0.00  0.00    -0.063 NA
ATOM     23  C   UNL     1      -2.261   2.118  -6.560  0.00  0.00    +0.089 C 
ATOM     24  H   UNL     1      -2.478   1.754  -0.853  0.00  0.00    +0.156 HD
ENDBRANCH  14  15
BRANCH  14  26
ATOM     25  C   UNL     1       0.346  -0.062   1.916  0.00  0.00    +0.005 C 
ATOM     26  C   UNL     1      -0.049   0.053   0.442  0.00  0.00    +0.020 C 
ENDBRANCH  14  26
ENDBRANCH  13  14
ENDBRANCH   1  13
BRANCH   4  27
ATOM     27  C   UNL     1       2.333   7.318  -0.862  0.00  0.00    -0.001 C 
BRANCH  27  33
ATOM     28  C   UNL     1       1.235   8.310   1.054  0.00  0.00    -0.078 C 
ATOM     29  C   UNL     1       1.474   8.892   2.449  0.00  0.00    -0.019 C 
ATOM     30  C   UNL     1       2.317  10.165   2.329  0.00  0.00    -0.004 C 
ATOM     31  C   UNL     1       3.635   9.829   1.624  0.00  0.00    -0.019 C 
ATOM     32  C   UNL     1       3.333   9.220   0.252  0.00  0.00    -0.078 C 
ATOM     33  N   UNL     1       2.540   7.987   0.439  0.00  0.00    +0.384 N 
ATOM     34  H   UNL     1       3.054   7.352   1.062  0.00  0.00    -0.081 HD
ENDBRANCH  27  33
ENDBRANCH   4  27
TORSDOF 7
