REMARK  Name = ZINC63698427
REMARK  9 active torsions:
REMARK  status: ('A' for Active; 'I' for Inactive)
REMARK    1  A    between atoms: C_1  and  C_2
REMARK    2  A    between atoms: C_10  and  C_11
REMARK    3  A    between atoms: N_13  and  C_14
REMARK    4  A    between atoms: C_14  and  C_15
REMARK    5  A    between atoms: C_15  and  C_16
REMARK    6  A    between atoms: C_19  and  O_25
REMARK    7  A    between atoms: O_25  and  C_26
REMARK    8  A    between atoms: N_27  and  C_28
REMARK    9  A    between atoms: N_27  and  C_29
REMARK                            x       y       z     vdW  Elec       q    Type
REMARK                         _______ _______ _______ _____ _____    ______ ____
ROOT
ATOM      1  C   UNL     1       0.118   1.317   0.011  0.00  0.00    +0.046 C 
ATOM      2  C   UNL     1       0.160  -0.185  -0.103  0.00  0.00    -0.019 A 
ATOM      3  C   UNL     1       0.006  -0.799  -1.353  0.00  0.00    +0.051 A 
ATOM      4  C   UNL     1      -0.200  -0.203  -2.633  0.00  0.00    +0.133 A 
ATOM      5  N   UNL     1      -0.321  -0.982  -3.695  0.00  0.00    -0.220 NA
ATOM      6  C   UNL     1      -0.259  -2.299  -3.615  0.00  0.00    +0.224 A 
ATOM      7  N   UNL     1      -0.071  -2.911  -2.462  0.00  0.00    -0.228 NA
ATOM      8  C   UNL     1       0.061  -2.215  -1.351  0.00  0.00    +0.114 A 
ATOM      9  S   UNL     1       0.320  -2.611   0.359  0.00  0.00    -0.064 S 
ATOM     10  C   UNL     1       0.353  -0.949   1.008  0.00  0.00    +0.079 A 
ATOM     11  N   UNL     1      -0.271   1.169  -2.761  0.00  0.00    -0.315 N 
ATOM     12  C   UNL     1      -1.548   1.858  -2.558  0.00  0.00    +0.131 C 
ENDROOT
BRANCH  11  13
ATOM     13  C   UNL     1       0.929   1.937  -3.100  0.00  0.00    +0.075 C 
ATOM     14  C   UNL     1       1.097   3.087  -2.104  0.00  0.00    +0.022 C 
ATOM     15  C   UNL     1       2.352   3.889  -2.458  0.00  0.00    +0.002 C 
ATOM     16  C   UNL     1       2.212   4.455  -3.873  0.00  0.00    +0.000 C 
ATOM     17  C   UNL     1       2.045   3.305  -4.868  0.00  0.00    +0.002 C 
ATOM     18  C   UNL     1       0.790   2.503  -4.514  0.00  0.00    +0.022 C 
ENDBRANCH  11  13
BRANCH  10  19
ATOM     19  C   UNL     1       0.541  -0.512   2.397  0.00  0.00    +0.251 C 
ATOM     20  O   UNL     1       0.534   0.674   2.667  0.00  0.00    -0.270 OA
ATOM     21  N   UNL     1       0.720  -1.425   3.372  0.00  0.00    -0.311 N 
ATOM     22  H   UNL     1       0.725  -2.370   3.156  0.00  0.00    +0.149 HD
BRANCH  21  23
ATOM     23  C   UNL     1       0.907  -0.989   4.758  0.00  0.00    +0.109 C 
BRANCH  23  24
ATOM     24  C   UNL     1       1.087  -2.213   5.657  0.00  0.00    +0.052 C 
BRANCH  24  25
ATOM     25  C   UNL     1       1.280  -1.765   7.083  0.00  0.00    -0.040 C 
ATOM     26  C   UNL     1       0.328  -1.660   8.038  0.00  0.00    +0.002 A 
ATOM     27  C   UNL     1      -1.116  -1.919   8.037  0.00  0.00    +0.055 A 
ATOM     28  C   UNL     1      -1.831  -1.719   9.170  0.00  0.00    +0.121 A 
ATOM     29  C   UNL     1      -1.238  -1.266  10.361  0.00  0.00    +0.047 A 
ATOM     30  C   UNL     1       0.082  -1.000  10.461  0.00  0.00    +0.029 A 
ATOM     31  C   UNL     1       0.952  -1.183   9.294  0.00  0.00    +0.043 A 
ATOM     32  N   UNL     1       2.237  -1.001   9.122  0.00  0.00    -0.380 N 
ATOM     33  C   UNL     1       2.578  -1.348   7.738  0.00  0.00    +0.144 C 
ATOM     34  H   UNL     1       2.860  -0.692   9.798  0.00  0.00    +0.160 HD
BRANCH  28  35
ATOM     35  O   UNL     1      -3.168  -1.963   9.154  0.00  0.00    -0.495 OA
ATOM     36  C   UNL     1      -3.883  -1.738  10.371  0.00  0.00    +0.277 C 
ENDBRANCH  28  35
ENDBRANCH  24  25
ENDBRANCH  23  24
ENDBRANCH  21  23
ENDBRANCH  10  19
TORSDOF 6
