REMARK  Name = ZINC39777214
REMARK  6 active torsions:
REMARK  status: ('A' for Active; 'I' for Inactive)
REMARK    1  A    between atoms: C_1  and  C_2
REMARK    2  A    between atoms: C_2  and  O_3
REMARK    3  A    between atoms: O_3  and  C_4
REMARK    4  A    between atoms: C_4  and  C_6
REMARK    5  A    between atoms: C_8  and  N_17
REMARK    6  A    between atoms: C_19  and  C_28
REMARK                            x       y       z     vdW  Elec       q    Type
REMARK                         _______ _______ _______ _____ _____    ______ ____
ROOT
ATOM      1  N   UNL     1      -0.619  -1.646   3.553  0.00  0.00    -0.342 N 
ATOM      2  C   UNL     1      -1.513  -2.083   4.398  0.00  0.00    +0.207 A 
ATOM      3  C   UNL     1      -2.956  -1.837   4.178  0.00  0.00    +0.078 A 
ATOM      4  C   UNL     1      -3.838  -2.737   4.726  0.00  0.00    +0.028 A 
ATOM      5  C   UNL     1      -3.277  -3.862   5.480  0.00  0.00    +0.018 A 
ATOM      6  C   UNL     1      -4.076  -4.953   5.837  0.00  0.00    +0.011 A 
ATOM      7  C   UNL     1      -3.525  -5.999   6.543  0.00  0.00    +0.001 A 
ATOM      8  C   UNL     1      -2.185  -5.974   6.901  0.00  0.00    +0.004 A 
ATOM      9  C   UNL     1      -1.384  -4.903   6.556  0.00  0.00    +0.047 A 
ATOM     10  C   UNL     1      -1.919  -3.840   5.847  0.00  0.00    +0.137 A 
ATOM     11  O   UNL     1      -1.148  -2.782   5.504  0.00  0.00    -0.439 OA
ATOM     12  H   UNL     1      -0.896  -1.149   2.768  0.00  0.00    +0.164 HD
ENDROOT
BRANCH   3  13
ATOM     13  C   UNL     1      -3.426  -0.674   3.403  0.00  0.00    +0.144 A 
ATOM     14  N   UNL     1      -2.651   0.229   2.849  0.00  0.00    -0.228 NA
ATOM     15  C   UNL     1      -3.411   1.155   2.216  0.00  0.00    +0.089 A 
ATOM     16  C   UNL     1      -3.107   2.305   1.481  0.00  0.00    +0.030 A 
ATOM     17  C   UNL     1      -4.124   3.063   0.946  0.00  0.00    +0.002 A 
ATOM     18  C   UNL     1      -5.449   2.695   1.131  0.00  0.00    +0.002 A 
ATOM     19  C   UNL     1      -5.767   1.564   1.853  0.00  0.00    +0.028 A 
ATOM     20  C   UNL     1      -4.756   0.786   2.399  0.00  0.00    +0.066 A 
ATOM     21  N   UNL     1      -4.739  -0.376   3.147  0.00  0.00    -0.338 N 
ATOM     22  H   UNL     1      -5.512  -0.883   3.439  0.00  0.00    +0.167 HD
ENDBRANCH   3  13
BRANCH   1  24
ATOM     23  C   UNL     1       1.516  -2.381   2.500  0.00  0.00    +0.157 C 
ATOM     24  C   UNL     1       0.803  -1.908   3.790  0.00  0.00    +0.162 C 
ATOM     25  S   UNL     1       1.052  -3.417   4.816  0.00  0.00    -0.104 S 
ATOM     26  C   UNL     1       1.318  -4.583   3.501  0.00  0.00    -0.012 C 
ATOM     27  C   UNL     1       1.528  -3.885   2.393  0.00  0.00    -0.044 C 
ATOM     28  C   UNL     1       1.774  -4.585   1.058  0.00  0.00    +0.032 C 
ATOM     29  C   UNL     1       2.196  -6.030   1.321  0.00  0.00    +0.005 C 
ATOM     30  C   UNL     1       1.175  -6.702   2.244  0.00  0.00    +0.005 C 
ATOM     31  C   UNL     1       1.302  -6.080   3.636  0.00  0.00    +0.042 C 
BRANCH  23  32
ATOM     32  C   UNL     1       0.801  -1.808   1.304  0.00  0.00    +0.317 C 
ATOM     33  O   UNL     1       0.324  -2.546   0.475  0.00  0.00    -0.250 OA
BRANCH  32  34
ATOM     34  O   UNL     1       0.693  -0.477   1.160  0.00  0.00    -0.464 OA
BRANCH  34  36
ATOM     35  C   UNL     1      -0.019   1.526   0.010  0.00  0.00    +0.048 C 
ATOM     36  C   UNL     1       0.002  -0.004   0.002  0.00  0.00    +0.229 C 
ENDBRANCH  34  36
ENDBRANCH  32  34
ENDBRANCH  23  32
ENDBRANCH   1  24
TORSDOF 5
