REMARK  Name = ZINC36342072
REMARK  19 active torsions:
REMARK  status: ('A' for Active; 'I' for Inactive)
REMARK    1  A    between atoms: C_1  and  C_2
REMARK    2  A    between atoms: C_2  and  C_3
REMARK    3  A    between atoms: C_3  and  C_5
REMARK    4  A    between atoms: C_3  and  N_6
REMARK    5  A    between atoms: N_6  and  C_7
REMARK    6  A    between atoms: N_6  and  C_28
REMARK    7  A    between atoms: C_7  and  C_8
REMARK    8  A    between atoms: C_9  and  C_27
REMARK    9  A    between atoms: N_11  and  C_21
REMARK   10  A    between atoms: C_12  and  O_13
REMARK   11  A    between atoms: O_13  and  C_14
REMARK   12  A    between atoms: C_28  and  C_29
REMARK   13  A    between atoms: C_29  and  C_31
REMARK   14  A    between atoms: C_29  and  O_37
REMARK   15  A    between atoms: C_31  and  O_32
REMARK   16  A    between atoms: O_32  and  C_33
REMARK   17  A    between atoms: C_33  and  C_34
REMARK   18  A    between atoms: C_34  and  C_35
REMARK   19  A    between atoms: C_34  and  C_36
REMARK                            x       y       z     vdW  Elec       q    Type
REMARK                         _______ _______ _______ _____ _____    ______ ____
ROOT
ATOM      1  C   UNL     1      -3.664  -1.478   1.959  0.00  0.00    +0.021 A 
ATOM      2  C   UNL     1      -3.699  -2.416   0.923  0.00  0.00    +0.065 A 
ATOM      3  N   UNL     1      -3.737  -3.613   1.449  0.00  0.00    -0.168 NA
ATOM      4  N   UNL     1      -3.728  -3.483   2.844  0.00  0.00    -0.200 N 
ATOM      5  C   UNL     1      -3.677  -2.156   3.137  0.00  0.00    +0.225 A 
ATOM      6  C   UNL     1      -3.694  -2.101  -0.551  0.00  0.00    +0.068 C 
ENDROOT
BRANCH   4   7
ATOM      7  C   UNL     1      -3.760  -4.534   3.771  0.00  0.00    +0.069 A 
ATOM      8  C   UNL     1      -2.969  -4.479   4.911  0.00  0.00    +0.028 A 
ATOM      9  C   UNL     1      -3.003  -5.516   5.824  0.00  0.00    +0.002 A 
ATOM     10  C   UNL     1      -3.823  -6.607   5.603  0.00  0.00    +0.000 A 
ATOM     11  C   UNL     1      -4.612  -6.664   4.468  0.00  0.00    +0.002 A 
ATOM     12  C   UNL     1      -4.587  -5.628   3.555  0.00  0.00    +0.028 A 
ENDBRANCH   4   7
BRANCH   1  13
ATOM     13  C   UNL     1      -3.615   0.020   1.798  0.00  0.00    -0.035 C 
BRANCH  13  14
ATOM     14  N   UNL     1      -2.343   0.528   2.328  0.00  0.00    +0.386 N 
ATOM     15  H   UNL     1      -2.123   0.051   3.190  0.00  0.00    -0.081 HD
BRANCH  14  16
ATOM     16  C   UNL     1      -1.274   0.287   1.349  0.00  0.00    -0.071 C 
ATOM     17  C   UNL     1      -1.706   0.818  -0.019  0.00  0.00    -0.013 C 
BRANCH  16  19
ATOM     18  C   UNL     1      -0.563  -1.746   2.617  0.00  0.00    +0.002 C 
ATOM     19  C   UNL     1      -1.002  -1.216   1.250  0.00  0.00    -0.019 C 
ENDBRANCH  16  19
ENDBRANCH  14  16
BRANCH  14  20
ATOM     20  C   UNL     1      -2.458   1.970   2.582  0.00  0.00    -0.044 C 
BRANCH  20  21
ATOM     21  C   UNL     1      -1.183   2.472   3.261  0.00  0.00    +0.124 C 
BRANCH  21  22
ATOM     22  O   UNL     1      -1.038   1.835   4.532  0.00  0.00    -0.391 OA
ATOM     23  H   UNL     1      -1.770   2.001   5.141  0.00  0.00    +0.210 HD
ENDBRANCH  21  22
BRANCH  21  24
ATOM     24  C   UNL     1      -1.272   3.987   3.458  0.00  0.00    +0.189 C 
BRANCH  24  25
ATOM     25  O   UNL     1      -0.036   4.473   3.985  0.00  0.00    -0.377 OA
BRANCH  25  26
ATOM     26  C   UNL     1      -0.014   5.884   4.207  0.00  0.00    +0.163 C 
BRANCH  26  27
ATOM     27  C   UNL     1       1.350   6.290   4.769  0.00  0.00    +0.009 C 
ATOM     28  C   UNL     1       1.419   7.814   4.890  0.00  0.00    +0.009 C 
ATOM     29  C   UNL     1       1.540   5.660   6.151  0.00  0.00    +0.009 C 
ENDBRANCH  26  27
ENDBRANCH  25  26
ENDBRANCH  24  25
ENDBRANCH  21  24
ENDBRANCH  20  21
ENDBRANCH  14  20
ENDBRANCH  13  14
ENDBRANCH   1  13
BRANCH   5  30
ATOM     30  O   UNL     1      -3.648  -1.609   4.379  0.00  0.00    -0.438 OA
BRANCH  30  31
ATOM     31  C   UNL     1      -4.834  -1.363   4.996  0.00  0.00    +0.131 A 
ATOM     32  C   UNL     1      -6.021  -1.771   4.406  0.00  0.00    +0.049 A 
ATOM     33  C   UNL     1      -7.226  -1.521   5.034  0.00  0.00    +0.042 A 
ATOM     34  C   UNL     1      -7.248  -0.863   6.252  0.00  0.00    +0.124 A 
ATOM     35  C   UNL     1      -6.064  -0.455   6.842  0.00  0.00    +0.042 A 
ATOM     36  C   UNL     1      -4.858  -0.709   6.219  0.00  0.00    +0.049 A 
ATOM     37  F   UNL     1      -8.427  -0.619   6.866  0.00  0.00    -0.205 F 
ENDBRANCH  30  31
ENDBRANCH   5  30
TORSDOF 14
