REMARK  Name = ZINC38994726
REMARK  13 active torsions:
REMARK  status: ('A' for Active; 'I' for Inactive)
REMARK    1  A    between atoms: C_1  and  C_2
REMARK    2  A    between atoms: C_2  and  C_3
REMARK    3  A    between atoms: C_3  and  C_5
REMARK    4  A    between atoms: C_3  and  C_6
REMARK    5  A    between atoms: C_9  and  N_12
REMARK    6  A    between atoms: C_13  and  C_15
REMARK    7  A    between atoms: C_15  and  S_16
REMARK    8  A    between atoms: S_16  and  C_17
REMARK    9  A    between atoms: C_21  and  C_25
REMARK   10  A    between atoms: N_23  and  N_24
REMARK   11  A    between atoms: C_28  and  C_31
REMARK   12  A    between atoms: C_34  and  O_37
REMARK   13  A    between atoms: O_37  and  C_38
REMARK                            x       y       z     vdW  Elec       q    Type
REMARK                         _______ _______ _______ _____ _____    ______ ____
ROOT
ATOM      1  C   UNL     1      -0.517 -10.535  -3.975  0.00  0.00    +0.214 C 
ATOM      2  N   UNL     1       0.927 -10.886  -3.972  0.00  0.00    -0.228 NA
ATOM      3  N   UNL     1       0.949 -12.196  -3.303  0.00  0.00    -0.234 NA
ATOM      4  C   UNL     1      -0.077 -12.087  -2.241  0.00  0.00    +0.185 C 
ATOM      5  N   UNL     1      -1.017 -11.028  -2.671  0.00  0.00    -0.197 NA
ATOM      6  H   UNL     1       1.463 -10.206  -3.454  0.00  0.00    +0.143 HD
ATOM      7  H   UNL     1       1.859 -12.386  -2.909  0.00  0.00    +0.143 HD
ENDROOT
BRANCH   4   8
ATOM      8  C   UNL     1      -0.819 -13.416  -2.091  0.00  0.00    +0.187 C 
ATOM      9  C   UNL     1       0.126 -14.508  -1.621  0.00  0.00    +0.034 C 
ATOM     10  C   UNL     1       0.101 -15.409  -2.622  0.00  0.00    +0.091 C 
ATOM     11  N   UNL     1      -0.731 -14.993  -3.614  0.00  0.00    -0.154 NA
ATOM     12  N   UNL     1      -1.280 -13.906  -3.401  0.00  0.00    -0.176 NA
BRANCH  10  13
ATOM     13  C   UNL     1       0.871 -16.676  -2.640  0.00  0.00    +0.002 A 
ATOM     14  C   UNL     1       1.693 -17.009  -1.564  0.00  0.00    +0.013 A 
ATOM     15  C   UNL     1       2.408 -18.188  -1.583  0.00  0.00    +0.046 A 
ATOM     16  C   UNL     1       2.310 -19.043  -2.672  0.00  0.00    +0.120 A 
ATOM     17  C   UNL     1       1.493 -18.714  -3.745  0.00  0.00    +0.046 A 
ATOM     18  C   UNL     1       0.771 -17.540  -3.730  0.00  0.00    +0.013 A 
BRANCH  16  19
ATOM     19  O   UNL     1       3.017 -20.204  -2.688  0.00  0.00    -0.495 OA
ATOM     20  C   UNL     1       2.870 -21.036  -3.841  0.00  0.00    +0.277 C 
ENDBRANCH  16  19
ENDBRANCH  10  13
ENDBRANCH   4   8
BRANCH   5  21
ATOM     21  N   UNL     1      -1.072  -9.953  -1.693  0.00  0.00    -0.264 NA
ATOM     22  H   UNL     1      -1.767  -9.267  -1.949  0.00  0.00    +0.137 HD
ATOM     23  H   UNL     1      -1.246 -10.315  -0.767  0.00  0.00    +0.137 HD
ENDBRANCH   5  21
BRANCH   1  24
ATOM     24  S   UNL     1      -0.733  -8.738  -4.099  0.00  0.00    -0.115 S 
BRANCH  24  25
ATOM     25  C   UNL     1      -0.520  -8.392  -5.867  0.00  0.00    +0.168 C 
BRANCH  25  27
ATOM     26  N   UNL     1      -0.416  -6.407  -7.340  0.00  0.00    -0.285 N 
ATOM     27  C   UNL     1      -0.556  -6.902  -6.094  0.00  0.00    +0.227 C 
ATOM     28  O   UNL     1      -0.710  -6.149  -5.156  0.00  0.00    -0.275 OA
ATOM     29  H   UNL     1      -0.368  -7.010  -8.099  0.00  0.00    +0.155 HD
BRANCH  26  33
ATOM     30  C   UNL     1      -0.189  -2.290  -7.934  0.00  0.00    -0.044 A 
ATOM     31  C   UNL     1       0.337  -2.852  -6.785  0.00  0.00    +0.006 A 
ATOM     32  C   UNL     1       0.264  -4.216  -6.585  0.00  0.00    +0.023 A 
ATOM     33  C   UNL     1      -0.340  -5.025  -7.540  0.00  0.00    +0.033 A 
ATOM     34  C   UNL     1      -0.869  -4.457  -8.692  0.00  0.00    +0.023 A 
ATOM     35  C   UNL     1      -0.796  -3.092  -8.884  0.00  0.00    +0.006 A 
BRANCH  30  36
ATOM     36  C   UNL     1      -0.107  -0.801  -8.149  0.00  0.00    +0.016 C 
ATOM     37  C   UNL     1       1.361  -0.369  -8.171  0.00  0.00    +0.012 C 
BRANCH  36  39
ATOM     38  C   UNL     1      -0.859   1.423  -7.293  0.00  0.00    +0.004 C 
ATOM     39  C   UNL     1      -0.834  -0.081  -7.011  0.00  0.00    +0.004 C 
ENDBRANCH  36  39
ENDBRANCH  30  36
ENDBRANCH  26  33
ENDBRANCH  25  27
ENDBRANCH  24  25
ENDBRANCH   1  24
TORSDOF 10
