REMARK  Name = ZINC09923618
REMARK  9 active torsions:
REMARK  status: ('A' for Active; 'I' for Inactive)
REMARK    1  A    between atoms: C_1  and  N_2
REMARK    2  A    between atoms: N_2  and  C_3
REMARK    3  A    between atoms: N_2  and  C_4
REMARK    4  A    between atoms: C_7  and  C_13
REMARK    5  A    between atoms: C_9  and  N_10
REMARK    6  A    between atoms: C_13  and  O_15
REMARK    7  A    between atoms: O_15  and  C_16
REMARK    8  A    between atoms: C_16  and  C_17
REMARK    9  A    between atoms: N_19  and  C_20
REMARK                            x       y       z     vdW  Elec       q    Type
REMARK                         _______ _______ _______ _____ _____    ______ ____
ROOT
ATOM      1  C   UNL     1      -0.014   1.210   0.018  0.00  0.00    +0.340 C 
ATOM      2  O   UNL     1       0.002  -0.005   0.021  0.00  0.00    -0.245 OA
ENDROOT
BRANCH   1   6
ATOM      3  C   UNL     1      -3.712   3.285   0.039  0.00  0.00    +0.060 A 
ATOM      4  C   UNL     1      -2.514   3.994   0.030  0.00  0.00    +0.026 A 
ATOM      5  C   UNL     1      -1.322   3.328   0.029  0.00  0.00    +0.017 A 
ATOM      6  C   UNL     1      -1.301   1.930   0.025  0.00  0.00    +0.061 A 
ATOM      7  C   UNL     1      -2.503   1.215   0.034  0.00  0.00    +0.049 A 
ATOM      8  C   UNL     1      -3.701   1.893   0.041  0.00  0.00    +0.148 A 
BRANCH   3  10
ATOM      9  C   UNL     1      -5.037   4.827   1.232  0.00  0.00    +0.129 C 
ATOM     10  N   UNL     1      -4.923   3.969   0.045  0.00  0.00    -0.334 N 
ATOM     11  C   UNL     1      -5.092   4.750  -1.188  0.00  0.00    +0.129 C 
ENDBRANCH   3  10
BRANCH   8  12
ATOM     12  N   UNL     1      -4.977   1.142   0.050  0.00  0.00    +0.058 N 
ATOM     13  O   UNL     1      -4.966  -0.076   0.051  0.00  0.00    -0.126 OA
ATOM     14  O   UNL     1      -6.037   1.742   0.055  0.00  0.00    -0.126 OA
ENDBRANCH   8  12
ENDBRANCH   1   6
BRANCH   1  15
ATOM     15  O   UNL     1       1.143   1.900   0.004  0.00  0.00    -0.452 OA
BRANCH  15  16
ATOM     16  C   UNL     1       2.372   1.126  -0.008  0.00  0.00    +0.328 C 
BRANCH  16  17
ATOM     17  C   UNL     1       3.554   2.061  -0.023  0.00  0.00    +0.255 C 
ATOM     18  O   UNL     1       3.379   3.261  -0.023  0.00  0.00    -0.272 OA
ATOM     19  N   UNL     1       4.806   1.562  -0.035  0.00  0.00    -0.283 N 
ATOM     20  H   UNL     1       4.949   0.605   0.033  0.00  0.00    +0.155 HD
BRANCH  19  21
ATOM     21  C   UNL     1       5.902   2.426  -0.147  0.00  0.00    +0.034 A 
ATOM     22  C   UNL     1       7.031   2.030  -0.852  0.00  0.00    +0.023 A 
ATOM     23  C   UNL     1       8.109   2.887  -0.964  0.00  0.00    +0.003 A 
ATOM     24  C   UNL     1       8.068   4.133  -0.367  0.00  0.00    +0.014 A 
ATOM     25  C   UNL     1       6.947   4.529   0.339  0.00  0.00    +0.015 A 
ATOM     26  C   UNL     1       5.864   3.678   0.451  0.00  0.00    +0.037 A 
ATOM     27  I   UNL     1       6.891   6.419   1.242  0.00  0.00    -0.044 I 
ENDBRANCH  19  21
ENDBRANCH  16  17
ENDBRANCH  15  16
ENDBRANCH   1  15
TORSDOF 7
