REMARK  Name = ZINC47534335
REMARK  9 active torsions:
REMARK  status: ('A' for Active; 'I' for Inactive)
REMARK    1  A    between atoms: C_1  and  C_2
REMARK    2  A    between atoms: C_2  and  C_4
REMARK    3  A    between atoms: C_2  and  N_16
REMARK    4  A    between atoms: C_17  and  C_19
REMARK    5  A    between atoms: C_19  and  C_21
REMARK    6  A    between atoms: C_19  and  N_24
REMARK    7  A    between atoms: C_21  and  C_22
REMARK    8  A    between atoms: C_21  and  C_23
REMARK    9  A    between atoms: C_25  and  C_27
REMARK                            x       y       z     vdW  Elec       q    Type
REMARK                         _______ _______ _______ _____ _____    ______ ____
ROOT
ATOM      1  N   UNL     1       0.571  -1.296  -1.183  0.00  0.00    -0.307 N 
ATOM      2  C   UNL     1       0.091  -0.762  -2.324  0.00  0.00    +0.234 C 
ATOM      3  O   UNL     1      -0.904  -0.068  -2.297  0.00  0.00    -0.274 OA
ATOM      4  H   UNL     1       1.324  -1.906  -1.213  0.00  0.00    +0.149 HD
ENDROOT
BRANCH   1   6
ATOM      5  C   UNL     1       0.560   0.347   0.629  0.00  0.00    +0.033 C 
ATOM      6  C   UNL     1      -0.046  -0.955   0.102  0.00  0.00    +0.100 C 
BRANCH   6   7
ATOM      7  C   UNL     1       0.208  -2.064   1.090  0.00  0.00    -0.025 A 
ATOM      8  C   UNL     1       1.444  -2.686   1.126  0.00  0.00    +0.007 A 
ATOM      9  C   UNL     1       1.686  -3.703   2.028  0.00  0.00    +0.028 A 
ATOM     10  C   UNL     1       0.687  -4.102   2.902  0.00  0.00    +0.067 A 
ATOM     11  C   UNL     1      -0.560  -3.474   2.867  0.00  0.00    +0.067 A 
ATOM     12  C   UNL     1      -0.792  -2.451   1.961  0.00  0.00    +0.033 A 
ATOM     13  N   UNL     1      -1.344  -4.080   3.846  0.00  0.00    -0.306 N 
ATOM     14  H   UNL     1      -2.263  -3.854   4.057  0.00  0.00    +0.170 HD
ATOM     15  C   UNL     1      -0.608  -5.032   4.450  0.00  0.00    +0.325 A 
ATOM     16  O   UNL     1      -0.995  -5.750   5.353  0.00  0.00    -0.247 OA
ATOM     17  N   UNL     1       0.622  -5.070   3.902  0.00  0.00    -0.306 N 
ATOM     18  H   UNL     1       1.340  -5.669   4.160  0.00  0.00    +0.170 HD
ENDBRANCH   6   7
ENDBRANCH   1   6
BRANCH   2  19
ATOM     19  C   UNL     1       0.789  -1.027  -3.632  0.00  0.00    +0.162 C 
BRANCH  19  20
ATOM     20  N   UNL     1      -0.174  -0.917  -4.731  0.00  0.00    -0.300 N 
ATOM     21  C   UNL     1       0.046  -1.572  -5.888  0.00  0.00    +0.245 C 
ATOM     22  O   UNL     1       1.043  -2.255  -6.020  0.00  0.00    -0.270 OA
ATOM     23  H   UNL     1      -0.969  -0.372  -4.626  0.00  0.00    +0.150 HD
BRANCH  21  24
ATOM     24  C   UNL     1      -0.925  -1.461  -6.997  0.00  0.00    +0.037 A 
ATOM     25  C   UNL     1      -2.068  -0.674  -6.851  0.00  0.00    +0.013 A 
ATOM     26  C   UNL     1      -2.971  -0.574  -7.889  0.00  0.00    +0.001 A 
ATOM     27  C   UNL     1      -2.745  -1.253  -9.073  0.00  0.00    +0.000 A 
ATOM     28  C   UNL     1      -1.614  -2.035  -9.225  0.00  0.00    +0.001 A 
ATOM     29  C   UNL     1      -0.701  -2.139  -8.196  0.00  0.00    +0.013 A 
ENDBRANCH  21  24
ENDBRANCH  19  20
BRANCH  19  30
ATOM     30  C   UNL     1       1.908  -0.002  -3.830  0.00  0.00    +0.012 C 
ATOM     31  C   UNL     1       1.332   1.410  -3.717  0.00  0.00    +0.009 C 
ATOM     32  C   UNL     1       2.979  -0.203  -2.756  0.00  0.00    +0.009 C 
ENDBRANCH  19  30
ENDBRANCH   2  19
TORSDOF 6
