REMARK  Name = ZINC17188692
REMARK  13 active torsions:
REMARK  status: ('A' for Active; 'I' for Inactive)
REMARK    1  A    between atoms: C_1  and  C_2
REMARK    2  A    between atoms: C_2  and  N_3
REMARK    3  A    between atoms: C_12  and  C_14
REMARK    4  A    between atoms: N_16  and  N_17
REMARK    5  A    between atoms: C_18  and  C_20
REMARK    6  A    between atoms: C_20  and  C_22
REMARK    7  A    between atoms: C_20  and  N_26
REMARK    8  A    between atoms: C_22  and  C_23
REMARK    9  A    between atoms: C_23  and  S_24
REMARK   10  A    between atoms: S_24  and  C_25
REMARK   11  A    between atoms: C_27  and  C_29
REMARK   12  A    between atoms: C_29  and  O_30
REMARK   13  A    between atoms: O_30  and  C_31
REMARK                            x       y       z     vdW  Elec       q    Type
REMARK                         _______ _______ _______ _____ _____    ______ ____
ROOT
ATOM      1  N   UNL     1       2.131  -2.926  -0.739  0.00  0.00    -0.233 N 
ATOM      2  C   UNL     1       1.085  -2.085  -0.620  0.00  0.00    +0.249 C 
ATOM      3  O   UNL     1      -0.015  -2.427  -1.001  0.00  0.00    -0.272 OA
ATOM      4  H   UNL     1       3.010  -2.652  -0.434  0.00  0.00    +0.173 HD
ENDROOT
BRANCH   1   7
ATOM      5  C   UNL     1       2.995  -5.037  -1.421  0.00  0.00    +0.281 C 
ATOM      6  O   UNL     1       4.097  -4.694  -1.039  0.00  0.00    -0.267 OA
ATOM      7  N   UNL     1       1.949  -4.196  -1.302  0.00  0.00    -0.229 N 
ATOM      8  H   UNL     1       1.069  -4.470  -1.607  0.00  0.00    +0.173 HD
BRANCH   5  18
ATOM      9  N   UNL     1       1.369  -7.893  -2.953  0.00  0.00    -0.229 N 
ATOM     10  C   UNL     1       2.304  -8.847  -3.142  0.00  0.00    +0.275 A 
ATOM     11  O   UNL     1       2.010  -9.915  -3.646  0.00  0.00    -0.266 OA
ATOM     12  C   UNL     1       3.684  -8.566  -2.725  0.00  0.00    +0.050 A 
ATOM     13  C   UNL     1       4.721  -9.481  -2.877  0.00  0.00    +0.014 A 
ATOM     14  C   UNL     1       5.990  -9.140  -2.460  0.00  0.00    +0.001 A 
ATOM     15  C   UNL     1       6.241  -7.898  -1.893  0.00  0.00    +0.001 A 
ATOM     16  C   UNL     1       5.228  -6.977  -1.734  0.00  0.00    +0.011 A 
ATOM     17  C   UNL     1       3.941  -7.298  -2.153  0.00  0.00    +0.020 A 
ATOM     18  C   UNL     1       2.803  -6.375  -2.014  0.00  0.00    +0.155 A 
ATOM     19  N   UNL     1       1.618  -6.753  -2.429  0.00  0.00    -0.163 NA
BRANCH   9  21
ATOM     20  C   UNL     1      -0.771  -8.815  -2.209  0.00  0.00    +0.029 C 
ATOM     21  C   UNL     1      -0.006  -8.177  -3.371  0.00  0.00    +0.144 C 
ENDBRANCH   9  21
ENDBRANCH   5  18
ENDBRANCH   1   7
BRANCH   2  22
ATOM     22  C   UNL     1       1.281  -0.719  -0.014  0.00  0.00    +0.161 C 
BRANCH  22  23
ATOM     23  N   UNL     1       0.002  -0.004   0.002  0.00  0.00    -0.301 N 
ATOM     24  C   UNL     1      -0.016   1.344   0.009  0.00  0.00    +0.251 C 
ATOM     25  O   UNL     1       1.026   1.964   0.003  0.00  0.00    -0.272 OA
ATOM     26  H   UNL     1      -0.831  -0.500   0.007  0.00  0.00    +0.150 HD
BRANCH  24  27
ATOM     27  C   UNL     1      -1.331   2.079   0.020  0.00  0.00    +0.324 C 
BRANCH  27  28
ATOM     28  O   UNL     1      -1.089   3.488   0.026  0.00  0.00    -0.483 OA
BRANCH  28  29
ATOM     29  C   UNL     1      -2.178   4.301   0.036  0.00  0.00    +0.121 A 
ATOM     30  C   UNL     1      -3.453   3.754   0.033  0.00  0.00    +0.045 A 
ATOM     31  C   UNL     1      -4.559   4.583   0.049  0.00  0.00    +0.004 A 
ATOM     32  C   UNL     1      -4.395   5.956   0.055  0.00  0.00    +0.000 A 
ATOM     33  C   UNL     1      -3.125   6.503   0.052  0.00  0.00    +0.004 A 
ATOM     34  C   UNL     1      -2.017   5.678   0.043  0.00  0.00    +0.045 A 
ENDBRANCH  28  29
ENDBRANCH  27  28
ENDBRANCH  24  27
ENDBRANCH  22  23
BRANCH  22  35
ATOM     35  C   UNL     1       1.801  -0.866   1.417  0.00  0.00    +0.042 C 
BRANCH  35  36
ATOM     36  C   UNL     1       2.118   0.517   1.989  0.00  0.00    +0.071 C 
BRANCH  36  37
ATOM     37  S   UNL     1       2.735   0.343   3.686  0.00  0.00    -0.164 S 
ATOM     38  C   UNL     1       3.059   2.048   4.213  0.00  0.00    +0.084 C 
ENDBRANCH  36  37
ENDBRANCH  35  36
ENDBRANCH  22  35
ENDBRANCH   2  22
TORSDOF 11
