REMARK  Name = ZINC12437403
REMARK  11 active torsions:
REMARK  status: ('A' for Active; 'I' for Inactive)
REMARK    1  A    between atoms: C_1  and  C_2
REMARK    2  A    between atoms: C_2  and  C_3
REMARK    3  A    between atoms: C_6  and  N_9
REMARK    4  A    between atoms: C_10  and  C_12
REMARK    5  A    between atoms: N_22  and  N_23
REMARK    6  A    between atoms: N_23  and  S_24
REMARK    7  A    between atoms: S_24  and  C_27
REMARK    8  A    between atoms: C_30  and  O_35
REMARK    9  A    between atoms: C_31  and  O_33
REMARK   10  A    between atoms: O_33  and  C_34
REMARK   11  A    between atoms: O_35  and  C_36
REMARK                            x       y       z     vdW  Elec       q    Type
REMARK                         _______ _______ _______ _____ _____    ______ ____
ROOT
ATOM      1  C   UNL     1       1.742   3.183   0.216  0.00  0.00    +0.101 A 
ATOM      2  C   UNL     1       2.939   2.760  -0.309  0.00  0.00    +0.030 A 
ATOM      3  C   UNL     1       3.918   3.787  -0.686  0.00  0.00    +0.018 A 
ATOM      4  C   UNL     1       5.030   3.462  -1.469  0.00  0.00    +0.011 A 
ATOM      5  C   UNL     1       5.934   4.445  -1.811  0.00  0.00    +0.001 A 
ATOM      6  C   UNL     1       5.745   5.750  -1.383  0.00  0.00    +0.004 A 
ATOM      7  C   UNL     1       4.652   6.084  -0.606  0.00  0.00    +0.047 A 
ATOM      8  C   UNL     1       3.733   5.111  -0.251  0.00  0.00    +0.138 A 
ATOM      9  O   UNL     1       2.656   5.425   0.515  0.00  0.00    -0.436 OA
ATOM     10  C   UNL     1       1.547   4.644   0.366  0.00  0.00    +0.249 A 
ATOM     11  N   UNL     1       0.353   5.168   0.357  0.00  0.00    -0.127 NA
ENDROOT
BRANCH   1  13
ATOM     12  N   UNL     1      -0.342   2.637   1.369  0.00  0.00    -0.281 N 
ATOM     13  C   UNL     1       0.698   2.225   0.617  0.00  0.00    +0.253 C 
ATOM     14  O   UNL     1       0.772   1.063   0.265  0.00  0.00    -0.270 OA
ATOM     15  H   UNL     1      -0.444   3.577   1.582  0.00  0.00    +0.155 HD
BRANCH  12  19
ATOM     16  C   UNL     1      -3.118  -0.131   2.776  0.00  0.00    -0.048 A 
ATOM     17  C   UNL     1      -3.536   1.128   2.384  0.00  0.00    +0.005 A 
ATOM     18  C   UNL     1      -2.618   2.048   1.917  0.00  0.00    +0.023 A 
ATOM     19  C   UNL     1      -1.274   1.708   1.841  0.00  0.00    +0.034 A 
ATOM     20  C   UNL     1      -0.858   0.441   2.230  0.00  0.00    +0.023 A 
ATOM     21  C   UNL     1      -1.780  -0.472   2.702  0.00  0.00    +0.005 A 
BRANCH  16  23
ATOM     22  C   UNL     1      -4.661  -1.956   2.114  0.00  0.00    +0.009 C 
ATOM     23  C   UNL     1      -4.123  -1.132   3.286  0.00  0.00    +0.032 C 
ENDBRANCH  16  23
ENDBRANCH  12  19
ENDBRANCH   1  13
BRANCH  11  24
ATOM     24  N   UNL     1       0.199   6.559   0.316  0.00  0.00    -0.133 N 
ATOM     25  H   UNL     1       0.977   7.136   0.378  0.00  0.00    +0.197 HD
BRANCH  24  26
ATOM     26  S   UNL     1      -1.311   7.221   0.163  0.00  0.00    +0.087 S 
ATOM     27  O   UNL     1      -1.139   8.632   0.166  0.00  0.00    -0.149 OA
ATOM     28  O   UNL     1      -1.949   6.534  -0.904  0.00  0.00    -0.149 OA
BRANCH  26  29
ATOM     29  C   UNL     1      -2.206   6.821   1.627  0.00  0.00    +0.114 A 
ATOM     30  C   UNL     1      -3.075   5.745   1.631  0.00  0.00    +0.032 A 
ATOM     31  C   UNL     1      -3.776   5.423   2.779  0.00  0.00    +0.051 A 
ATOM     32  C   UNL     1      -3.616   6.186   3.925  0.00  0.00    +0.162 A 
ATOM     33  C   UNL     1      -2.746   7.272   3.918  0.00  0.00    +0.163 A 
ATOM     34  C   UNL     1      -2.042   7.586   2.767  0.00  0.00    +0.078 A 
BRANCH  33  35
ATOM     35  O   UNL     1      -2.586   8.023   5.041  0.00  0.00    -0.491 OA
ATOM     36  C   UNL     1      -1.675   9.122   4.961  0.00  0.00    +0.277 C 
ENDBRANCH  33  35
BRANCH  32  37
ATOM     37  O   UNL     1      -4.309   5.875   5.053  0.00  0.00    -0.491 OA
ATOM     38  C   UNL     1      -5.184   4.747   4.986  0.00  0.00    +0.277 C 
ENDBRANCH  32  37
ENDBRANCH  26  29
ENDBRANCH  24  26
ENDBRANCH  11  24
TORSDOF 8
