REMARK  Name = ZINC01339463
REMARK  10 active torsions:
REMARK  status: ('A' for Active; 'I' for Inactive)
REMARK    1  A    between atoms: C_1  and  C_2
REMARK    2  A    between atoms: C_2  and  C_3
REMARK    3  A    between atoms: C_6  and  N_9
REMARK    4  A    between atoms: N_9  and  C_10
REMARK    5  A    between atoms: C_10  and  C_12
REMARK    6  A    between atoms: C_10  and  C_18
REMARK    7  A    between atoms: N_20  and  C_21
REMARK    8  A    between atoms: C_21  and  C_22
REMARK    9  A    between atoms: C_27  and  C_29
REMARK   10  A    between atoms: C_29  and  N_30
REMARK                            x       y       z     vdW  Elec       q    Type
REMARK                         _______ _______ _______ _____ _____    ______ ____
ROOT
ATOM      1  N   UNL     1      -0.545   1.476  -5.167  0.00  0.00    -0.254 N 
ATOM      2  C   UNL     1      -0.484   2.475  -6.070  0.00  0.00    +0.242 C 
ATOM      3  O   UNL     1      -0.446   3.628  -5.697  0.00  0.00    -0.273 OA
ENDROOT
BRANCH   1   7
ATOM      4  C   UNL     1      -0.376  -2.490  -6.431  0.00  0.00    -0.048 A 
ATOM      5  C   UNL     1      -1.544  -1.988  -5.888  0.00  0.00    +0.005 A 
ATOM      6  C   UNL     1      -1.604  -0.674  -5.467  0.00  0.00    +0.024 A 
ATOM      7  C   UNL     1      -0.488   0.144  -5.592  0.00  0.00    +0.038 A 
ATOM      8  C   UNL     1       0.681  -0.361  -6.144  0.00  0.00    +0.024 A 
ATOM      9  C   UNL     1       0.736  -1.677  -6.557  0.00  0.00    +0.005 A 
BRANCH   4  11
ATOM     10  C   UNL     1      -0.734  -4.011  -8.357  0.00  0.00    +0.009 C 
ATOM     11  C   UNL     1      -0.314  -3.925  -6.888  0.00  0.00    +0.032 C 
ENDBRANCH   4  11
ENDBRANCH   1   7
BRANCH   1  12
ATOM     12  C   UNL     1      -0.671   1.785  -3.740  0.00  0.00    +0.199 C 
BRANCH  12  13
ATOM     13  C   UNL     1      -0.888   0.510  -2.967  0.00  0.00    +0.000 A 
ATOM     14  C   UNL     1      -2.009   0.357  -2.165  0.00  0.00    +0.009 A 
ATOM     15  C   UNL     1      -2.167  -0.833  -1.472  0.00  0.00    +0.020 A 
ATOM     16  C   UNL     1      -1.208  -1.821  -1.603  0.00  0.00    +0.111 A 
ATOM     17  N   UNL     1      -0.155  -1.641  -2.375  0.00  0.00    -0.263 NA
ATOM     18  C   UNL     1       0.025  -0.524  -3.054  0.00  0.00    +0.116 A 
ENDBRANCH  12  13
BRANCH  12  19
ATOM     19  C   UNL     1       0.589   2.457  -3.259  0.00  0.00    +0.239 C 
ATOM     20  O   UNL     1       1.502   2.658  -4.031  0.00  0.00    -0.273 OA
ATOM     21  N   UNL     1       0.701   2.834  -1.970  0.00  0.00    -0.306 N 
ATOM     22  H   UNL     1      -0.030   2.674  -1.352  0.00  0.00    +0.149 HD
BRANCH  21  23
ATOM     23  C   UNL     1       1.926   3.487  -1.502  0.00  0.00    +0.178 C 
BRANCH  23  24
ATOM     24  C   UNL     1       1.796   3.805  -0.034  0.00  0.00    +0.122 A 
ATOM     25  C   UNL     1       2.153   2.997   0.980  0.00  0.00    +0.046 A 
ATOM     26  C   UNL     1       1.859   3.689   2.178  0.00  0.00    +0.041 A 
ATOM     27  C   UNL     1       1.341   4.879   1.823  0.00  0.00    +0.195 A 
ATOM     28  O   UNL     1       1.311   4.946   0.482  0.00  0.00    -0.466 OA
ENDBRANCH  23  24
ENDBRANCH  21  23
ENDBRANCH  12  19
ENDBRANCH   1  12
BRANCH   2  29
ATOM     29  C   UNL     1      -0.464   2.158  -7.543  0.00  0.00    +0.242 C 
BRANCH  29  30
ATOM     30  N   UNL     1      -0.297   3.397  -8.307  0.00  0.00    -0.235 N 
ATOM     31  C   UNL     1      -1.297   4.212  -8.782  0.00  0.00    +0.090 A 
ATOM     32  C   UNL     1      -2.686   4.179  -8.711  0.00  0.00    +0.029 A 
ATOM     33  C   UNL     1      -3.420   5.172  -9.296  0.00  0.00    +0.002 A 
ATOM     34  C   UNL     1      -2.791   6.220  -9.957  0.00  0.00    +0.002 A 
ATOM     35  C   UNL     1      -1.430   6.279 -10.035  0.00  0.00    +0.032 A 
ATOM     36  C   UNL     1      -0.654   5.273  -9.443  0.00  0.00    +0.113 A 
ATOM     37  N   UNL     1       0.674   5.064  -9.357  0.00  0.00    -0.129 NA
ATOM     38  N   UNL     1       0.915   3.983  -8.702  0.00  0.00    -0.064 NA
ENDBRANCH  29  30
ENDBRANCH   2  29
TORSDOF 9
