REMARK  Name = ZINC06197927
REMARK  14 active torsions:
REMARK  status: ('A' for Active; 'I' for Inactive)
REMARK    1  A    between atoms: C_1  and  C_2
REMARK    2  A    between atoms: C_2  and  C_3
REMARK    3  A    between atoms: C_10  and  C_15
REMARK    4  A    between atoms: C_15  and  C_17
REMARK    5  A    between atoms: C_15  and  N_71
REMARK    6  A    between atoms: N_21  and  C_22
REMARK    7  A    between atoms: C_22  and  C_23
REMARK    8  A    between atoms: C_22  and  C_24
REMARK    9  A    between atoms: C_22  and  C_25
REMARK   10  A    between atoms: C_25  and  C_26
REMARK   11  A    between atoms: C_29  and  C_32
REMARK   12  A    between atoms: C_32  and  O_34
REMARK   13  A    between atoms: O_34  and  C_35
REMARK   14  A    between atoms: C_35  and  C_36
REMARK                            x       y       z     vdW  Elec       q    Type
REMARK                         _______ _______ _______ _____ _____    ______ ____
ROOT
ATOM      1  C   UNL     1       3.531   0.711  -0.136  0.00  0.00    +0.039 C 
ENDROOT
BRANCH   1   9
ATOM      2  C   UNL     1       6.661  -0.345   5.096  0.00  0.00    -0.047 A 
ATOM      3  C   UNL     1       6.401   0.885   5.684  0.00  0.00    +0.005 A 
ATOM      4  C   UNL     1       5.641   1.831   5.030  0.00  0.00    +0.026 A 
ATOM      5  C   UNL     1       5.127   1.551   3.768  0.00  0.00    +0.049 A 
ATOM      6  C   UNL     1       5.393   0.302   3.175  0.00  0.00    -0.001 A 
ATOM      7  C   UNL     1       6.167  -0.642   3.857  0.00  0.00    +0.013 A 
ATOM      8  C   UNL     1       4.849   0.018   1.845  0.00  0.00    +0.017 A 
ATOM      9  C   UNL     1       4.106   0.972   1.232  0.00  0.00    +0.011 A 
ATOM     10  C   UNL     1       3.874   2.210   1.868  0.00  0.00    +0.251 A 
ATOM     11  O   UNL     1       3.207   3.056   1.296  0.00  0.00    -0.268 OA
ATOM     12  N   UNL     1       4.365   2.479   3.090  0.00  0.00    -0.322 N 
ATOM     13  H   UNL     1       4.174   3.364   3.515  0.00  0.00    +0.169 HD
BRANCH   2  15
ATOM     14  C   UNL     1       8.969  -1.167   5.475  0.00  0.00    +0.009 C 
ATOM     15  C   UNL     1       7.494  -1.363   5.831  0.00  0.00    +0.032 C 
ENDBRANCH   2  15
ENDBRANCH   1   9
BRANCH   1  21
ATOM     16  C   UNL     1       3.332   1.609  -2.376  0.00  0.00    -0.077 C 
ATOM     17  C   UNL     1       3.678   2.809  -3.260  0.00  0.00    -0.004 C 
ATOM     18  C   UNL     1       5.199   2.910  -3.402  0.00  0.00    +0.094 C 
ATOM     19  C   UNL     1       5.827   3.034  -2.010  0.00  0.00    -0.004 C 
ATOM     20  C   UNL     1       5.418   1.827  -1.163  0.00  0.00    -0.077 C 
ATOM     21  N   UNL     1       3.945   1.801  -1.044  0.00  0.00    +0.389 N 
ATOM     22  H   UNL     1       3.626   2.697  -0.657  0.00  0.00    -0.080 HD
BRANCH  18  23
ATOM     23  C   UNL     1       5.551   4.124  -4.222  0.00  0.00    +0.310 C 
ATOM     24  O   UNL     1       6.232   5.000  -3.745  0.00  0.00    -0.251 OA
BRANCH  23  25
ATOM     25  O   UNL     1       5.106   4.233  -5.484  0.00  0.00    -0.465 OA
BRANCH  25  26
ATOM     26  C   UNL     1       5.483   5.430  -6.215  0.00  0.00    +0.229 C 
ATOM     27  C   UNL     1       4.887   5.376  -7.624  0.00  0.00    +0.048 C 
ENDBRANCH  25  26
ENDBRANCH  23  25
ENDBRANCH  18  23
ENDBRANCH   1  21
BRANCH   1  28
ATOM     28  C   UNL     1       2.026   0.689  -0.053  0.00  0.00    +0.143 A 
ATOM     29  N   UNL     1       1.241   1.709   0.191  0.00  0.00    -0.115 NA
ATOM     30  N   UNL     1       0.024   1.285   0.180  0.00  0.00    -0.023 NA
ATOM     31  N   UNL     1       0.013   0.022  -0.065  0.00  0.00    -0.043 NA
ATOM     32  N   UNL     1       1.229  -0.384  -0.215  0.00  0.00    -0.225 N 
BRANCH  32  33
ATOM     33  C   UNL     1       1.660  -1.753  -0.507  0.00  0.00    +0.061 C 
ATOM     34  C   UNL     1       2.376  -1.786  -1.859  0.00  0.00    +0.036 C 
ATOM     35  C   UNL     1       2.616  -2.231   0.588  0.00  0.00    +0.036 C 
BRANCH  33  36
ATOM     36  C   UNL     1       0.438  -2.673  -0.554  0.00  0.00    +0.026 C 
ATOM     37  C   UNL     1       0.888  -4.103  -0.858  0.00  0.00    +0.006 C 
ENDBRANCH  33  36
ENDBRANCH  32  33
ENDBRANCH   1  28
TORSDOF 9
