REMARK  Name = ZINC27323503
REMARK  9 active torsions:
REMARK  status: ('A' for Active; 'I' for Inactive)
REMARK    1  A    between atoms: C_1  and  C_2
REMARK    2  A    between atoms: C_2  and  C_39
REMARK    3  A    between atoms: C_7  and  C_21
REMARK    4  A    between atoms: C_8  and  C_10
REMARK    5  A    between atoms: C_8  and  O_20
REMARK    6  A    between atoms: C_10  and  N_11
REMARK    7  A    between atoms: C_12  and  C_14
REMARK    8  A    between atoms: C_21  and  S_22
REMARK    9  A    between atoms: S_22  and  N_25
REMARK                            x       y       z     vdW  Elec       q    Type
REMARK                         _______ _______ _______ _____ _____    ______ ____
ROOT
ATOM      1  C   UNL     1      -9.758   3.257   1.416  0.00  0.00    +0.012 C 
ATOM      2  C   UNL     1      -8.368   2.754   1.019  0.00  0.00    -0.022 C 
ATOM      3  C   UNL     1      -7.417   2.596   2.280  0.00  0.00    -0.002 C 
ATOM      4  C   UNL     1      -7.324   4.073   2.772  0.00  0.00    +0.005 C 
ATOM      5  C   UNL     1      -7.387   4.920   1.480  0.00  0.00    +0.012 C 
ATOM      6  C   UNL     1      -7.512   3.874   0.329  0.00  0.00    +0.027 C 
ATOM      7  C   UNL     1      -6.117   3.181   0.278  0.00  0.00    +0.089 C 
ATOM      8  C   UNL     1      -6.060   2.316   1.558  0.00  0.00    +0.041 C 
ATOM      9  C   UNL     1      -8.445   1.485   0.168  0.00  0.00    +0.012 C 
ENDROOT
BRANCH   7  10
ATOM     10  O   UNL     1      -6.012   2.357  -0.884  0.00  0.00    -0.386 OA
ATOM     11  H   UNL     1      -5.088   1.792  -1.077  0.00  0.00    +0.210 HD
ENDBRANCH   7  10
BRANCH   7  12
ATOM     12  C   UNL     1      -5.000   4.227   0.292  0.00  0.00    +0.139 C 
BRANCH  12  13
ATOM     13  N   UNL     1      -3.700   3.554   0.224  0.00  0.00    -0.309 N 
ATOM     14  C   UNL     1      -2.565   4.281   0.222  0.00  0.00    +0.244 C 
ATOM     15  O   UNL     1      -2.620   5.494   0.278  0.00  0.00    -0.270 OA
ATOM     16  H   UNL     1      -3.651   2.457   0.173  0.00  0.00    +0.149 HD
BRANCH  14  17
ATOM     17  C   UNL     1      -1.251   3.601   0.153  0.00  0.00    +0.040 A 
ATOM     18  C   UNL     1      -1.165   2.207   0.083  0.00  0.00    +0.033 A 
ATOM     19  C   UNL     1       0.081   1.615   0.025  0.00  0.00    +0.111 A 
ATOM     20  N   UNL     1       1.179   2.345   0.025  0.00  0.00    -0.263 NA
ATOM     21  C   UNL     1       1.143   3.661   0.085  0.00  0.00    +0.111 A 
ATOM     22  C   UNL     1      -0.061   4.336   0.151  0.00  0.00    +0.033 A 
ENDBRANCH  14  17
ENDBRANCH  12  13
ENDBRANCH   7  12
BRANCH   6  23
ATOM     23  C   UNL     1      -8.043   4.407  -1.003  0.00  0.00    +0.195 C 
BRANCH  23  24
ATOM     24  S   UNL     1      -6.818   5.524  -1.739  0.00  0.00    +0.032 S 
ATOM     25  O   UNL     1      -6.520   6.584  -0.841  0.00  0.00    -0.158 OA
ATOM     26  O   UNL     1      -5.775   4.775  -2.347  0.00  0.00    -0.158 OA
BRANCH  24  27
ATOM     27  N   UNL     1      -7.608   6.250  -3.001  0.00  0.00    -0.181 NA
ATOM     28  C   UNL     1      -7.578   5.654  -4.344  0.00  0.00    +0.110 C 
ATOM     29  C   UNL     1      -9.025   5.479  -4.832  0.00  0.00    +0.033 C 
ATOM     30  C   UNL     1      -9.753   6.819  -4.746  0.00  0.00    +0.017 C 
ATOM     31  C   UNL     1      -9.782   7.316  -3.302  0.00  0.00    +0.033 C 
ATOM     32  C   UNL     1      -8.347   7.504  -2.800  0.00  0.00    +0.110 C 
ATOM     33  C   UNL     1      -9.077   7.836  -5.632  0.00  0.00    -0.015 C 
ATOM     34  C   UNL     1      -9.948   8.234  -6.543  0.00  0.00    +0.005 C 
ATOM     35  C   UNL     1     -11.245   7.553  -6.369  0.00  0.00    -0.021 A 
ATOM     36  C   UNL     1     -11.156   6.684  -5.279  0.00  0.00    -0.030 A 
ATOM     37  C   UNL     1     -12.240   5.926  -4.902  0.00  0.00    +0.005 A 
ATOM     38  C   UNL     1     -13.429   6.020  -5.605  0.00  0.00    +0.000 A 
ATOM     39  C   UNL     1     -13.529   6.877  -6.687  0.00  0.00    +0.001 A 
ATOM     40  C   UNL     1     -12.448   7.642  -7.072  0.00  0.00    +0.008 A 
ENDBRANCH  24  27
ENDBRANCH  23  24
ENDBRANCH   6  23
TORSDOF 7
