REMARK  Name = ZINC36749067
REMARK  7 active torsions:
REMARK  status: ('A' for Active; 'I' for Inactive)
REMARK    1  A    between atoms: C_1  and  C_2
REMARK    2  A    between atoms: C_3  and  N_20
REMARK    3  A    between atoms: C_4  and  N_8
REMARK    4  A    between atoms: N_5  and  C_7
REMARK    5  A    between atoms: N_8  and  C_9
REMARK    6  A    between atoms: C_14  and  C_19
REMARK    7  A    between atoms: C_16  and  C_18
REMARK                            x       y       z     vdW  Elec       q    Type
REMARK                         _______ _______ _______ _____ _____    ______ ____
ROOT
ATOM      1  C   UNL     1       0.671   1.080   1.027  0.00  0.00    +0.069 C 
ATOM      2  C   UNL     1       0.154  -0.206   0.436  0.00  0.00    +0.082 A 
ATOM      3  C   UNL     1       0.840  -1.026  -0.468  0.00  0.00    +0.087 A 
ATOM      4  C   UNL     1       0.036  -2.089  -0.759  0.00  0.00    +0.138 A 
ATOM      5  N   UNL     1      -1.117  -1.933  -0.054  0.00  0.00    -0.252 N 
ATOM      6  N   UNL     1      -1.011  -0.750   0.687  0.00  0.00    -0.173 NA
ATOM      7  C   UNL     1      -2.264  -2.845  -0.065  0.00  0.00    +0.174 C 
ENDROOT
BRANCH   3   8
ATOM      8  N   UNL     1       2.134  -0.793  -0.987  0.00  0.00    -0.354 N 
ATOM      9  H   UNL     1       2.629  -0.003  -0.718  0.00  0.00    +0.142 HD
ATOM     10  H   UNL     1       2.526  -1.422  -1.612  0.00  0.00    +0.142 HD
ENDBRANCH   3   8
BRANCH   4  11
ATOM     11  N   UNL     1       0.342  -3.144  -1.622  0.00  0.00    -0.325 N 
ATOM     12  H   UNL     1       0.413  -2.985  -2.576  0.00  0.00    +0.148 HD
BRANCH  11  13
ATOM     13  C   UNL     1       0.555  -4.491  -1.086  0.00  0.00    +0.075 C 
ATOM     14  C   UNL     1       2.017  -4.644  -0.659  0.00  0.00    +0.022 C 
ATOM     15  C   UNL     1       2.239  -6.051  -0.099  0.00  0.00    +0.002 C 
ATOM     16  C   UNL     1       1.912  -7.086  -1.177  0.00  0.00    +0.003 C 
ATOM     17  C   UNL     1       0.451  -6.933  -1.604  0.00  0.00    -0.009 C 
ATOM     18  C   UNL     1       0.228  -5.526  -2.164  0.00  0.00    +0.009 C 
ATOM     19  C   UNL     1       1.139  -5.309  -3.374  0.00  0.00    +0.009 C 
ATOM     20  C   UNL     1       0.124  -7.968  -2.682  0.00  0.00    +0.008 C 
ENDBRANCH  11  13
ENDBRANCH   4  11
TORSDOF 3
