REMARK  Name = ZINC23435918
REMARK  12 active torsions:
REMARK  status: ('A' for Active; 'I' for Inactive)
REMARK    1  A    between atoms: C_1  and  C_2
REMARK    2  A    between atoms: C_2  and  C_3
REMARK    3  A    between atoms: C_3  and  C_4
REMARK    4  A    between atoms: C_4  and  N_5
REMARK    5  A    between atoms: N_5  and  C_6
REMARK    6  A    between atoms: N_5  and  C_13
REMARK    7  A    between atoms: C_6  and  C_7
REMARK    8  A    between atoms: C_13  and  C_14
REMARK    9  A    between atoms: C_17  and  C_20
REMARK   10  A    between atoms: C_30  and  O_32
REMARK   11  A    between atoms: O_32  and  C_33
REMARK   12  A    between atoms: C_37  and  C_39
REMARK                            x       y       z     vdW  Elec       q    Type
REMARK                         _______ _______ _______ _____ _____    ______ ____
ROOT
ATOM      1  C   UNL     1       0.692  -0.553   3.427  0.00  0.00    -0.064 A 
ATOM      2  C   UNL     1       1.757   0.223   3.850  0.00  0.00    +0.002 A 
ATOM      3  C   UNL     1       1.658   1.599   3.843  0.00  0.00    +0.013 A 
ATOM      4  C   UNL     1       0.479   2.208   3.409  0.00  0.00    +0.037 A 
ATOM      5  C   UNL     1      -0.591   1.420   2.983  0.00  0.00    +0.013 A 
ATOM      6  C   UNL     1      -0.476   0.045   2.990  0.00  0.00    +0.002 A 
ENDROOT
BRANCH   4   7
ATOM      7  C   UNL     1       0.366   3.682   3.399  0.00  0.00    +0.247 C 
ATOM      8  O   UNL     1       1.368   4.369   3.357  0.00  0.00    -0.270 OA
ATOM      9  N   UNL     1      -0.849   4.264   3.438  0.00  0.00    -0.291 N 
ATOM     10  C   UNL     1      -1.181   5.704   3.309  0.00  0.00    +0.080 C 
ATOM     11  C   UNL     1      -2.271   5.941   4.379  0.00  0.00    +0.024 C 
ATOM     12  C   UNL     1      -2.927   4.559   4.584  0.00  0.00    +0.024 C 
ATOM     13  C   UNL     1      -2.172   3.617   3.613  0.00  0.00    +0.080 C 
ATOM     14  C   UNL     1      -2.887   3.666   2.253  0.00  0.00    +0.067 C 
ATOM     15  C   UNL     1      -3.138   5.130   1.878  0.00  0.00    +0.177 C 
ATOM     16  C   UNL     1      -1.812   5.905   1.922  0.00  0.00    +0.067 C 
BRANCH  15  17
ATOM     17  O   UNL     1      -3.675   5.196   0.555  0.00  0.00    -0.489 OA
BRANCH  17  18
ATOM     18  C   UNL     1      -4.427   6.286   0.249  0.00  0.00    +0.122 A 
ATOM     19  C   UNL     1      -4.543   7.327   1.160  0.00  0.00    +0.046 A 
ATOM     20  C   UNL     1      -5.306   8.439   0.853  0.00  0.00    +0.005 A 
ATOM     21  C   UNL     1      -5.958   8.521  -0.360  0.00  0.00    +0.019 A 
ATOM     22  C   UNL     1      -5.847   7.479  -1.283  0.00  0.00    +0.055 A 
ATOM     23  C   UNL     1      -5.072   6.360  -0.974  0.00  0.00    +0.064 A 
BRANCH  22  24
ATOM     24  C   UNL     1      -6.521   7.560  -2.543  0.00  0.00    +0.099 C 
ATOM     25  N   UNL     1      -7.057   7.625  -3.543  0.00  0.00    -0.191 NA
ENDBRANCH  22  24
ENDBRANCH  17  18
ENDBRANCH  15  17
ENDBRANCH   4   7
BRANCH   1  26
ATOM     26  C   UNL     1       0.808  -2.055   3.437  0.00  0.00    -0.043 C 
BRANCH  26  27
ATOM     27  N   UNL     1       1.199  -2.526   2.101  0.00  0.00    +0.385 N 
ATOM     28  H   UNL     1       0.536  -2.188   1.419  0.00  0.00    -0.081 HD
BRANCH  27  29
ATOM     29  C   UNL     1       1.215  -3.994   2.084  0.00  0.00    -0.078 C 
BRANCH  29  30
ATOM     30  C   UNL     1      -0.200  -4.523   2.328  0.00  0.00    -0.019 C 
BRANCH  30  32
ATOM     31  C   UNL     1      -1.625  -6.573   2.416  0.00  0.00    +0.004 C 
ATOM     32  C   UNL     1      -0.210  -6.045   2.171  0.00  0.00    -0.005 C 
ENDBRANCH  30  32
ENDBRANCH  29  30
ENDBRANCH  27  29
BRANCH  27  33
ATOM     33  C   UNL     1       2.538  -2.017   1.776  0.00  0.00    -0.043 C 
BRANCH  33  34
ATOM     34  C   UNL     1       2.889  -2.396   0.360  0.00  0.00    -0.064 A 
ATOM     35  C   UNL     1       3.527  -3.594   0.103  0.00  0.00    +0.002 A 
ATOM     36  C   UNL     1       3.849  -3.941  -1.196  0.00  0.00    +0.000 A 
ATOM     37  C   UNL     1       3.531  -3.090  -2.238  0.00  0.00    +0.000 A 
ATOM     38  C   UNL     1       2.891  -1.892  -1.981  0.00  0.00    +0.000 A 
ATOM     39  C   UNL     1       2.566  -1.547  -0.683  0.00  0.00    +0.002 A 
ENDBRANCH  33  34
ENDBRANCH  27  33
ENDBRANCH  26  27
ENDBRANCH   1  26
TORSDOF 11
