REMARK  Name = ZINC08025904
REMARK  6 active torsions:
REMARK  status: ('A' for Active; 'I' for Inactive)
REMARK    1  A    between atoms: C_1  and  C_2
REMARK    2  A    between atoms: C_8  and  N_10
REMARK    3  A    between atoms: C_11  and  C_13
REMARK    4  A    between atoms: C_16  and  N_22
REMARK    5  A    between atoms: C_17  and  N_19
REMARK    6  A    between atoms: N_22  and  C_23
REMARK                            x       y       z     vdW  Elec       q    Type
REMARK                         _______ _______ _______ _____ _____    ______ ____
ROOT
ATOM      1  C   UNL     1       1.171  -2.555   2.924  0.00  0.00    +0.039 A 
ATOM      2  C   UNL     1       0.032  -3.229   2.475  0.00  0.00    +0.015 A 
ATOM      3  C   UNL     1      -0.092  -4.583   2.687  0.00  0.00    +0.026 A 
ATOM      4  C   UNL     1       0.910  -5.279   3.357  0.00  0.00    +0.058 A 
ATOM      5  C   UNL     1       2.043  -4.609   3.811  0.00  0.00    +0.148 A 
ATOM      6  C   UNL     1       2.175  -3.256   3.597  0.00  0.00    +0.047 A 
ENDROOT
BRANCH   1   8
ATOM      7  N   UNL     1       0.340  -0.429   2.045  0.00  0.00    -0.308 N 
ATOM      8  C   UNL     1       1.310  -1.104   2.694  0.00  0.00    +0.244 C 
ATOM      9  O   UNL     1       2.299  -0.518   3.090  0.00  0.00    -0.270 OA
ATOM     10  H   UNL     1      -0.448  -0.897   1.729  0.00  0.00    +0.149 HD
BRANCH   7  17
ATOM     11  C   UNL     1       0.145   0.654  -0.634  0.00  0.00    +0.009 C 
ATOM     12  C   UNL     1      -0.352   1.416   0.596  0.00  0.00    +0.006 C 
ATOM     13  C   UNL     1      -0.208   2.920   0.357  0.00  0.00    +0.005 C 
ATOM     14  C   UNL     1      -0.705   3.682   1.588  0.00  0.00    +0.000 C 
ATOM     15  C   UNL     1       0.125   3.277   2.808  0.00  0.00    +0.002 C 
ATOM     16  C   UNL     1      -0.018   1.773   3.046  0.00  0.00    +0.022 C 
ATOM     17  C   UNL     1       0.478   1.011   1.816  0.00  0.00    +0.076 C 
ENDBRANCH   7  17
ENDBRANCH   1   8
BRANCH   5  18
ATOM     18  N   UNL     1       3.106  -5.353   4.524  0.00  0.00    +0.058 N 
ATOM     19  O   UNL     1       3.689  -4.835   5.459  0.00  0.00    -0.126 OA
ATOM     20  O   UNL     1       3.397  -6.483   4.175  0.00  0.00    -0.126 OA
ENDBRANCH   5  18
BRANCH   4  21
ATOM     21  N   UNL     1       0.779  -6.647   3.574  0.00  0.00    -0.345 N 
ATOM     22  C   UNL     1      -0.347  -7.377   2.987  0.00  0.00    +0.125 C 
ATOM     23  H   UNL     1       1.434  -7.117   4.114  0.00  0.00    +0.146 HD
ENDBRANCH   4  21
TORSDOF 4
