REMARK  Name = ZINC06856421
REMARK  5 active torsions:
REMARK  status: ('A' for Active; 'I' for Inactive)
REMARK    1  A    between atoms: C_1  and  C_2
REMARK    2  A    between atoms: C_5  and  C_7
REMARK    3  A    between atoms: C_5  and  O_10
REMARK    4  A    between atoms: C_11  and  C_13
REMARK    5  A    between atoms: C_15  and  C_19
REMARK                            x       y       z     vdW  Elec       q    Type
REMARK                         _______ _______ _______ _____ _____    ______ ____
ROOT
ATOM      1  C   UNL     1      -0.018   1.503   0.010  0.00  0.00    +0.062 C 
ATOM      2  C   UNL     1       0.002  -0.004   0.002  0.00  0.00    +0.039 C 
ATOM      3  N   UNL     1       0.008  -0.729  -1.041  0.00  0.00    -0.184 NA
ATOM      4  N   UNL     1       0.028  -2.100  -0.791  0.00  0.00    -0.150 N 
ATOM      5  C   UNL     1       0.038  -2.314   0.665  0.00  0.00    +0.222 C 
ATOM      6  C   UNL     1       0.026  -0.880   1.234  0.00  0.00    +0.115 C 
ATOM      7  C   UNL     1       0.038  -3.068  -1.728  0.00  0.00    +0.289 C 
ATOM      8  O   UNL     1       0.055  -4.237  -1.393  0.00  0.00    -0.266 OA
ENDROOT
BRANCH   7   9
ATOM      9  C   UNL     1       0.027  -2.711  -3.161  0.00  0.00    +0.149 A 
ATOM     10  C   UNL     1       0.030  -3.611  -4.248  0.00  0.00    +0.062 A 
ATOM     11  C   UNL     1       0.017  -2.829  -5.369  0.00  0.00    +0.067 A 
ATOM     12  N   UNL     1       0.006  -1.533  -4.945  0.00  0.00    -0.276 N 
ATOM     13  H   UNL     1      -0.004  -0.757  -5.527  0.00  0.00    +0.189 HD
ATOM     14  N   UNL     1       0.008  -1.491  -3.661  0.00  0.00    -0.169 NA
BRANCH  11  15
ATOM     15  C   UNL     1       0.014  -3.298  -6.772  0.00  0.00    +0.001 A 
ATOM     16  C   UNL     1       0.020  -4.665  -7.054  0.00  0.00    +0.010 A 
ATOM     17  C   UNL     1       0.017  -5.096  -8.364  0.00  0.00    +0.002 A 
ATOM     18  C   UNL     1       0.007  -4.178  -9.399  0.00  0.00    +0.015 A 
ATOM     19  C   UNL     1       0.002  -2.821  -9.126  0.00  0.00    +0.019 A 
ATOM     20  C   UNL     1      -0.001  -2.376  -7.819  0.00  0.00    +0.025 A 
ATOM     21 BR   UNL     1      -0.010  -1.573 -10.547  0.00  0.00    -0.050 Br
ENDBRANCH  11  15
ENDBRANCH   7   9
BRANCH   5  22
ATOM     22  C   UNL     1       1.309  -3.049   1.095  0.00  0.00    +0.393 C 
ATOM     23  F   UNL     1       1.351  -4.305   0.480  0.00  0.00    -0.204 F 
ATOM     24  F   UNL     1       2.430  -2.305   0.712  0.00  0.00    -0.204 F 
ENDBRANCH   5  22
BRANCH   5  25
ATOM     25  O   UNL     1      -1.126  -3.034   1.077  0.00  0.00    -0.365 OA
ATOM     26  H   UNL     1      -1.200  -3.916   0.689  0.00  0.00    +0.212 HD
ENDBRANCH   5  25
TORSDOF 4
