REMARK  Name = ZINC63552629
REMARK  12 active torsions:
REMARK  status: ('A' for Active; 'I' for Inactive)
REMARK    1  A    between atoms: C_1  and  C_2
REMARK    2  A    between atoms: C_2  and  C_3
REMARK    3  A    between atoms: C_2  and  C_4
REMARK    4  A    between atoms: C_4  and  C_5
REMARK    5  A    between atoms: C_5  and  N_6
REMARK    6  A    between atoms: C_11  and  C_21
REMARK    7  A    between atoms: C_21  and  C_22
REMARK    8  A    between atoms: C_22  and  C_23
REMARK    9  A    between atoms: C_23  and  C_24
REMARK   10  A    between atoms: N_26  and  C_27
REMARK   11  A    between atoms: C_27  and  C_28
REMARK   12  A    between atoms: C_28  and  C_29
REMARK                            x       y       z     vdW  Elec       q    Type
REMARK                         _______ _______ _______ _____ _____    ______ ____
ROOT
ATOM      1  N   UNL     1      -2.790  -2.565  -0.111  0.00  0.00    -0.265 N 
ATOM      2  C   UNL     1      -3.417  -2.919   1.157  0.00  0.00    +0.253 C 
ATOM      3  N   UNL     1      -2.447  -3.398   2.159  0.00  0.00    -0.219 NA
ATOM      4  N   UNL     1      -3.257  -4.292   3.010  0.00  0.00    -0.234 NA
ATOM      5  C   UNL     1      -4.128  -5.004   2.035  0.00  0.00    +0.158 C 
ATOM      6  N   UNL     1      -4.349  -4.051   0.956  0.00  0.00    -0.280 N 
ATOM      7  C   UNL     1      -5.174  -4.105  -0.168  0.00  0.00    +0.053 A 
ATOM      8  C   UNL     1      -6.383  -4.719  -0.386  0.00  0.00    +0.031 A 
ATOM      9  C   UNL     1      -6.978  -4.610  -1.601  0.00  0.00    +0.048 A 
ATOM     10  S   UNL     1      -5.918  -3.664  -2.506  0.00  0.00    -0.090 S 
ATOM     11  C   UNL     1      -4.675  -3.400  -1.287  0.00  0.00    +0.095 A 
ATOM     12  C   UNL     1      -3.468  -2.694  -1.284  0.00  0.00    +0.257 C 
ATOM     13  O   UNL     1      -3.029  -2.209  -2.311  0.00  0.00    -0.269 OA
ATOM     14  H   UNL     1      -2.072  -2.630   2.695  0.00  0.00    +0.144 HD
ATOM     15  H   UNL     1      -3.809  -3.762   3.668  0.00  0.00    +0.143 HD
ENDROOT
BRANCH   1  16
ATOM     16  C   UNL     1      -1.416  -2.058  -0.121  0.00  0.00    +0.111 C 
BRANCH  16  17
ATOM     17  C   UNL     1      -1.433  -0.534   0.013  0.00  0.00    +0.022 C 
BRANCH  17  19
ATOM     18  C   UNL     1      -0.019   1.526   0.010  0.00  0.00    +0.007 C 
ATOM     19  C   UNL     1       0.002  -0.004   0.002  0.00  0.00    -0.016 C 
ATOM     20  C   UNL     1       0.742  -0.511   1.242  0.00  0.00    +0.007 C 
ENDBRANCH  17  19
ENDBRANCH  16  17
ENDBRANCH   1  16
BRANCH   5  21
ATOM     21  C   UNL     1      -5.456  -5.387   2.690  0.00  0.00    +0.040 C 
BRANCH  21  22
ATOM     22  C   UNL     1      -5.192  -6.334   3.863  0.00  0.00    +0.012 C 
BRANCH  22  23
ATOM     23  C   UNL     1      -6.521  -6.717   4.518  0.00  0.00    +0.096 C 
BRANCH  23  24
ATOM     24  C   UNL     1      -6.261  -7.650   5.673  0.00  0.00    +0.213 C 
ATOM     25  O   UNL     1      -5.125  -7.976   5.945  0.00  0.00    -0.276 OA
ATOM     26  N   UNL     1      -7.290  -8.122   6.403  0.00  0.00    -0.315 N 
ATOM     27  H   UNL     1      -8.199  -7.861   6.186  0.00  0.00    +0.149 HD
BRANCH  26  28
ATOM     28  C   UNL     1      -7.038  -9.028   7.526  0.00  0.00    +0.108 C 
BRANCH  28  29
ATOM     29  C   UNL     1      -8.366  -9.412   8.181  0.00  0.00    +0.052 C 
BRANCH  29  30
ATOM     30  C   UNL     1      -8.106 -10.344   9.336  0.00  0.00    -0.040 C 
ATOM     31  C   UNL     1      -7.980 -10.008  10.640  0.00  0.00    -0.001 A 
ATOM     32  C   UNL     1      -8.044  -8.723  11.347  0.00  0.00    +0.010 A 
ATOM     33  C   UNL     1      -7.875  -8.703  12.688  0.00  0.00    +0.001 A 
ATOM     34  C   UNL     1      -7.640  -9.876  13.419  0.00  0.00    +0.002 A 
ATOM     35  C   UNL     1      -7.568 -11.093  12.841  0.00  0.00    +0.026 A 
ATOM     36  C   UNL     1      -7.731 -11.232  11.435  0.00  0.00    +0.043 A 
ATOM     37  N   UNL     1      -7.705 -12.284  10.653  0.00  0.00    -0.380 N 
ATOM     38  C   UNL     1      -7.940 -11.846   9.272  0.00  0.00    +0.144 C 
ATOM     39  H   UNL     1      -7.558 -13.199  10.939  0.00  0.00    +0.160 HD
ENDBRANCH  29  30
ENDBRANCH  28  29
ENDBRANCH  26  28
ENDBRANCH  23  24
ENDBRANCH  22  23
ENDBRANCH  21  22
ENDBRANCH   5  21
TORSDOF 10
