REMARK  Name = ZINC15444093
REMARK  5 active torsions:
REMARK  status: ('A' for Active; 'I' for Inactive)
REMARK    1  A    between atoms: C_1  and  C_2
REMARK    2  A    between atoms: C_5  and  N_9
REMARK    3  A    between atoms: C_6  and  C_8
REMARK    4  A    between atoms: N_9  and  S_10
REMARK    5  A    between atoms: S_10  and  C_13
REMARK                            x       y       z     vdW  Elec       q    Type
REMARK                         _______ _______ _______ _____ _____    ______ ____
ROOT
ATOM      1  S   UNL     1      -2.093  -3.531  -0.050  0.00  0.00    +0.096 S 
ATOM      2  O   UNL     1      -2.081  -4.221  -1.292  0.00  0.00    -0.148 OA
ATOM      3  O   UNL     1      -1.945  -4.201   1.195  0.00  0.00    -0.148 OA
ENDROOT
BRANCH   1   4
ATOM      4  C   UNL     1      -0.807  -2.328  -0.130  0.00  0.00    +0.238 A 
ATOM      5  N   UNL     1      -0.914  -1.026  -0.134  0.00  0.00    -0.200 NA
ATOM      6  C   UNL     1       0.148  -0.216  -0.199  0.00  0.00    +0.175 A 
ATOM      7  C   UNL     1       1.396  -0.883  -0.262  0.00  0.00    +0.096 A 
ATOM      8  S   UNL     1       0.908  -2.587  -0.221  0.00  0.00    -0.042 S 
ATOM      9  C   UNL     1       2.576  -0.187  -0.331  0.00  0.00    +0.150 A 
ATOM     10  N   UNL     1       2.525   1.142  -0.339  0.00  0.00    -0.205 NA
ATOM     11  C   UNL     1       1.357   1.760  -0.280  0.00  0.00    +0.226 A 
ATOM     12  N   UNL     1       0.208   1.133  -0.212  0.00  0.00    -0.197 NA
ATOM     13 CL   UNL     1       1.346   3.496  -0.293  0.00  0.00    -0.041 Cl
ATOM     14 CL   UNL     1       4.098  -1.019  -0.408  0.00  0.00    -0.061 Cl
ENDBRANCH   1   4
BRANCH   1  15
ATOM     15  N   UNL     1      -3.529  -2.709   0.023  0.00  0.00    -0.214 N 
ATOM     16  H   UNL     1      -4.115  -2.823   0.787  0.00  0.00    +0.174 HD
BRANCH  15  21
ATOM     17  C   UNL     1      -5.020   0.771  -4.199  0.00  0.00    +0.044 C 
ATOM     18  C   UNL     1      -4.623  -0.153  -3.077  0.00  0.00    -0.050 A 
ATOM     19  C   UNL     1      -3.931  -1.318  -3.355  0.00  0.00    +0.005 A 
ATOM     20  C   UNL     1      -3.567  -2.168  -2.329  0.00  0.00    +0.025 A 
ATOM     21  C   UNL     1      -3.895  -1.851  -1.017  0.00  0.00    +0.051 A 
ATOM     22  C   UNL     1      -4.595  -0.683  -0.742  0.00  0.00    -0.028 A 
ATOM     23  C   UNL     1      -4.952   0.164  -1.772  0.00  0.00    +0.008 A 
ATOM     24  C   UNL     1      -4.959  -0.339   0.679  0.00  0.00    +0.046 C 
ENDBRANCH  15  21
ENDBRANCH   1  15
TORSDOF 3
