REMARK  Name = ZINC13113146
REMARK  8 active torsions:
REMARK  status: ('A' for Active; 'I' for Inactive)
REMARK    1  A    between atoms: C_1  and  C_2
REMARK    2  A    between atoms: C_2  and  C_4
REMARK    3  A    between atoms: C_2  and  S_15
REMARK    4  A    between atoms: N_6  and  C_7
REMARK    5  A    between atoms: C_10  and  C_13
REMARK    6  A    between atoms: S_15  and  C_16
REMARK    7  A    between atoms: C_19  and  C_22
REMARK    8  A    between atoms: N_20  and  N_21
REMARK                            x       y       z     vdW  Elec       q    Type
REMARK                         _______ _______ _______ _____ _____    ______ ____
ROOT
ATOM      1  C   UNL     1       0.140   0.916   2.727  0.00  0.00    +0.209 A 
ATOM      2  N   UNL     1       1.054  -0.008   2.532  0.00  0.00    -0.121 NA
ATOM      3  N   UNL     1       1.474  -0.459   3.660  0.00  0.00    -0.127 NA
ATOM      4  C   UNL     1       0.854   0.149   4.644  0.00  0.00    +0.183 A 
ATOM      5  N   UNL     1      -0.015   1.052   4.077  0.00  0.00    -0.224 N 
ENDROOT
BRANCH   4   6
ATOM      6  C   UNL     1       1.056  -0.087   6.089  0.00  0.00    +0.039 A 
ATOM      7  C   UNL     1      -0.044  -0.232   6.936  0.00  0.00    +0.014 A 
ATOM      8  C   UNL     1       0.151  -0.458   8.283  0.00  0.00    +0.021 A 
ATOM      9  C   UNL     1       1.435  -0.531   8.798  0.00  0.00    +0.042 A 
ATOM     10  C   UNL     1       2.530  -0.383   7.965  0.00  0.00    +0.040 A 
ATOM     11  C   UNL     1       2.349  -0.162   6.614  0.00  0.00    +0.053 A 
ATOM     12 CL   UNL     1       3.723   0.024   5.570  0.00  0.00    -0.083 Cl
ATOM     13 CL   UNL     1       1.671  -0.808  10.495  0.00  0.00    -0.083 Cl
ENDBRANCH   4   6
BRANCH   5  14
ATOM     14  N   UNL     1      -0.860   1.905   4.729  0.00  0.00    -0.295 N 
ATOM     15  H   UNL     1      -1.726   1.446   4.965  0.00  0.00    +0.163 HD
ATOM     16  H   UNL     1      -0.420   2.293   5.550  0.00  0.00    +0.163 HD
ENDBRANCH   5  14
BRANCH   1  17
ATOM     17  S   UNL     1      -0.719   1.816   1.480  0.00  0.00    -0.072 S 
BRANCH  17  19
ATOM     18  C   UNL     1       1.515   1.443  -0.049  0.00  0.00    +0.029 C 
ATOM     19  C   UNL     1       0.027   1.090  -0.002  0.00  0.00    +0.137 C 
BRANCH  19  20
ATOM     20  C   UNL     1      -0.658   1.637  -1.228  0.00  0.00    +0.230 C 
ATOM     21  O   UNL     1      -1.209   2.716  -1.184  0.00  0.00    -0.274 OA
ATOM     22  N   UNL     1      -0.658   0.925  -2.373  0.00  0.00    -0.285 N 
ATOM     23  H   UNL     1      -0.279   0.032  -2.389  0.00  0.00    +0.155 HD
BRANCH  22  24
ATOM     24  C   UNL     1      -1.202   1.474  -3.535  0.00  0.00    +0.033 A 
ATOM     25  C   UNL     1      -2.322   2.294  -3.456  0.00  0.00    +0.024 A 
ATOM     26  C   UNL     1      -2.859   2.842  -4.600  0.00  0.00    +0.020 A 
ATOM     27  C   UNL     1      -2.282   2.564  -5.843  0.00  0.00    +0.052 A 
ATOM     28  C   UNL     1      -1.159   1.734  -5.918  0.00  0.00    +0.020 A 
ATOM     29  C   UNL     1      -0.625   1.194  -4.770  0.00  0.00    +0.024 A 
BRANCH  27  30
ATOM     30  C   UNL     1      -2.840   3.127  -7.035  0.00  0.00    +0.099 C 
ATOM     31  N   UNL     1      -3.282   3.574  -7.981  0.00  0.00    -0.191 NA
ENDBRANCH  27  30
ENDBRANCH  22  24
ENDBRANCH  19  20
ENDBRANCH  17  19
ENDBRANCH   1  17
TORSDOF 7
