REMARK  Name = ZINC54105837
REMARK  9 active torsions:
REMARK  status: ('A' for Active; 'I' for Inactive)
REMARK    1  A    between atoms: C_1  and  C_2
REMARK    2  A    between atoms: C_2  and  O_3
REMARK    3  A    between atoms: O_3  and  C_4
REMARK    4  A    between atoms: C_4  and  C_6
REMARK    5  A    between atoms: N_11  and  C_13
REMARK    6  A    between atoms: C_13  and  C_14
REMARK    7  A    between atoms: C_14  and  N_16
REMARK    8  A    between atoms: C_26  and  C_35
REMARK    9  A    between atoms: C_27  and  C_29
REMARK                            x       y       z     vdW  Elec       q    Type
REMARK                         _______ _______ _______ _____ _____    ______ ____
ROOT
ATOM      1  N   UNL     1      -5.669  -7.840   0.502  0.00  0.00    -0.168 NA
ATOM      2  C   UNL     1      -6.860  -8.306   0.806  0.00  0.00    +0.105 C 
ATOM      3  N   UNL     1      -7.903  -7.472   0.865  0.00  0.00    -0.302 N 
ATOM      4  C   UNL     1      -9.192  -7.836   1.227  0.00  0.00    +0.058 A 
ATOM      5  C   UNL     1      -9.894  -6.949   2.046  0.00  0.00    +0.025 A 
ATOM      6  C   UNL     1     -11.177  -7.236   2.459  0.00  0.00    +0.002 A 
ATOM      7  C   UNL     1     -11.785  -8.414   2.062  0.00  0.00    +0.002 A 
ATOM      8  C   UNL     1     -11.110  -9.298   1.252  0.00  0.00    +0.029 A 
ATOM      9  C   UNL     1      -9.804  -9.019   0.821  0.00  0.00    +0.085 A 
ATOM     10  N   UNL     1      -9.211  -9.941   0.010  0.00  0.00    -0.254 NA
ATOM     11  C   UNL     1      -8.004 -10.333   0.074  0.00  0.00    +0.031 C 
ATOM     12  C   UNL     1      -7.039  -9.778   1.079  0.00  0.00    +0.124 C 
ATOM     13  C   UNL     1      -7.527 -11.387  -0.892  0.00  0.00    +0.062 C 
ATOM     14  H   UNL     1      -7.746  -6.542   0.637  0.00  0.00    +0.153 HD
ENDROOT
BRANCH  12  15
ATOM     15  C   UNL     1      -7.589  -9.974   2.469  0.00  0.00    -0.032 A 
ATOM     16  C   UNL     1      -8.309 -11.114   2.772  0.00  0.00    +0.005 A 
ATOM     17  C   UNL     1      -8.813 -11.294   4.047  0.00  0.00    +0.000 A 
ATOM     18  C   UNL     1      -8.597 -10.334   5.018  0.00  0.00    +0.000 A 
ATOM     19  C   UNL     1      -7.876  -9.195   4.714  0.00  0.00    +0.000 A 
ATOM     20  C   UNL     1      -7.368  -9.017   3.441  0.00  0.00    +0.005 A 
ENDBRANCH  12  15
BRANCH   1  21
ATOM     21  C   UNL     1      -5.480  -6.522   0.372  0.00  0.00    +0.252 C 
ATOM     22  O   UNL     1      -5.816  -5.769   1.265  0.00  0.00    -0.272 OA
BRANCH  21  23
ATOM     23  C   UNL     1      -4.849  -5.970  -0.880  0.00  0.00    +0.182 C 
BRANCH  23  28
ATOM     24  C   UNL     1      -3.731  -2.456  -1.641  0.00  0.00    +0.112 C 
ATOM     25  C   UNL     1      -5.097  -1.764  -1.609  0.00  0.00    +0.017 C 
ATOM     26  C   UNL     1      -5.951  -2.389  -0.503  0.00  0.00    +0.016 C 
ATOM     27  C   UNL     1      -6.086  -3.893  -0.757  0.00  0.00    +0.085 C 
ATOM     28  N   UNL     1      -4.753  -4.508  -0.777  0.00  0.00    -0.293 NA
ATOM     29  C   UNL     1      -3.929  -3.958  -1.861  0.00  0.00    +0.099 C 
BRANCH  24  30
ATOM     30  C   UNL     1      -2.905  -1.887  -2.766  0.00  0.00    +0.311 C 
ATOM     31  O   UNL     1      -2.513  -2.609  -3.652  0.00  0.00    -0.250 OA
BRANCH  30  32
ATOM     32  O   UNL     1      -2.604  -0.579  -2.782  0.00  0.00    -0.465 OA
BRANCH  32  34
ATOM     33  C   UNL     1      -1.579   1.395  -3.726  0.00  0.00    +0.048 C 
ATOM     34  C   UNL     1      -1.817  -0.108  -3.879  0.00  0.00    +0.229 C 
ENDBRANCH  32  34
ENDBRANCH  30  32
ENDBRANCH  24  30
ENDBRANCH  23  28
ENDBRANCH  21  23
ENDBRANCH   1  21
TORSDOF 7
