REMARK  Name = ZINC44881714
REMARK  5 active torsions:
REMARK  status: ('A' for Active; 'I' for Inactive)
REMARK    1  A    between atoms: C_1  and  C_2
REMARK    2  A    between atoms: C_2  and  C_29
REMARK    3  A    between atoms: C_8  and  C_20
REMARK    4  A    between atoms: C_13  and  S_17
REMARK    5  A    between atoms: S_17  and  C_18
REMARK                            x       y       z     vdW  Elec       q    Type
REMARK                         _______ _______ _______ _____ _____    ______ ____
ROOT
ATOM      1  C   UNL     1      -0.019   1.526   0.010  0.00  0.00    +0.011 C 
ATOM      2  C   UNL     1       0.002  -0.004   0.002  0.00  0.00    -0.027 C 
ATOM      3  C   UNL     1       0.715  -0.497  -1.260  0.00  0.00    +0.029 C 
ATOM      4  C   UNL     1       2.126   0.085  -1.310  0.00  0.00    +0.083 C 
ATOM      5  C   UNL     1       2.943  -0.464  -0.132  0.00  0.00    +0.087 C 
ATOM      6  C   UNL     1       3.016  -1.988  -0.251  0.00  0.00    +0.067 C 
ATOM      7  C   UNL     1       3.442  -2.397  -1.632  0.00  0.00    +0.031 A 
ATOM      8  C   UNL     1       3.311  -1.549  -2.717  0.00  0.00    +0.128 A 
ATOM      9  N   UNL     1       3.695  -1.959  -3.934  0.00  0.00    -0.208 NA
ATOM     10  C   UNL     1       4.206  -3.159  -4.119  0.00  0.00    +0.169 A 
ATOM     11  N   UNL     1       4.364  -4.027  -3.081  0.00  0.00    -0.328 N 
ATOM     12  C   UNL     1       3.989  -3.670  -1.836  0.00  0.00    +0.093 A 
ATOM     13  S   UNL     1       4.177  -4.755  -0.525  0.00  0.00    -0.032 S 
ATOM     14  N   UNL     1       2.790  -0.290  -2.559  0.00  0.00    -0.325 N 
ATOM     15  C   UNL     1       2.198  -0.110   1.142  0.00  0.00    +0.140 C 
ATOM     16  O   UNL     1       2.749   0.472   2.045  0.00  0.00    -0.297 OA
ATOM     17  C   UNL     1       0.743  -0.511   1.243  0.00  0.00    +0.081 C 
ATOM     18  C   UNL     1      -1.433  -0.533   0.015  0.00  0.00    +0.011 C 
ATOM     19  H   UNL     1       2.877   0.355  -3.278  0.00  0.00    +0.148 HD
ATOM     20  H   UNL     1       4.747  -4.904  -3.238  0.00  0.00    +0.168 HD
ENDROOT
BRANCH   6  21
ATOM     21  C   UNL     1       4.010  -2.517   0.751  0.00  0.00    -0.039 A 
ATOM     22  C   UNL     1       5.329  -2.106   0.699  0.00  0.00    +0.004 A 
ATOM     23  C   UNL     1       6.241  -2.591   1.617  0.00  0.00    +0.000 A 
ATOM     24  C   UNL     1       5.834  -3.486   2.589  0.00  0.00    +0.000 A 
ATOM     25  C   UNL     1       4.515  -3.896   2.642  0.00  0.00    +0.000 A 
ATOM     26  C   UNL     1       3.602  -3.408   1.726  0.00  0.00    +0.004 A 
ENDBRANCH   6  21
BRANCH  10  27
ATOM     27  S   UNL     1       4.695  -3.650  -5.739  0.00  0.00    -0.091 S 
ATOM     28  C   UNL     1       4.307  -2.208  -6.770  0.00  0.00    +0.093 C 
ENDBRANCH  10  27
TORSDOF 2
