REMARK  Name = ZINC39856366
REMARK  9 active torsions:
REMARK  status: ('A' for Active; 'I' for Inactive)
REMARK    1  A    between atoms: C_1  and  C_2
REMARK    2  A    between atoms: C_6  and  C_7
REMARK    3  A    between atoms: C_7  and  O_9
REMARK    4  A    between atoms: O_9  and  C_10
REMARK    5  A    between atoms: C_13  and  C_16
REMARK    6  A    between atoms: C_19  and  C_22
REMARK    7  A    between atoms: C_25  and  C_33
REMARK    8  A    between atoms: C_25  and  C_34
REMARK    9  A    between atoms: N_28  and  N_29
REMARK                            x       y       z     vdW  Elec       q    Type
REMARK                         _______ _______ _______ _____ _____    ______ ____
ROOT
ATOM      1  C   UNL     1       0.108   1.494   0.003  0.00  0.00    +0.048 C 
ATOM      2  C   UNL     1       0.079  -0.013  -0.002  0.00  0.00    +0.011 A 
ATOM      3  C   UNL     1       0.070  -0.850  -1.123  0.00  0.00    +0.042 A 
ATOM      4  C   UNL     1       0.042  -2.148  -0.670  0.00  0.00    +0.116 A 
ATOM      5  O   UNL     1       0.038  -2.119   0.660  0.00  0.00    -0.452 OA
ATOM      6  C   UNL     1       0.064  -0.837   1.090  0.00  0.00    +0.215 A 
ATOM      7  C   UNL     1       0.019  -3.339  -1.594  0.00  0.00    +0.081 C 
ATOM      8  C   UNL     1      -0.479  -2.902  -2.975  0.00  0.00    -0.023 C 
ATOM      9  C   UNL     1       0.336  -1.712  -3.491  0.00  0.00    +0.064 C 
ATOM     10  C   UNL     1       0.086  -0.528  -2.568  0.00  0.00    +0.071 C 
ATOM     11  N   UNL     1      -0.099   0.676  -3.015  0.00  0.00    -0.183 NA
ATOM     12  C   UNL     1      -0.340  -4.070  -3.954  0.00  0.00    +0.011 C 
ATOM     13  C   UNL     1      -1.952  -2.500  -2.876  0.00  0.00    +0.011 C 
ENDROOT
BRANCH  11  14
ATOM     14  N   UNL     1      -0.073   0.923  -4.393  0.00  0.00    -0.191 N 
ATOM     15  C   UNL     1      -0.265   2.174  -4.857  0.00  0.00    +0.317 C 
ATOM     16  O   UNL     1      -0.242   2.389  -6.054  0.00  0.00    -0.251 OA
ATOM     17  N   UNL     1      -0.482   3.187  -3.995  0.00  0.00    -0.312 N 
ATOM     18  H   UNL     1       0.084   0.194  -5.014  0.00  0.00    +0.179 HD
ATOM     19  H   UNL     1      -0.501   3.015  -3.041  0.00  0.00    +0.147 HD
ATOM     20  H   UNL     1      -0.621   4.087  -4.329  0.00  0.00    +0.147 HD
ENDBRANCH  11  14
BRANCH   6  21
ATOM     21  C   UNL     1       0.071  -0.404   2.490  0.00  0.00    +0.380 C 
ATOM     22  O   UNL     1       0.092   0.782   2.759  0.00  0.00    -0.241 OA
BRANCH  21  23
ATOM     23  O   UNL     1       0.053  -1.320   3.480  0.00  0.00    -0.420 OA
BRANCH  23  24
ATOM     24  C   UNL     1       0.164  -0.878   4.760  0.00  0.00    +0.132 A 
ATOM     25  C   UNL     1      -0.933  -0.306   5.392  0.00  0.00    +0.047 A 
ATOM     26  C   UNL     1      -0.824   0.143   6.691  0.00  0.00    +0.012 A 
ATOM     27  C   UNL     1       0.388   0.023   7.370  0.00  0.00    -0.018 A 
ATOM     28  C   UNL     1       1.487  -0.552   6.732  0.00  0.00    +0.012 A 
ATOM     29  C   UNL     1       1.370  -1.004   5.435  0.00  0.00    +0.047 A 
BRANCH  27  30
ATOM     30  C   UNL     1       0.508   0.505   8.766  0.00  0.00    -0.018 A 
ATOM     31  C   UNL     1      -0.594   1.075   9.404  0.00  0.00    +0.010 A 
ATOM     32  C   UNL     1      -0.484   1.523  10.701  0.00  0.00    +0.019 A 
ATOM     33  C   UNL     1       0.733   1.407  11.379  0.00  0.00    +0.052 A 
ATOM     34  C   UNL     1       1.837   0.836  10.739  0.00  0.00    +0.019 A 
ATOM     35  C   UNL     1       1.722   0.384   9.444  0.00  0.00    +0.010 A 
BRANCH  33  36
ATOM     36  C   UNL     1       0.849   1.874  12.728  0.00  0.00    +0.099 C 
ATOM     37  N   UNL     1       0.942   2.244  13.798  0.00  0.00    -0.191 NA
ENDBRANCH  33  36
ENDBRANCH  27  30
ENDBRANCH  23  24
ENDBRANCH  21  23
ENDBRANCH   6  21
TORSDOF 6
