REMARK  Name = ZINC22363669
REMARK  11 active torsions:
REMARK  status: ('A' for Active; 'I' for Inactive)
REMARK    1  A    between atoms: C_1  and  C_2
REMARK    2  A    between atoms: C_9  and  C_36
REMARK    3  A    between atoms: C_9  and  C_37
REMARK    4  A    between atoms: C_11  and  N_13
REMARK    5  A    between atoms: C_14  and  C_16
REMARK    6  A    between atoms: C_16  and  N_17
REMARK    7  A    between atoms: N_17  and  C_18
REMARK    8  A    between atoms: N_17  and  S_25
REMARK    9  A    between atoms: S_25  and  C_28
REMARK   10  A    between atoms: C_31  and  O_34
REMARK   11  A    between atoms: O_34  and  C_35
REMARK                            x       y       z     vdW  Elec       q    Type
REMARK                         _______ _______ _______ _____ _____    ______ ____
ROOT
ATOM      1  N   UNL     1       2.459   0.866   0.098  0.00  0.00    -0.194 N 
ENDROOT
BRANCH   1   2
ATOM      2  C   UNL     1       2.812   0.128   1.230  0.00  0.00    +0.053 A 
ATOM      3  C   UNL     1       4.094  -0.393   1.349  0.00  0.00    +0.025 A 
ATOM      4  C   UNL     1       4.442  -1.117   2.473  0.00  0.00    +0.003 A 
ATOM      5  C   UNL     1       3.513  -1.333   3.474  0.00  0.00    +0.020 A 
ATOM      6  C   UNL     1       2.233  -0.820   3.356  0.00  0.00    +0.043 A 
ATOM      7  C   UNL     1       1.880  -0.090   2.236  0.00  0.00    +0.044 A 
ATOM      8 CL   UNL     1       1.070  -1.094   4.615  0.00  0.00    -0.083 Cl
ENDBRANCH   1   2
BRANCH   1   9
ATOM      9  S   UNL     1       1.222   0.349  -0.874  0.00  0.00    +0.075 S 
ATOM     10  O   UNL     1       0.461  -0.574  -0.107  0.00  0.00    -0.150 OA
ATOM     11  O   UNL     1       0.648   1.513  -1.454  0.00  0.00    -0.150 OA
BRANCH   9  12
ATOM     12  C   UNL     1       1.944  -0.567  -2.194  0.00  0.00    +0.109 A 
ATOM     13  C   UNL     1       2.252   0.064  -3.385  0.00  0.00    +0.032 A 
ATOM     14  C   UNL     1       2.824  -0.651  -4.420  0.00  0.00    +0.047 A 
ATOM     15  C   UNL     1       3.078  -2.007  -4.267  0.00  0.00    +0.120 A 
ATOM     16  C   UNL     1       2.762  -2.639  -3.073  0.00  0.00    +0.047 A 
ATOM     17  C   UNL     1       2.196  -1.918  -2.039  0.00  0.00    +0.032 A 
BRANCH  15  18
ATOM     18  O   UNL     1       3.635  -2.713  -5.285  0.00  0.00    -0.495 OA
ATOM     19  C   UNL     1       3.934  -1.997  -6.485  0.00  0.00    +0.277 C 
ENDBRANCH  15  18
ENDBRANCH   9  12
ENDBRANCH   1   9
BRANCH   1  20
ATOM     20  C   UNL     1       3.183   2.096  -0.230  0.00  0.00    +0.227 C 
BRANCH  20  22
ATOM     21  N   UNL     1       3.088   4.491   0.381  0.00  0.00    -0.307 N 
ATOM     22  C   UNL     1       2.584   3.250   0.531  0.00  0.00    +0.233 C 
ATOM     23  O   UNL     1       1.644   3.064   1.274  0.00  0.00    -0.274 OA
ATOM     24  H   UNL     1       3.941   4.661  -0.293  0.00  0.00    +0.149 HD
BRANCH  21  35
ATOM     25  C   UNL     1       4.813   5.771   6.418  0.00  0.00    +0.044 C 
ATOM     26  C   UNL     1       4.214   5.740   5.035  0.00  0.00    -0.047 A 
ATOM     27  C   UNL     1       3.851   4.534   4.465  0.00  0.00    +0.004 A 
ATOM     28  C   UNL     1       3.300   4.507   3.199  0.00  0.00    +0.009 A 
ATOM     29  C   UNL     1       3.109   5.684   2.495  0.00  0.00    +0.015 A 
ATOM     30  C   UNL     1       3.474   6.893   3.061  0.00  0.00    +0.126 A 
ATOM     31  C   UNL     1       4.027   6.916   4.338  0.00  0.00    +0.049 A 
ATOM     32  O   UNL     1       3.309   8.070   2.405  0.00  0.00    -0.486 OA
ATOM     33  C   UNL     1       2.423   8.091   1.284  0.00  0.00    +0.107 C 
ATOM     34  C   UNL     1       2.780   6.917   0.364  0.00  0.00    +0.074 C 
ATOM     35  C   UNL     1       2.501   5.614   1.117  0.00  0.00    +0.110 C 
ATOM     36  C   UNL     1       2.584   9.410   0.525  0.00  0.00    +0.055 C 
ATOM     37  C   UNL     1       0.978   7.948   1.766  0.00  0.00    +0.055 C 
ENDBRANCH  21  35
ENDBRANCH  20  22
ENDBRANCH   1  20
TORSDOF 7
