REMARK  Name = ZINC39544618
REMARK  5 active torsions:
REMARK  status: ('A' for Active; 'I' for Inactive)
REMARK    1  A    between atoms: C_1  and  C_2
REMARK    2  A    between atoms: C_2  and  C_21
REMARK    3  A    between atoms: N_5  and  C_9
REMARK    4  A    between atoms: C_9  and  C_10
REMARK    5  A    between atoms: N_12  and  C_13
REMARK                            x       y       z     vdW  Elec       q    Type
REMARK                         _______ _______ _______ _____ _____    ______ ____
ROOT
ATOM      1  C   UNL     1       0.005   1.520   0.043  0.00  0.00    +0.047 C 
ATOM      2  C   UNL     1       0.019  -0.010   0.025  0.00  0.00    +0.135 C 
ATOM      3  C   UNL     1      -1.388  -0.558   0.160  0.00  0.00    +0.251 C 
ATOM      4  O   UNL     1      -2.317  -0.384  -0.598  0.00  0.00    -0.272 OA
ATOM      5  N   UNL     1      -1.390  -1.279   1.298  0.00  0.00    -0.215 N 
ATOM      6  C   UNL     1      -0.192  -1.264   1.895  0.00  0.00    +0.310 C 
ATOM      7  O   UNL     1       0.052  -1.843   2.935  0.00  0.00    -0.252 OA
ATOM      8  N   UNL     1       0.711  -0.536   1.214  0.00  0.00    -0.281 N 
ATOM      9  H   UNL     1       1.638  -0.387   1.459  0.00  0.00    +0.152 HD
ENDROOT
BRANCH   2  10
ATOM     10  C   UNL     1       0.671  -0.518  -1.235  0.00  0.00    -0.016 A 
ATOM     11  C   UNL     1      -0.096  -0.763  -2.359  0.00  0.00    +0.006 A 
ATOM     12  C   UNL     1       0.502  -1.228  -3.515  0.00  0.00    +0.000 A 
ATOM     13  C   UNL     1       1.866  -1.449  -3.548  0.00  0.00    +0.000 A 
ATOM     14  C   UNL     1       2.633  -1.204  -2.424  0.00  0.00    +0.000 A 
ATOM     15  C   UNL     1       2.036  -0.734  -1.269  0.00  0.00    +0.006 A 
ENDBRANCH   2  10
BRANCH   5  16
ATOM     16  C   UNL     1      -2.559  -1.992   1.819  0.00  0.00    +0.214 C 
BRANCH  16  17
ATOM     17  C   UNL     1      -2.581  -3.393   1.264  0.00  0.00    +0.235 C 
ATOM     18  O   UNL     1      -1.706  -3.760   0.509  0.00  0.00    -0.274 OA
ATOM     19  N   UNL     1      -3.573  -4.239   1.608  0.00  0.00    -0.283 N 
ATOM     20  H   UNL     1      -4.237  -3.968   2.261  0.00  0.00    +0.155 HD
BRANCH  19  21
ATOM     21  C   UNL     1      -3.646  -5.508   1.021  0.00  0.00    +0.048 A 
ATOM     22  C   UNL     1      -2.482  -6.194   0.701  0.00  0.00    +0.025 A 
ATOM     23  C   UNL     1      -2.557  -7.446   0.122  0.00  0.00    +0.017 A 
ATOM     24  C   UNL     1      -3.791  -8.016  -0.140  0.00  0.00    +0.019 A 
ATOM     25  C   UNL     1      -4.952  -7.335   0.178  0.00  0.00    +0.032 A 
ATOM     26  C   UNL     1      -4.883  -6.085   0.763  0.00  0.00    +0.040 A 
ATOM     27 BR   UNL     1      -6.471  -5.157   1.204  0.00  0.00    -0.048 Br
ATOM     28 BR   UNL     1      -3.889  -9.730  -0.932  0.00  0.00    -0.050 Br
ENDBRANCH  19  21
ENDBRANCH  16  17
ENDBRANCH   5  16
TORSDOF 4
