REMARK  Name = ZINC36261358
REMARK  8 active torsions:
REMARK  status: ('A' for Active; 'I' for Inactive)
REMARK    1  A    between atoms: C_1  and  C_2
REMARK    2  A    between atoms: C_2  and  C_3
REMARK    3  A    between atoms: C_3  and  C_4
REMARK    4  A    between atoms: C_4  and  C_5
REMARK    5  A    between atoms: C_5  and  N_6
REMARK    6  A    between atoms: C_10  and  O_19
REMARK    7  A    between atoms: C_14  and  C_17
REMARK    8  A    between atoms: C_14  and  C_18
REMARK                            x       y       z     vdW  Elec       q    Type
REMARK                         _______ _______ _______ _____ _____    ______ ____
ROOT
ATOM      1  N   UNL     1       1.475  -3.986  -2.532  0.00  0.00    -0.265 N 
ATOM      2  C   UNL     1       2.535  -4.688  -1.936  0.00  0.00    +0.079 A 
ATOM      3  C   UNL     1       3.403  -4.051  -1.065  0.00  0.00    +0.031 A 
ATOM      4  C   UNL     1       4.442  -4.758  -0.488  0.00  0.00    +0.047 A 
ATOM      5  C   UNL     1       4.616  -6.102  -0.780  0.00  0.00    +0.120 A 
ATOM      6  C   UNL     1       3.748  -6.744  -1.652  0.00  0.00    +0.093 A 
ATOM      7  C   UNL     1       2.707  -6.039  -2.230  0.00  0.00    +0.147 A 
ATOM      8  O   UNL     1       1.845  -6.653  -3.084  0.00  0.00    -0.475 OA
ATOM      9  C   UNL     1       0.493  -6.189  -3.077  0.00  0.00    +0.181 C 
ATOM     10  C   UNL     1       0.471  -4.682  -3.108  0.00  0.00    +0.263 C 
ATOM     11  O   UNL     1      -0.442  -4.097  -3.652  0.00  0.00    -0.271 OA
ATOM     12  C   UNL     1      -0.240  -6.737  -4.303  0.00  0.00    +0.065 C 
ATOM     13  C   UNL     1      -0.206  -6.677  -1.806  0.00  0.00    +0.065 C 
ENDROOT
BRANCH   5  14
ATOM     14  O   UNL     1       5.640  -6.793  -0.212  0.00  0.00    -0.507 OA
ATOM     15  H   UNL     1       5.414  -7.208   0.632  0.00  0.00    +0.292 HD
ENDBRANCH   5  14
BRANCH   1  16
ATOM     16  C   UNL     1       1.455  -2.521  -2.524  0.00  0.00    +0.114 C 
BRANCH  16  17
ATOM     17  C   UNL     1       0.739  -2.027  -1.265  0.00  0.00    +0.019 C 
BRANCH  17  18
ATOM     18  C   UNL     1       0.718  -0.497  -1.257  0.00  0.00    +0.001 C 
BRANCH  18  20
ATOM     19  C   UNL     1      -0.019   1.526   0.010  0.00  0.00    +0.004 C 
ATOM     20  C   UNL     1       0.002  -0.004   0.002  0.00  0.00    -0.003 C 
ENDBRANCH  18  20
ENDBRANCH  17  18
ENDBRANCH  16  17
ENDBRANCH   1  16
TORSDOF 5
