REMARK  Name = ZINC01018024
REMARK  11 active torsions:
REMARK  status: ('A' for Active; 'I' for Inactive)
REMARK    1  A    between atoms: C_1  and  C_2
REMARK    2  A    between atoms: C_3  and  C_26
REMARK    3  A    between atoms: C_4  and  C_16
REMARK    4  A    between atoms: C_10  and  C_14
REMARK    5  A    between atoms: C_10  and  C_15
REMARK    6  A    between atoms: C_18  and  O_24
REMARK    7  A    between atoms: C_21  and  O_22
REMARK    8  A    between atoms: O_22  and  C_23
REMARK    9  A    between atoms: O_24  and  C_25
REMARK   10  A    between atoms: C_26  and  O_28
REMARK   11  A    between atoms: O_28  and  C_29
REMARK                            x       y       z     vdW  Elec       q    Type
REMARK                         _______ _______ _______ _____ _____    ______ ____
ROOT
ATOM      1  C   UNL     1      -2.716  -1.054   5.693  0.00  0.00    +0.061 C 
ATOM      2  C   UNL     1      -3.396   0.286   5.801  0.00  0.00    +0.016 C 
ATOM      3  C   UNL     1      -3.258   1.186   4.812  0.00  0.00    +0.065 C 
ATOM      4  C   UNL     1      -3.919   2.531   4.885  0.00  0.00    +0.096 C 
ATOM      5  C   UNL     1      -5.020   2.537   5.915  0.00  0.00    +0.024 C 
ATOM      6  C   UNL     1      -5.079   1.582   6.868  0.00  0.00    +0.016 C 
ATOM      7  N   UNL     1      -4.145   0.581   6.905  0.00  0.00    -0.321 N 
ATOM      8  C   UNL     1      -6.170   1.589   7.910  0.00  0.00    +0.058 C 
ATOM      9  C   UNL     1      -7.440   2.204   7.319  0.00  0.00    -0.023 C 
ATOM     10  C   UNL     1      -7.116   3.623   6.841  0.00  0.00    +0.086 C 
ATOM     11  C   UNL     1      -5.982   3.561   5.855  0.00  0.00    +0.162 C 
ATOM     12  O   UNL     1      -5.894   4.411   4.992  0.00  0.00    -0.292 OA
ATOM     13  C   UNL     1      -7.918   1.360   6.136  0.00  0.00    +0.011 C 
ATOM     14  C   UNL     1      -8.532   2.254   8.389  0.00  0.00    +0.011 C 
ATOM     15  H   UNL     1      -4.001   0.011   7.835  0.00  0.00    +0.152 HD
ENDROOT
BRANCH   4  16
ATOM     16  C   UNL     1      -2.891   3.569   5.256  0.00  0.00    +0.010 A 
ATOM     17  C   UNL     1      -2.203   3.465   6.449  0.00  0.00    +0.053 A 
ATOM     18  C   UNL     1      -1.257   4.419   6.790  0.00  0.00    +0.121 A 
ATOM     19  C   UNL     1      -1.000   5.479   5.932  0.00  0.00    +0.049 A 
ATOM     20  C   UNL     1      -1.687   5.582   4.738  0.00  0.00    +0.049 A 
ATOM     21  C   UNL     1      -2.631   4.625   4.396  0.00  0.00    +0.124 A 
BRANCH  21  22
ATOM     22  O   UNL     1      -3.304   4.725   3.218  0.00  0.00    -0.495 OA
ATOM     23  C   UNL     1      -2.985   5.838   2.381  0.00  0.00    +0.277 C 
ENDBRANCH  21  22
BRANCH  18  24
ATOM     24  O   UNL     1      -0.580   4.316   7.965  0.00  0.00    -0.495 OA
ATOM     25  C   UNL     1       0.380   5.335   8.252  0.00  0.00    +0.277 C 
ENDBRANCH  18  24
ENDBRANCH   4  16
BRANCH   3  26
ATOM     26  C   UNL     1      -2.479   0.857   3.678  0.00  0.00    +0.338 C 
ATOM     27  O   UNL     1      -3.022   0.598   2.621  0.00  0.00    -0.245 OA
BRANCH  26  28
ATOM     28  O   UNL     1      -1.133   0.831   3.769  0.00  0.00    -0.458 OA
BRANCH  28  29
ATOM     29  C   UNL     1      -0.409   0.490   2.584  0.00  0.00    +0.177 C 
ATOM     30  C   UNL     1      -0.203  -1.025   2.530  0.00  0.00    +0.044 C 
ATOM     31  C   UNL     1       0.572  -1.389   1.262  0.00  0.00    +0.004 C 
ATOM     32  C   UNL     1       1.933  -0.690   1.278  0.00  0.00    +0.000 C 
ATOM     33  C   UNL     1       1.726   0.826   1.331  0.00  0.00    +0.004 C 
ATOM     34  C   UNL     1       0.952   1.190   2.599  0.00  0.00    +0.044 C 
ENDBRANCH  28  29
ENDBRANCH  26  28
ENDBRANCH   3  26
TORSDOF 6
