REMARK  Name = ZINC39737025
REMARK  8 active torsions:
REMARK  status: ('A' for Active; 'I' for Inactive)
REMARK    1  A    between atoms: C_1  and  C_2
REMARK    2  A    between atoms: C_2  and  C_10
REMARK    3  A    between atoms: C_3  and  C_4
REMARK    4  A    between atoms: C_11  and  C_12
REMARK    5  A    between atoms: C_11  and  N_26
REMARK    6  A    between atoms: N_14  and  N_15
REMARK    7  A    between atoms: C_16  and  C_17
REMARK    8  A    between atoms: C_27  and  C_29
REMARK                            x       y       z     vdW  Elec       q    Type
REMARK                         _______ _______ _______ _____ _____    ______ ____
ROOT
ATOM      1  C   UNL     1      -0.352  -0.872  -0.799  0.00  0.00    +0.032 C 
ATOM      2  C   UNL     1      -0.598  -0.099  -1.895  0.00  0.00    +0.098 C 
ENDROOT
BRANCH   2   3
ATOM      3  C   UNL     1      -1.175  -0.700  -3.100  0.00  0.00    +0.277 C 
ATOM      4  O   UNL     1      -1.371  -1.900  -3.148  0.00  0.00    -0.267 OA
ATOM      5  N   UNL     1      -1.490   0.077  -4.155  0.00  0.00    -0.202 N 
ATOM      6  H   UNL     1      -1.275   1.023  -4.143  0.00  0.00    +0.178 HD
BRANCH   5   7
ATOM      7  N   UNL     1      -2.128  -0.481  -5.270  0.00  0.00    -0.188 NA
ATOM      8  C   UNL     1      -2.434   0.274  -6.297  0.00  0.00    +0.136 C 
BRANCH   8   9
ATOM      9  C   UNL     1      -3.072  -0.285  -7.412  0.00  0.00    +0.000 C 
ATOM     10  C   UNL     1      -3.458   0.373  -8.579  0.00  0.00    +0.004 A 
ATOM     11  C   UNL     1      -3.347   1.716  -8.999  0.00  0.00    +0.010 A 
ATOM     12  C   UNL     1      -3.822   2.083 -10.216  0.00  0.00    +0.001 A 
ATOM     13  C   UNL     1      -4.424   1.159 -11.075  0.00  0.00    +0.002 A 
ATOM     14  C   UNL     1      -4.565  -0.145 -10.738  0.00  0.00    +0.026 A 
ATOM     15  C   UNL     1      -4.092  -0.605  -9.480  0.00  0.00    +0.043 A 
ATOM     16  N   UNL     1      -4.108  -1.799  -8.927  0.00  0.00    -0.380 N 
ATOM     17  C   UNL     1      -3.479  -1.729  -7.604  0.00  0.00    +0.150 C 
ATOM     18  H   UNL     1      -4.475  -2.601  -9.332  0.00  0.00    +0.160 HD
ENDBRANCH   8   9
ENDBRANCH   5   7
ENDBRANCH   2   3
BRANCH   2  19
ATOM     19  N   UNL     1      -0.300   1.265  -1.868  0.00  0.00    -0.277 N 
ATOM     20  C   UNL     1       0.547   1.788  -2.777  0.00  0.00    +0.248 C 
ATOM     21  O   UNL     1       0.974   1.093  -3.679  0.00  0.00    -0.270 OA
ATOM     22  H   UNL     1      -0.703   1.837  -1.196  0.00  0.00    +0.155 HD
BRANCH  20  23
ATOM     23  C   UNL     1       0.957   3.204  -2.676  0.00  0.00    +0.037 A 
ATOM     24  C   UNL     1       0.473   4.002  -1.638  0.00  0.00    +0.013 A 
ATOM     25  C   UNL     1       0.860   5.323  -1.550  0.00  0.00    +0.001 A 
ATOM     26  C   UNL     1       1.726   5.858  -2.488  0.00  0.00    +0.000 A 
ATOM     27  C   UNL     1       2.209   5.072  -3.519  0.00  0.00    +0.001 A 
ATOM     28  C   UNL     1       1.835   3.748  -3.616  0.00  0.00    +0.013 A 
ENDBRANCH  20  23
ENDBRANCH   2  19
BRANCH   1  30
ATOM     29  C   UNL     1      -0.554  -0.506   1.693  0.00  0.00    +0.044 C 
ATOM     30  C   UNL     1       0.151  -0.284   0.379  0.00  0.00    -0.048 C 
ATOM     31  C   UNL     1       1.267   0.480   0.331  0.00  0.00    +0.011 C 
BRANCH  31  32
ATOM     32  C   UNL     1       1.690   1.240   1.517  0.00  0.00    -0.025 A 
ATOM     33  C   UNL     1       3.050   1.402   1.801  0.00  0.00    +0.008 A 
ATOM     34  C   UNL     1       3.438   2.116   2.914  0.00  0.00    +0.001 A 
ATOM     35  C   UNL     1       2.486   2.672   3.751  0.00  0.00    +0.000 A 
ATOM     36  C   UNL     1       1.138   2.516   3.478  0.00  0.00    +0.001 A 
ATOM     37  C   UNL     1       0.733   1.810   2.365  0.00  0.00    +0.008 A 
ENDBRANCH  31  32
ENDBRANCH   1  30
TORSDOF 7
