REMARK  Name = ZINC01590565
REMARK  2 active torsions:
REMARK  status: ('A' for Active; 'I' for Inactive)
REMARK    1  A    between atoms: C_1  and  C_2
REMARK    2  A    between atoms: C_6  and  C_21
REMARK                            x       y       z     vdW  Elec       q    Type
REMARK                         _______ _______ _______ _____ _____    ______ ____
ROOT
ATOM      1  C   UNL     1      -0.021   1.497  -0.056  0.00  0.00    +0.062 C 
ATOM      2  C   UNL     1      -0.003  -0.009  -0.028  0.00  0.00    +0.021 C 
ATOM      3  C   UNL     1      -1.094  -0.810  -0.036  0.00  0.00    +0.045 C 
ATOM      4  C   UNL     1      -0.661  -2.147  -0.004  0.00  0.00    +0.071 C 
ATOM      5  C   UNL     1      -1.483  -3.292   0.000  0.00  0.00    +0.084 C 
ATOM      6  C   UNL     1      -2.898  -3.320   0.108  0.00  0.00    +0.071 C 
ATOM      7  N   UNL     1      -3.284  -4.562   0.073  0.00  0.00    -0.175 NA
ATOM      8  N   UNL     1      -2.172  -5.399  -0.057  0.00  0.00    -0.132 N 
ATOM      9  C   UNL     1      -1.061  -4.636  -0.110  0.00  0.00    +0.276 C 
ATOM     10  O   UNL     1       0.089  -5.031  -0.226  0.00  0.00    -0.268 OA
ATOM     11  C   UNL     1      -2.205  -6.784  -0.128  0.00  0.00    +0.189 A 
ATOM     12  N   UNL     1      -1.206  -7.627  -0.243  0.00  0.00    -0.223 NA
ATOM     13  C   UNL     1      -1.387  -8.965  -0.300  0.00  0.00    +0.081 A 
ATOM     14  C   UNL     1      -0.405  -9.974  -0.424  0.00  0.00    +0.032 A 
ATOM     15  C   UNL     1      -0.760 -11.296  -0.468  0.00  0.00    +0.040 A 
ATOM     16  C   UNL     1      -2.089 -11.694  -0.394  0.00  0.00    +0.125 A 
ATOM     17  C   UNL     1      -3.077 -10.732  -0.273  0.00  0.00    +0.055 A 
ATOM     18  C   UNL     1      -2.729  -9.405  -0.228  0.00  0.00    +0.044 A 
ATOM     19  S   UNL     1      -3.620  -7.875  -0.076  0.00  0.00    -0.050 S 
ATOM     20  F   UNL     1      -2.414 -13.004  -0.441  0.00  0.00    -0.205 F 
ATOM     21  C   UNL     1      -3.797  -2.118   0.241  0.00  0.00    +0.068 C 
ATOM     22  N   UNL     1       0.715  -2.131   0.025  0.00  0.00    -0.198 N 
ATOM     23  N   UNL     1       1.115  -0.788   0.004  0.00  0.00    -0.262 N 
ATOM     24  C   UNL     1       1.547  -3.235   0.062  0.00  0.00    +0.183 A 
ATOM     25  N   UNL     1       2.141  -3.853  -0.933  0.00  0.00    -0.223 NA
ATOM     26  C   UNL     1       2.935  -4.930  -0.748  0.00  0.00    +0.081 A 
ATOM     27  C   UNL     1       3.627  -5.682  -1.725  0.00  0.00    +0.032 A 
ATOM     28  C   UNL     1       4.397  -6.757  -1.367  0.00  0.00    +0.040 A 
ATOM     29  C   UNL     1       4.526  -7.147  -0.039  0.00  0.00    +0.125 A 
ATOM     30  C   UNL     1       3.862  -6.433   0.944  0.00  0.00    +0.055 A 
ATOM     31  C   UNL     1       3.089  -5.355   0.592  0.00  0.00    +0.044 A 
ATOM     32  S   UNL     1       2.095  -4.178   1.478  0.00  0.00    -0.050 S 
ATOM     33  F   UNL     1       5.291  -8.211   0.289  0.00  0.00    -0.205 F 
ATOM     34  H   UNL     1       2.031  -0.468   0.013  0.00  0.00    +0.170 HD
ENDROOT
TORSDOF 0
