REMARK  Name = ZINC08625900
REMARK  10 active torsions:
REMARK  status: ('A' for Active; 'I' for Inactive)
REMARK    1  A    between atoms: C_4  and  O_7
REMARK    2  A    between atoms: O_7  and  C_8
REMARK    3  A    between atoms: C_8  and  C_9
REMARK    4  A    between atoms: N_11  and  C_12
REMARK    5  A    between atoms: C_12  and  C_13
REMARK    6  A    between atoms: C_13  and  O_15
REMARK    7  A    between atoms: O_15  and  C_16
REMARK    8  A    between atoms: C_16  and  C_17
REMARK    9  A    between atoms: C_20  and  C_32
REMARK   10  A    between atoms: C_23  and  C_25
REMARK                            x       y       z     vdW  Elec       q    Type
REMARK                         _______ _______ _______ _____ _____    ______ ____
ROOT
ATOM      1  C   UNL     1      -0.014   1.209   0.009  0.00  0.00    +0.273 C 
ATOM      2  O   UNL     1       0.002  -0.004   0.002  0.00  0.00    -0.270 OA
ATOM      3  N   UNL     1       1.143   1.899   0.001  0.00  0.00    -0.179 N 
ATOM      4  C   UNL     1       2.491   1.308  -0.015  0.00  0.00    +0.173 C 
ATOM      5  C   UNL     1       3.424   2.536  -0.018  0.00  0.00    +0.090 C 
ATOM      6  C   UNL     1       2.475   3.713  -0.003  0.00  0.00    +0.069 C 
ATOM      7  N   UNL     1       1.260   3.287   0.002  0.00  0.00    -0.181 NA
ENDROOT
BRANCH   6   8
ATOM      8  C   UNL     1       2.880   5.132  -0.000  0.00  0.00    -0.002 A 
ATOM      9  C   UNL     1       4.234   5.475  -0.006  0.00  0.00    +0.011 A 
ATOM     10  C   UNL     1       4.605   6.803  -0.010  0.00  0.00    +0.020 A 
ATOM     11  C   UNL     1       3.639   7.795   0.004  0.00  0.00    +0.041 A 
ATOM     12  C   UNL     1       2.295   7.462   0.017  0.00  0.00    +0.020 A 
ATOM     13  C   UNL     1       1.910   6.137   0.015  0.00  0.00    +0.011 A 
ATOM     14 CL   UNL     1       4.115   9.465   0.008  0.00  0.00    -0.084 Cl
ENDBRANCH   6   8
BRANCH   4  15
ATOM     15  C   UNL     1       2.694   0.482  -1.258  0.00  0.00    +0.128 A 
ATOM     16  C   UNL     1       3.355  -0.688  -1.327  0.00  0.00    +0.046 A 
ATOM     17  C   UNL     1       3.301  -1.111  -2.675  0.00  0.00    +0.041 A 
ATOM     18  C   UNL     1       2.609  -0.174  -3.350  0.00  0.00    +0.195 A 
ATOM     19  O   UNL     1       2.239   0.785  -2.485  0.00  0.00    -0.466 OA
ENDBRANCH   4  15
BRANCH   1  20
ATOM     20  C   UNL     1      -1.330   1.945   0.019  0.00  0.00    +0.329 C 
BRANCH  20  21
ATOM     21  O   UNL     1      -2.420   0.986   0.019  0.00  0.00    -0.454 OA
BRANCH  21  22
ATOM     22  C   UNL     1      -3.667   1.482   0.028  0.00  0.00    +0.325 C 
ATOM     23  O   UNL     1      -3.842   2.678   0.035  0.00  0.00    -0.249 OA
BRANCH  22  24
ATOM     24  C   UNL     1      -4.850   0.548   0.028  0.00  0.00    +0.225 C 
BRANCH  24  27
ATOM     25  C   UNL     1      -7.282   0.701   0.040  0.00  0.00    +0.251 C 
ATOM     26  O   UNL     1      -7.329  -0.511   0.034  0.00  0.00    -0.272 OA
ATOM     27  N   UNL     1      -6.089   1.329   0.038  0.00  0.00    -0.302 N 
ATOM     28  H   UNL     1      -6.052   2.299   0.043  0.00  0.00    +0.149 HD
BRANCH  25  29
ATOM     29  C   UNL     1      -8.557   1.505   0.051  0.00  0.00    +0.324 C 
BRANCH  29  30
ATOM     30  O   UNL     1      -9.678   0.619   0.051  0.00  0.00    -0.483 OA
BRANCH  30  34
ATOM     31  C   UNL     1     -13.426   2.342   0.078  0.00  0.00    +0.000 A 
ATOM     32  C   UNL     1     -13.300   0.965   0.070  0.00  0.00    +0.004 A 
ATOM     33  C   UNL     1     -12.046   0.386   0.061  0.00  0.00    +0.045 A 
ATOM     34  C   UNL     1     -10.913   1.187   0.060  0.00  0.00    +0.121 A 
ATOM     35  C   UNL     1     -11.042   2.568   0.074  0.00  0.00    +0.045 A 
ATOM     36  C   UNL     1     -12.299   3.142   0.078  0.00  0.00    +0.004 A 
ENDBRANCH  30  34
ENDBRANCH  29  30
ENDBRANCH  25  29
ENDBRANCH  24  27
ENDBRANCH  22  24
ENDBRANCH  21  22
ENDBRANCH  20  21
ENDBRANCH   1  20
TORSDOF 10
