REMARK  Name = ZINC13064975
REMARK  13 active torsions:
REMARK  status: ('A' for Active; 'I' for Inactive)
REMARK    1  A    between atoms: C_1  and  C_2
REMARK    2  A    between atoms: C_2  and  C_3
REMARK    3  A    between atoms: C_3  and  C_5
REMARK    4  A    between atoms: C_3  and  N_72
REMARK    5  A    between atoms: N_9  and  C_10
REMARK    6  A    between atoms: C_10  and  C_11
REMARK    7  A    between atoms: C_11  and  C_12
REMARK    8  A    between atoms: C_18  and  C_19
REMARK    9  A    between atoms: C_18  and  N_72
REMARK   10  A    between atoms: C_25  and  C_26
REMARK   11  A    between atoms: C_25  and  N_72
REMARK   12  A    between atoms: C_29  and  C_39
REMARK   13  A    between atoms: C_31  and  C_38
REMARK                            x       y       z     vdW  Elec       q    Type
REMARK                         _______ _______ _______ _____ _____    ______ ____
ROOT
ATOM      1  N   UNL     1       4.068  -0.764  -1.335  0.00  0.00    +0.392 N 
ATOM      2  H   UNL     1       4.187   0.054  -1.944  0.00  0.00    -0.080 HD
ENDROOT
BRANCH   1   3
ATOM      3  C   UNL     1       5.304  -1.573  -1.371  0.00  0.00    +0.003 C 
BRANCH   3   4
ATOM      4  C   UNL     1       6.400  -0.832  -0.649  0.00  0.00    +0.138 A 
ATOM      5  N   UNL     1       6.687   0.442  -0.758  0.00  0.00    -0.115 NA
ATOM      6  N   UNL     1       7.684   0.693   0.019  0.00  0.00    -0.023 NA
ATOM      7  N   UNL     1       8.045  -0.389   0.614  0.00  0.00    -0.044 NA
ATOM      8  N   UNL     1       7.278  -1.352   0.229  0.00  0.00    -0.231 N 
BRANCH   8   9
ATOM      9  C   UNL     1       7.349  -2.749   0.666  0.00  0.00    +0.152 C 
BRANCH   9  10
ATOM     10  C   UNL     1       8.282  -3.527  -0.264  0.00  0.00    +0.058 C 
BRANCH  10  11
ATOM     11  C   UNL     1       8.355  -4.964   0.185  0.00  0.00    -0.046 A 
ATOM     12  C   UNL     1       9.320  -5.356   1.094  0.00  0.00    +0.004 A 
ATOM     13  C   UNL     1       9.383  -6.673   1.510  0.00  0.00    +0.000 A 
ATOM     14  C   UNL     1       8.488  -7.599   1.009  0.00  0.00    +0.000 A 
ATOM     15  C   UNL     1       7.527  -7.209   0.096  0.00  0.00    +0.000 A 
ATOM     16  C   UNL     1       7.460  -5.891  -0.316  0.00  0.00    +0.004 A 
ENDBRANCH  10  11
ENDBRANCH   9  10
ENDBRANCH   8   9
ENDBRANCH   3   4
BRANCH   3  18
ATOM     17  C   UNL     1       5.997  -0.436  -3.485  0.00  0.00    +0.002 C 
ATOM     18  C   UNL     1       5.710  -1.788  -2.830  0.00  0.00    -0.011 C 
ENDBRANCH   3  18
ENDBRANCH   1   3
BRANCH   1  19
ATOM     19  C   UNL     1       3.806  -0.302   0.044  0.00  0.00    -0.042 C 
BRANCH  19  20
ATOM     20  C   UNL     1       2.841   0.854  -0.009  0.00  0.00    -0.064 A 
ATOM     21  C   UNL     1       1.480   0.616  -0.052  0.00  0.00    +0.002 A 
ATOM     22  C   UNL     1       0.594   1.676  -0.101  0.00  0.00    +0.000 A 
ATOM     23  C   UNL     1       1.069   2.974  -0.107  0.00  0.00    +0.000 A 
ATOM     24  C   UNL     1       2.430   3.212  -0.063  0.00  0.00    +0.000 A 
ATOM     25  C   UNL     1       3.316   2.152  -0.014  0.00  0.00    +0.002 A 
ENDBRANCH  19  20
ENDBRANCH   1  19
BRANCH   1  26
ATOM     26  C   UNL     1       2.926  -1.564  -1.825  0.00  0.00    -0.036 C 
BRANCH  26  27
ATOM     27  C   UNL     1       2.747  -2.800  -0.982  0.00  0.00    +0.001 A 
ATOM     28  C   UNL     1       1.884  -2.786   0.064  0.00  0.00    +0.017 A 
ATOM     29  C   UNL     1       1.732  -4.003   0.863  0.00  0.00    +0.002 A 
ATOM     30  C   UNL     1       0.857  -4.049   1.953  0.00  0.00    -0.041 A 
ATOM     31  C   UNL     1       0.739  -5.200   2.678  0.00  0.00    +0.007 A 
ATOM     32  C   UNL     1       1.479  -6.326   2.343  0.00  0.00    -0.048 A 
ATOM     33  C   UNL     1       2.348  -6.303   1.274  0.00  0.00    +0.029 A 
ATOM     34  C   UNL     1       2.485  -5.142   0.520  0.00  0.00    +0.050 A 
ATOM     35  N   UNL     1       3.345  -5.092  -0.556  0.00  0.00    -0.322 N 
ATOM     36  H   UNL     1       3.863  -5.878  -0.791  0.00  0.00    +0.169 HD
ATOM     37  C   UNL     1       3.474  -3.971  -1.288  0.00  0.00    +0.251 A 
ATOM     38  O   UNL     1       4.240  -3.965  -2.235  0.00  0.00    -0.268 OA
ATOM     39  C   UNL     1       1.332  -7.585   3.158  0.00  0.00    +0.044 C 
ATOM     40  C   UNL     1       0.049  -2.833   2.326  0.00  0.00    +0.044 C 
ENDBRANCH  26  27
ENDBRANCH   1  26
TORSDOF 10
