REMARK  Name = ZINC62775608
REMARK  3 active torsions:
REMARK  status: ('A' for Active; 'I' for Inactive)
REMARK    1  A    between atoms: C_2  and  C_10
REMARK    2  A    between atoms: CA_6  and  C_7
REMARK    3  A    between atoms: C_10  and  C_12
REMARK                            x       y       z     vdW  Elec       q    Type
REMARK                         _______ _______ _______ _____ _____    ______ ____
ROOT
ATOM      1  C   UNL     1      -0.172   1.538   0.161  0.00  0.00    +0.046 A 
ATOM      2  C   UNL     1       1.200   1.863   0.235  0.00  0.00    +0.040 A 
ATOM      3  C   UNL     1       1.876   0.702   0.569  0.00  0.00    +0.095 A 
ATOM      4  N   UNL     1       0.981  -0.288   0.695  0.00  0.00    -0.355 N 
ATOM      5  H   UNL     1       1.188  -1.208   0.925  0.00  0.00    +0.166 HD
ATOM      6  CA  UNL     1      -0.283   0.207   0.448  0.00  0.00    +0.129 A 
ENDROOT
BRANCH   6   7
ATOM      7  C   UNL     1      -1.528  -0.560   0.487  0.00  0.00    +0.402 C 
ATOM      8  O   UNL     1      -1.503  -1.754   0.758  0.00  0.00    -0.239 OA
ATOM      9  OXT UNL     1      -2.595  -0.009   0.249  0.00  0.00    -0.239 OA
ENDBRANCH   6   7
BRANCH   2  10
ATOM     10  C   UNL     1       1.800   3.189   0.001  0.00  0.00    +0.198 C 
ATOM     11  O   UNL     1       2.923   3.428   0.402  0.00  0.00    -0.286 OA
BRANCH  10  12
ATOM     12  C   UNL     1       1.038   4.226  -0.719  0.00  0.00    +0.059 A 
ATOM     13  C   UNL     1       1.408   5.546  -0.890  0.00  0.00    +0.116 A 
ATOM     14  N   UNL     1       0.440   6.146  -1.601  0.00  0.00    -0.284 N 
ATOM     15  H   UNL     1       0.431   7.077  -1.873  0.00  0.00    +0.188 HD
ATOM     16  N   UNL     1      -0.553   5.201  -1.884  0.00  0.00    -0.182 NA
ATOM     17  C   UNL     1      -0.205   4.054  -1.369  0.00  0.00    +0.145 A 
ENDBRANCH  10  12
ENDBRANCH   2  10
TORSDOF 3
