REMARK  Name = ZINC36610279
REMARK  17 active torsions:
REMARK  status: ('A' for Active; 'I' for Inactive)
REMARK    1  A    between atoms: C_1  and  C_2
REMARK    2  A    between atoms: C_5  and  C_9
REMARK    3  A    between atoms: C_6  and  C_8
REMARK    4  A    between atoms: C_9  and  C_11
REMARK    5  A    between atoms: C_9  and  N_22
REMARK    6  A    between atoms: N_13  and  C_14
REMARK    7  A    between atoms: C_14  and  C_15
REMARK    8  A    between atoms: C_14  and  C_16
REMARK    9  A    between atoms: C_14  and  C_17
REMARK   10  A    between atoms: C_17  and  C_18
REMARK   11  A    between atoms: C_18  and  C_19
REMARK   12  A    between atoms: C_18  and  C_20
REMARK   13  A    between atoms: C_18  and  C_21
REMARK   14  A    between atoms: N_22  and  C_23
REMARK   15  A    between atoms: C_29  and  C_31
REMARK   16  A    between atoms: C_35  and  O_38
REMARK   17  A    between atoms: C_36  and  O_37
REMARK                            x       y       z     vdW  Elec       q    Type
REMARK                         _______ _______ _______ _____ _____    ______ ____
ROOT
ATOM      1  C   UNL     1       1.651  -5.702   0.029  0.00  0.00    +0.198 C 
ENDROOT
BRANCH   1   6
ATOM      2  C   UNL     1       6.591  -3.118  -1.490  0.00  0.00    +0.044 C 
ATOM      3  C   UNL     1       5.303  -3.792  -1.094  0.00  0.00    -0.050 A 
ATOM      4  C   UNL     1       5.330  -4.922  -0.298  0.00  0.00    +0.004 A 
ATOM      5  C   UNL     1       4.148  -5.540   0.066  0.00  0.00    +0.006 A 
ATOM      6  C   UNL     1       2.939  -5.028  -0.367  0.00  0.00    -0.015 A 
ATOM      7  C   UNL     1       2.912  -3.898  -1.162  0.00  0.00    -0.045 A 
ATOM      8  C   UNL     1       4.093  -3.277  -1.522  0.00  0.00    +0.007 A 
ATOM      9  C   UNL     1       1.593  -3.341  -1.634  0.00  0.00    +0.044 C 
ENDBRANCH   1   6
BRANCH   1  10
ATOM     10  C   UNL     1       1.881  -6.544   1.258  0.00  0.00    +0.239 C 
ATOM     11  O   UNL     1       1.967  -7.750   1.159  0.00  0.00    -0.273 OA
ATOM     12  N   UNL     1       1.991  -5.957   2.466  0.00  0.00    -0.308 N 
ATOM     13  H   UNL     1       1.855  -5.000   2.554  0.00  0.00    +0.149 HD
BRANCH  12  14
ATOM     14  C   UNL     1       2.316  -6.763   3.645  0.00  0.00    +0.030 C 
ATOM     15  C   UNL     1       1.199  -7.779   3.892  0.00  0.00    +0.031 C 
ATOM     16  C   UNL     1       3.635  -7.501   3.411  0.00  0.00    +0.031 C 
BRANCH  14  17
ATOM     17  C   UNL     1       2.452  -5.849   4.865  0.00  0.00    +0.031 C 
BRANCH  17  18
ATOM     18  C   UNL     1       3.102  -4.530   4.444  0.00  0.00    -0.036 C 
ATOM     19  C   UNL     1       2.027  -3.576   3.921  0.00  0.00    +0.010 C 
ATOM     20  C   UNL     1       3.802  -3.898   5.649  0.00  0.00    +0.010 C 
ATOM     21  C   UNL     1       4.129  -4.796   3.341  0.00  0.00    +0.010 C 
ENDBRANCH  17  18
ENDBRANCH  14  17
ENDBRANCH  12  14
ENDBRANCH   1  10
BRANCH   1  22
ATOM     22  N   UNL     1       1.190  -6.556  -1.069  0.00  0.00    -0.251 N 
ATOM     23  C   UNL     1      -0.052  -6.400  -1.568  0.00  0.00    +0.255 C 
ATOM     24  O   UNL     1      -0.824  -5.618  -1.046  0.00  0.00    -0.269 OA
BRANCH  22  25
ATOM     25  C   UNL     1       2.038  -7.534  -1.598  0.00  0.00    +0.038 A 
ATOM     26  C   UNL     1       3.186  -7.161  -2.286  0.00  0.00    +0.023 A 
ATOM     27  C   UNL     1       4.021  -8.129  -2.808  0.00  0.00    +0.002 A 
ATOM     28  C   UNL     1       3.717  -9.468  -2.645  0.00  0.00    +0.000 A 
ATOM     29  C   UNL     1       2.575  -9.842  -1.961  0.00  0.00    +0.002 A 
ATOM     30  C   UNL     1       1.738  -8.880  -1.432  0.00  0.00    +0.023 A 
ENDBRANCH  22  25
BRANCH  23  31
ATOM     31  C   UNL     1      -0.476  -7.178  -2.748  0.00  0.00    +0.082 A 
ATOM     32  C   UNL     1       0.467  -7.588  -3.695  0.00  0.00    +0.017 A 
ATOM     33  C   UNL     1       0.068  -8.313  -4.795  0.00  0.00    +0.005 A 
ATOM     34  C   UNL     1      -1.267  -8.640  -4.971  0.00  0.00    +0.049 A 
ATOM     35  C   UNL     1      -2.213  -8.242  -4.042  0.00  0.00    +0.159 A 
ATOM     36  C   UNL     1      -1.824  -7.513  -2.922  0.00  0.00    +0.171 A 
BRANCH  36  37
ATOM     37  O   UNL     1      -2.748  -7.125  -2.006  0.00  0.00    -0.503 OA
ATOM     38  H   UNL     1      -3.144  -6.262  -2.189  0.00  0.00    +0.292 HD
ENDBRANCH  36  37
BRANCH  35  39
ATOM     39  O   UNL     1      -3.521  -8.566  -4.222  0.00  0.00    -0.503 OA
ATOM     40  H   UNL     1      -3.775  -9.411  -3.825  0.00  0.00    +0.292 HD
ENDBRANCH  35  39
ENDBRANCH  23  31
ENDBRANCH   1  22
TORSDOF 10
