REMARK  Name = ZINC33149412
REMARK  7 active torsions:
REMARK  status: ('A' for Active; 'I' for Inactive)
REMARK    1  A    between atoms: C_1  and  C_2
REMARK    2  A    between atoms: C_4  and  C_20
REMARK    3  A    between atoms: C_5  and  C_19
REMARK    4  A    between atoms: N_6  and  C_7
REMARK    5  A    between atoms: C_9  and  C_16
REMARK    6  A    between atoms: C_11  and  C_13
REMARK    7  A    between atoms: N_27  and  C_30
REMARK                            x       y       z     vdW  Elec       q    Type
REMARK                         _______ _______ _______ _____ _____    ______ ____
ROOT
ATOM      1  C   UNL     1       1.122  -9.628   0.341  0.00  0.00    +0.064 C 
ATOM      2  C   UNL     1       1.155  -8.454   1.285  0.00  0.00    +0.022 A 
ATOM      3  C   UNL     1       1.234  -7.165   0.919  0.00  0.00    +0.031 A 
ATOM      4  C   UNL     1       1.239  -6.379   2.163  0.00  0.00    -0.003 A 
ATOM      5  C   UNL     1       1.165  -7.304   3.195  0.00  0.00    +0.028 A 
ATOM      6  N   UNL     1       1.111  -8.534   2.650  0.00  0.00    -0.317 N 
ATOM      7  C   UNL     1       1.145  -6.986   4.668  0.00  0.00    +0.064 C 
ENDROOT
BRANCH   4   8
ATOM      8  C   UNL     1       1.310  -4.971   2.283  0.00  0.00    +0.028 C 
ATOM      9  C   UNL     1       2.222  -4.257   1.523  0.00  0.00    +0.102 C 
ATOM     10  C   UNL     1       3.260  -4.937   0.726  0.00  0.00    +0.274 C 
ATOM     11  O   UNL     1       3.345  -6.150   0.715  0.00  0.00    -0.268 OA
ATOM     12  N   UNL     1       4.114  -4.176   0.010  0.00  0.00    -0.153 NA
ATOM     13  C   UNL     1       4.028  -2.838   0.008  0.00  0.00    +0.171 C 
ATOM     14  S   UNL     1       5.150  -1.956  -0.936  0.00  0.00    -0.016 S 
ATOM     15  N   UNL     1       3.115  -2.155   0.712  0.00  0.00    -0.213 N 
ATOM     16  C   UNL     1       2.196  -2.783   1.474  0.00  0.00    +0.262 C 
ATOM     17  O   UNL     1       1.369  -2.151   2.104  0.00  0.00    -0.269 OA
BRANCH  15  18
ATOM     18  C   UNL     1       3.110  -0.754   0.649  0.00  0.00    +0.078 A 
ATOM     19  C   UNL     1       3.856  -0.015   1.556  0.00  0.00    +0.027 A 
ATOM     20  C   UNL     1       3.849   1.365   1.493  0.00  0.00    +0.002 A 
ATOM     21  C   UNL     1       3.100   2.011   0.526  0.00  0.00    +0.003 A 
ATOM     22  C   UNL     1       2.356   1.279  -0.380  0.00  0.00    +0.040 A 
ATOM     23  C   UNL     1       2.358  -0.103  -0.322  0.00  0.00    +0.145 A 
ATOM     24  F   UNL     1       1.631  -0.818  -1.208  0.00  0.00    -0.204 F 
ENDBRANCH  15  18
ENDBRANCH   4   8
BRANCH   6  25
ATOM     25  C   UNL     1       1.026  -9.728   3.379  0.00  0.00    +0.048 A 
ATOM     26  C   UNL     1      -0.101  -9.993   4.144  0.00  0.00    +0.041 A 
ATOM     27  C   UNL     1      -0.191 -11.184   4.868  0.00  0.00    +0.066 A 
ATOM     28  C   UNL     1       0.857 -12.102   4.829  0.00  0.00    +0.030 A 
ATOM     29  C   UNL     1       1.989 -11.830   4.063  0.00  0.00    +0.066 A 
ATOM     30  C   UNL     1       2.070 -10.640   3.338  0.00  0.00    +0.041 A 
BRANCH  29  31
ATOM     31  C   UNL     1       3.102 -12.800   4.019  0.00  0.00    +0.387 C 
ATOM     32  O   UNL     1       4.089 -12.563   3.351  0.00  0.00    -0.241 OA
ATOM     33  O   UNL     1       3.023 -13.949   4.719  0.00  0.00    -0.241 OA
ENDBRANCH  29  31
BRANCH  27  34
ATOM     34  C   UNL     1      -1.393 -11.467   5.678  0.00  0.00    +0.387 C 
ATOM     35  O   UNL     1      -2.306 -10.666   5.712  0.00  0.00    -0.241 OA
ATOM     36  O   UNL     1      -1.478 -12.614   6.380  0.00  0.00    -0.241 OA
ENDBRANCH  27  34
ENDBRANCH   6  25
TORSDOF 5
