REMARK  Name = ZINC09460873
REMARK  3 active torsions:
REMARK  status: ('A' for Active; 'I' for Inactive)
REMARK    1  A    between atoms: C_4  and  N_7
REMARK    2  A    between atoms: C_8  and  C_10
REMARK    3  A    between atoms: N_28  and  C_31
REMARK                            x       y       z     vdW  Elec       q    Type
REMARK                         _______ _______ _______ _____ _____    ______ ____
ROOT
ATOM      1  C   UNL     1       3.921   3.893  -1.538  0.00  0.00    +0.156 C 
ATOM      2  C   UNL     1       3.437   5.348  -1.597  0.00  0.00    +0.118 C 
ATOM      3  C   UNL     1       2.121   5.350  -0.760  0.00  0.00    +0.113 C 
ATOM      4  C   UNL     1       2.309   4.180   0.213  0.00  0.00    +0.100 C 
ATOM      5  C   UNL     1       3.511   1.980   0.111  0.00  0.00    +0.054 C 
ATOM      6  C   UNL     1       2.429   1.341   0.597  0.00  0.00    +0.022 C 
ATOM      7  C   UNL     1       1.114   2.012   0.562  0.00  0.00    -0.019 A 
ATOM      8  C   UNL     1       1.032   3.399   0.383  0.00  0.00    -0.021 A 
ATOM      9  C   UNL     1      -0.193   4.023   0.362  0.00  0.00    +0.006 A 
ATOM     10  C   UNL     1      -1.351   3.279   0.514  0.00  0.00    +0.000 A 
ATOM     11  C   UNL     1      -1.283   1.908   0.681  0.00  0.00    +0.001 A 
ATOM     12  C   UNL     1      -0.059   1.271   0.713  0.00  0.00    +0.008 A 
ATOM     13  C   UNL     1       2.265   6.649   0.018  0.00  0.00    +0.232 C 
ATOM     14  O   UNL     1       1.362   7.268   0.540  0.00  0.00    -0.274 OA
ATOM     15  N   UNL     1       3.562   6.993   0.029  0.00  0.00    -0.210 N 
ATOM     16  C   UNL     1       4.336   6.240  -0.769  0.00  0.00    +0.232 C 
ATOM     17  O   UNL     1       5.547   6.271  -0.819  0.00  0.00    -0.274 OA
ATOM     18  N   UNL     1       3.505   3.471  -0.174  0.00  0.00    -0.383 NA
ATOM     19  H   UNL     1       4.235   3.841   0.446  0.00  0.00    +0.127 HD
ENDROOT
BRANCH  15  20
ATOM     20  C   UNL     1       4.064   8.047   0.805  0.00  0.00    +0.044 A 
ATOM     21  C   UNL     1       3.843   8.068   2.175  0.00  0.00    +0.025 A 
ATOM     22  C   UNL     1       4.343   9.105   2.938  0.00  0.00    +0.017 A 
ATOM     23  C   UNL     1       5.055  10.128   2.337  0.00  0.00    +0.018 A 
ATOM     24  C   UNL     1       5.272  10.111   0.970  0.00  0.00    +0.017 A 
ATOM     25  C   UNL     1       4.779   9.074   0.204  0.00  0.00    +0.025 A 
ATOM     26 BR   UNL     1       5.731  11.550   3.383  0.00  0.00    -0.050 Br
ENDBRANCH  15  20
BRANCH   1  28
ATOM     27  N   UNL     1       6.205   4.032  -2.478  0.00  0.00    -0.284 N 
ATOM     28  C   UNL     1       5.421   3.859  -1.396  0.00  0.00    +0.237 C 
ATOM     29  O   UNL     1       5.923   3.676  -0.307  0.00  0.00    -0.273 OA
ATOM     30  H   UNL     1       5.807   4.257  -3.334  0.00  0.00    +0.155 HD
BRANCH  27  34
ATOM     31  C   UNL     1      10.335   3.600  -2.151  0.00  0.00    +0.000 A 
ATOM     32  C   UNL     1       9.496   2.804  -1.393  0.00  0.00    +0.002 A 
ATOM     33  C   UNL     1       8.127   2.945  -1.500  0.00  0.00    +0.023 A 
ATOM     34  C   UNL     1       7.592   3.887  -2.368  0.00  0.00    +0.033 A 
ATOM     35  C   UNL     1       8.438   4.682  -3.131  0.00  0.00    +0.023 A 
ATOM     36  C   UNL     1       9.806   4.540  -3.017  0.00  0.00    +0.002 A 
ENDBRANCH  27  34
ENDBRANCH   1  28
TORSDOF 3
