REMARK  Name = ZINC01423004
REMARK  13 active torsions:
REMARK  status: ('A' for Active; 'I' for Inactive)
REMARK    1  A    between atoms: C_1  and  C_2
REMARK    2  A    between atoms: C_2  and  C_3
REMARK    3  A    between atoms: C_3  and  C_4
REMARK    4  A    between atoms: C_5  and  C_35
REMARK    5  A    between atoms: C_6  and  C_28
REMARK    6  A    between atoms: C_12  and  C_23
REMARK    7  A    between atoms: C_14  and  C_18
REMARK    8  A    between atoms: C_18  and  O_20
REMARK    9  A    between atoms: O_20  and  C_21
REMARK   10  A    between atoms: C_21  and  C_22
REMARK   11  A    between atoms: C_35  and  O_37
REMARK   12  A    between atoms: O_37  and  C_38
REMARK   13  A    between atoms: C_38  and  C_39
REMARK                            x       y       z     vdW  Elec       q    Type
REMARK                         _______ _______ _______ _____ _____    ______ ____
ROOT
ATOM      1  C   UNL     1       0.816  -2.022   1.321  0.00  0.00    +0.019 C 
ATOM      2  C   UNL     1       1.779  -2.668   0.641  0.00  0.00    +0.065 C 
ATOM      3  C   UNL     1       1.769  -4.163   0.510  0.00  0.00    +0.092 C 
ATOM      4  C   UNL     1       0.868  -4.791   1.542  0.00  0.00    +0.025 C 
ATOM      5  C   UNL     1      -0.064  -4.055   2.184  0.00  0.00    +0.016 C 
ATOM      6  N   UNL     1      -0.195  -2.719   1.921  0.00  0.00    -0.320 N 
ATOM      7  C   UNL     1      -0.982  -4.681   3.204  0.00  0.00    +0.061 C 
ATOM      8  C   UNL     1      -0.261  -5.836   3.903  0.00  0.00    +0.053 C 
ATOM      9  C   UNL     1       0.169  -6.854   2.842  0.00  0.00    +0.176 C 
ATOM     10  C   UNL     1       1.026  -6.161   1.817  0.00  0.00    +0.176 C 
ATOM     11  O   UNL     1       1.869  -6.797   1.216  0.00  0.00    -0.291 OA
ATOM     12  H   UNL     1      -1.017  -2.262   2.161  0.00  0.00    +0.152 HD
ENDROOT
BRANCH   3  13
ATOM     13  C   UNL     1       1.279  -4.535  -0.866  0.00  0.00    -0.032 A 
ATOM     14  C   UNL     1       0.018  -4.146  -1.279  0.00  0.00    +0.005 A 
ATOM     15  C   UNL     1      -0.432  -4.487  -2.541  0.00  0.00    +0.003 A 
ATOM     16  C   UNL     1       0.377  -5.217  -3.390  0.00  0.00    +0.038 A 
ATOM     17  C   UNL     1       1.639  -5.608  -2.978  0.00  0.00    +0.124 A 
ATOM     18  C   UNL     1       2.092  -5.261  -1.716  0.00  0.00    +0.043 A 
ATOM     19  F   UNL     1       2.430  -6.322  -3.807  0.00  0.00    -0.205 F 
ENDBRANCH   3  13
BRANCH   8  20
ATOM     20  C   UNL     1      -1.193  -6.491   4.890  0.00  0.00    -0.006 A 
ATOM     21  C   UNL     1      -1.058  -6.625   6.232  0.00  0.00    +0.011 A 
ATOM     22  C   UNL     1      -2.051  -7.270   6.945  0.00  0.00    +0.008 A 
ATOM     23  C   UNL     1      -3.131  -7.749   6.280  0.00  0.00    +0.045 A 
ATOM     24  S   UNL     1      -2.765  -7.284   4.596  0.00  0.00    -0.101 S 
ENDBRANCH   8  20
BRANCH   9  25
ATOM     25  C   UNL     1       0.957  -7.961   3.495  0.00  0.00    +0.318 C 
ATOM     26  O   UNL     1       1.154  -7.939   4.687  0.00  0.00    -0.250 OA
BRANCH  25  27
ATOM     27  O   UNL     1       1.438  -8.970   2.753  0.00  0.00    -0.464 OA
BRANCH  27  28
ATOM     28  C   UNL     1       2.175  -9.985   3.438  0.00  0.00    +0.229 C 
ATOM     29  C   UNL     1       2.640 -11.042   2.434  0.00  0.00    +0.048 C 
ENDBRANCH  27  28
ENDBRANCH  25  27
ENDBRANCH   9  25
BRANCH   2  30
ATOM     30  C   UNL     1       2.821  -1.925   0.040  0.00  0.00    +0.338 C 
ATOM     31  O   UNL     1       2.785  -1.681  -1.152  0.00  0.00    -0.245 OA
BRANCH  30  32
ATOM     32  O   UNL     1       3.857  -1.488   0.787  0.00  0.00    -0.462 OA
BRANCH  32  33
ATOM     33  C   UNL     1       4.874  -0.744   0.113  0.00  0.00    +0.229 C 
ATOM     34  C   UNL     1       5.955  -0.336   1.115  0.00  0.00    +0.048 C 
ENDBRANCH  32  33
ENDBRANCH  30  32
ENDBRANCH   2  30
BRANCH   1  35
ATOM     35  C   UNL     1       0.854  -0.519   1.425  0.00  0.00    +0.051 C 
BRANCH  35  37
ATOM     36  C   UNL     1       0.068   1.618   0.398  0.00  0.00    +0.004 C 
ATOM     37  C   UNL     1       0.029   0.092   0.291  0.00  0.00    +0.002 C 
ENDBRANCH  35  37
ENDBRANCH   1  35
TORSDOF 10
