REMARK  Name = ZINC03595488
REMARK  11 active torsions:
REMARK  status: ('A' for Active; 'I' for Inactive)
REMARK    1  A    between atoms: C_1  and  C_2
REMARK    2  A    between atoms: C_2  and  C_3
REMARK    3  A    between atoms: C_2  and  N_4
REMARK    4  A    between atoms: N_4  and  C_5
REMARK    5  A    between atoms: C_5  and  C_6
REMARK    6  A    between atoms: C_12  and  C_14
REMARK    7  A    between atoms: C_14  and  N_15
REMARK    8  A    between atoms: C_18  and  C_22
REMARK    9  A    between atoms: C_18  and  C_23
REMARK   10  A    between atoms: C_26  and  O_29
REMARK   11  A    between atoms: O_29  and  C_30
REMARK                            x       y       z     vdW  Elec       q    Type
REMARK                         _______ _______ _______ _____ _____    ______ ____
ROOT
ATOM      1  N   UNL     1       0.248   9.163   2.030  0.00  0.00    -0.215 N 
ATOM      2  C   UNL     1      -0.374   8.668   0.943  0.00  0.00    +0.251 C 
ATOM      3  O   UNL     1       0.052   8.631  -0.192  0.00  0.00    -0.272 OA
ATOM      4  C   UNL     1      -1.718   8.166   1.432  0.00  0.00    +0.135 C 
ATOM      5  N   UNL     1      -1.694   8.465   2.875  0.00  0.00    -0.281 N 
ATOM      6  C   UNL     1      -0.507   9.045   3.128  0.00  0.00    +0.310 C 
ATOM      7  O   UNL     1      -0.161   9.421   4.231  0.00  0.00    -0.252 OA
ATOM      8  C   UNL     1      -2.860   8.918   0.745  0.00  0.00    +0.047 C 
ATOM      9  H   UNL     1      -2.397   8.279   3.517  0.00  0.00    +0.152 HD
ENDROOT
BRANCH   4  10
ATOM     10  C   UNL     1      -1.846   6.683   1.200  0.00  0.00    -0.015 A 
ATOM     11  C   UNL     1      -2.543   5.901   2.103  0.00  0.00    +0.010 A 
ATOM     12  C   UNL     1      -2.663   4.541   1.892  0.00  0.00    +0.046 A 
ATOM     13  C   UNL     1      -2.082   3.959   0.774  0.00  0.00    +0.127 A 
ATOM     14  C   UNL     1      -1.379   4.745  -0.127  0.00  0.00    +0.046 A 
ATOM     15  C   UNL     1      -1.267   6.106   0.086  0.00  0.00    +0.010 A 
BRANCH  13  16
ATOM     16  O   UNL     1      -2.198   2.622   0.565  0.00  0.00    -0.434 OA
BRANCH  16  17
ATOM     17  C   UNL     1      -1.575   2.092  -0.607  0.00  0.00    +0.541 C 
ATOM     18  F   UNL     1      -0.201   2.347  -0.560  0.00  0.00    -0.166 F 
ATOM     19  F   UNL     1      -2.124   2.699  -1.742  0.00  0.00    -0.166 F 
ENDBRANCH  16  17
ENDBRANCH  13  16
ENDBRANCH   4  10
BRANCH   1  20
ATOM     20  C   UNL     1       1.587   9.758   2.013  0.00  0.00    +0.213 C 
BRANCH  20  22
ATOM     21  N   UNL     1       3.929   8.981   2.182  0.00  0.00    -0.293 N 
ATOM     22  C   UNL     1       2.616   8.686   2.262  0.00  0.00    +0.234 C 
ATOM     23  O   UNL     1       2.264   7.558   2.535  0.00  0.00    -0.274 OA
BRANCH  21  25
ATOM     24  C   UNL     1       5.362  10.762   3.050  0.00  0.00    +0.028 C 
ATOM     25  C   UNL     1       4.357  10.365   1.966  0.00  0.00    +0.070 C 
ATOM     26  C   UNL     1       5.016  10.487   0.591  0.00  0.00    +0.028 C 
ENDBRANCH  21  25
BRANCH  21  27
ATOM     27  C   UNL     1       4.928   7.916   2.309  0.00  0.00    +0.143 C 
BRANCH  27  28
ATOM     28  C   UNL     1       5.139   7.262   0.968  0.00  0.00    -0.030 A 
ATOM     29  C   UNL     1       4.286   6.260   0.546  0.00  0.00    +0.005 A 
ATOM     30  C   UNL     1       4.477   5.663  -0.686  0.00  0.00    +0.000 A 
ATOM     31  C   UNL     1       5.527   6.061  -1.492  0.00  0.00    +0.000 A 
ATOM     32  C   UNL     1       6.383   7.061  -1.068  0.00  0.00    +0.000 A 
ATOM     33  C   UNL     1       6.189   7.661   0.162  0.00  0.00    +0.005 A 
ENDBRANCH  27  28
ENDBRANCH  21  27
ENDBRANCH  20  22
ENDBRANCH   1  20
TORSDOF 8
