REMARK  Name = ZINC05125979
REMARK  7 active torsions:
REMARK  status: ('A' for Active; 'I' for Inactive)
REMARK    1  A    between atoms: C_1  and  C_2
REMARK    2  A    between atoms: C_9  and  N_24
REMARK    3  A    between atoms: C_10  and  C_22
REMARK    4  A    between atoms: C_11  and  C_13
REMARK    5  A    between atoms: C_16  and  C_19
REMARK    6  A    between atoms: C_19  and  C_20
REMARK    7  A    between atoms: C_19  and  C_21
REMARK                            x       y       z     vdW  Elec       q    Type
REMARK                         _______ _______ _______ _____ _____    ______ ____
ROOT
ATOM      1  C   UNL     1      -0.018   1.503   0.010  0.00  0.00    +0.068 C 
ATOM      2  C   UNL     1       0.002  -0.004   0.002  0.00  0.00    +0.068 A 
ATOM      3  C   UNL     1       0.008  -0.813  -1.126  0.00  0.00    +0.049 A 
ATOM      4  C   UNL     1       0.028  -2.116  -0.713  0.00  0.00    +0.222 A 
ATOM      5  N   UNL     1       0.033  -2.116   0.629  0.00  0.00    -0.246 N 
ATOM      6  H   UNL     1       0.046  -2.900   1.201  0.00  0.00    +0.192 HD
ATOM      7  N   UNL     1       0.023  -0.780   1.060  0.00  0.00    -0.176 NA
ATOM      8  O   UNL     1       0.042  -3.159  -1.580  0.00  0.00    -0.423 OA
ATOM      9  C   UNL     1       0.311  -2.892  -2.874  0.00  0.00    +0.200 C 
ATOM     10  C   UNL     1       0.309  -1.648  -3.402  0.00  0.00    +0.098 C 
ATOM     11  C   UNL     1      -0.005  -0.421  -2.581  0.00  0.00    +0.101 C 
ENDROOT
BRANCH  11  12
ATOM     12  C   UNL     1      -1.367   0.105  -2.954  0.00  0.00    -0.035 A 
ATOM     13  C   UNL     1      -2.482  -0.701  -2.814  0.00  0.00    +0.005 A 
ATOM     14  C   UNL     1      -3.731  -0.218  -3.156  0.00  0.00    +0.004 A 
ATOM     15  C   UNL     1      -3.866   1.071  -3.638  0.00  0.00    -0.045 A 
ATOM     16  C   UNL     1      -2.751   1.877  -3.777  0.00  0.00    +0.004 A 
ATOM     17  C   UNL     1      -1.503   1.395  -3.431  0.00  0.00    +0.005 A 
BRANCH  15  18
ATOM     18  C   UNL     1      -5.228   1.597  -4.011  0.00  0.00    +0.013 C 
ATOM     19  C   UNL     1      -5.551   2.825  -3.158  0.00  0.00    +0.012 C 
ATOM     20  C   UNL     1      -5.235   1.987  -5.491  0.00  0.00    +0.012 C 
ENDBRANCH  15  18
ENDBRANCH  11  12
BRANCH   9  21
ATOM     21  N   UNL     1       0.605  -3.945  -3.704  0.00  0.00    -0.328 N 
ATOM     22  H   UNL     1       0.615  -4.850  -3.354  0.00  0.00    +0.145 HD
ATOM     23  H   UNL     1       0.803  -3.785  -4.640  0.00  0.00    +0.145 HD
ENDBRANCH   9  21
BRANCH  10  24
ATOM     24  C   UNL     1       0.616  -1.487  -4.791  0.00  0.00    +0.101 C 
ATOM     25  N   UNL     1       0.860  -1.360  -5.894  0.00  0.00    -0.191 NA
ENDBRANCH  10  24
TORSDOF 4
