REMARK  Name = ZINC64794469
REMARK  7 active torsions:
REMARK  status: ('A' for Active; 'I' for Inactive)
REMARK    1  A    between atoms: C_5  and  C_7
REMARK    2  A    between atoms: C_7  and  S_8
REMARK    3  A    between atoms: S_8  and  C_9
REMARK    4  A    between atoms: C_12  and  C_20
REMARK    5  A    between atoms: N_13  and  C_14
REMARK    6  A    between atoms: C_14  and  C_15
REMARK    7  A    between atoms: C_21  and  N_29
REMARK                            x       y       z     vdW  Elec       q    Type
REMARK                         _______ _______ _______ _____ _____    ______ ____
ROOT
ATOM      1  C   UNL     1       1.275  -4.553   1.506  0.00  0.00    +0.193 A 
ATOM      2  N   UNL     1       1.278  -5.221   0.376  0.00  0.00    -0.122 NA
ATOM      3  N   UNL     1       1.296  -6.485   0.607  0.00  0.00    -0.128 NA
ATOM      4  C   UNL     1       1.304  -6.704   1.904  0.00  0.00    +0.174 A 
ATOM      5  N   UNL     1       1.297  -5.472   2.521  0.00  0.00    -0.294 N 
ENDROOT
BRANCH   4   6
ATOM      6  C   UNL     1       1.323  -8.014   2.570  0.00  0.00    +0.080 A 
ATOM      7  C   UNL     1       1.341  -9.250   1.998  0.00  0.00    +0.052 A 
ATOM      8  C   UNL     1       1.358 -10.419   2.862  0.00  0.00    +0.029 A 
ATOM      9  C   UNL     1       1.378 -11.789   2.501  0.00  0.00    +0.014 A 
ATOM     10  C   UNL     1       1.391 -12.740   3.495  0.00  0.00    +0.020 A 
ATOM     11  C   UNL     1       1.384 -12.361   4.829  0.00  0.00    +0.112 A 
ATOM     12  N   UNL     1       1.365 -11.084   5.161  0.00  0.00    -0.248 NA
ATOM     13  C   UNL     1       1.353 -10.139   4.248  0.00  0.00    +0.111 A 
ATOM     14  S   UNL     1       1.335  -8.364   4.317  0.00  0.00    -0.064 S 
BRANCH   7  15
ATOM     15  N   UNL     1       1.344  -9.392   0.604  0.00  0.00    -0.356 N 
ATOM     16  H   UNL     1       1.332  -8.605   0.037  0.00  0.00    +0.142 HD
ATOM     17  H   UNL     1       1.357 -10.276   0.207  0.00  0.00    +0.142 HD
ENDBRANCH   7  15
ENDBRANCH   4   6
BRANCH   1  18
ATOM     18  S   UNL     1       1.253  -2.800   1.685  0.00  0.00    -0.081 S 
BRANCH  18  19
ATOM     19  C   UNL     1       1.228  -2.186  -0.022  0.00  0.00    +0.115 C 
BRANCH  19  24
ATOM     20  C   UNL     1      -0.017   1.378   0.010  0.00  0.00    +0.000 A 
ATOM     21  C   UNL     1       1.171   2.087   0.002  0.00  0.00    +0.003 A 
ATOM     22  C   UNL     1       2.377   1.414  -0.013  0.00  0.00    +0.038 A 
ATOM     23  C   UNL     1       2.397   0.029  -0.021  0.00  0.00    +0.127 A 
ATOM     24  C   UNL     1       1.208  -0.679  -0.013  0.00  0.00    -0.002 A 
ATOM     25  C   UNL     1       0.002  -0.004   0.002  0.00  0.00    +0.007 A 
ATOM     26  F   UNL     1       3.577  -0.630  -0.036  0.00  0.00    -0.205 F 
ENDBRANCH  19  24
ENDBRANCH  18  19
ENDBRANCH   1  18
BRANCH   5  27
ATOM     27  C   UNL     1       1.308  -5.201   3.960  0.00  0.00    +0.200 C 
BRANCH  27  28
ATOM     28  C   UNL     1      -0.109  -5.127   4.468  0.00  0.00    +0.125 A 
ATOM     29  C   UNL     1      -0.831  -6.160   4.940  0.00  0.00    +0.046 A 
ATOM     30  C   UNL     1      -2.095  -5.644   5.304  0.00  0.00    +0.041 A 
ATOM     31  C   UNL     1      -2.071  -4.327   5.033  0.00  0.00    +0.195 A 
ATOM     32  O   UNL     1      -0.864  -4.018   4.533  0.00  0.00    -0.466 OA
ENDBRANCH  27  28
ENDBRANCH   5  27
TORSDOF 7
