REMARK  Name = ZINC08673002
REMARK  11 active torsions:
REMARK  status: ('A' for Active; 'I' for Inactive)
REMARK    1  A    between atoms: C_1  and  C_2
REMARK    2  A    between atoms: C_2  and  C_17
REMARK    3  A    between atoms: N_3  and  N_4
REMARK    4  A    between atoms: C_5  and  C_7
REMARK    5  A    between atoms: C_7  and  C_9
REMARK    6  A    between atoms: C_7  and  O_15
REMARK    7  A    between atoms: O_15  and  C_16
REMARK    8  A    between atoms: C_30  and  C_33
REMARK    9  A    between atoms: C_36  and  C_39
REMARK   10  A    between atoms: C_39  and  O_41
REMARK   11  A    between atoms: O_41  and  C_42
REMARK                            x       y       z     vdW  Elec       q    Type
REMARK                         _______ _______ _______ _____ _____    ______ ____
ROOT
ATOM      1  C   UNL     1      -0.000  -0.734  -1.278  0.00  0.00    -0.002 A 
ATOM      2  C   UNL     1      -0.015  -0.031  -2.486  0.00  0.00    +0.011 A 
ATOM      3  C   UNL     1      -0.023  -0.722  -3.676  0.00  0.00    +0.024 A 
ATOM      4  C   UNL     1      -0.014  -2.116  -3.681  0.00  0.00    +0.031 A 
ATOM      5  C   UNL     1       0.013  -2.820  -2.488  0.00  0.00    -0.019 A 
ATOM      6  C   UNL     1       0.019  -2.129  -1.289  0.00  0.00    +0.015 A 
ATOM      7  C   UNL     1       0.059  -4.322  -2.442  0.00  0.00    +0.049 C 
ATOM      8  C   UNL     1       1.205  -4.723  -1.527  0.00  0.00    -0.023 C 
ATOM      9  C   UNL     1       2.247  -5.090  -2.227  0.00  0.00    -0.030 C 
ATOM     10  C   UNL     1       1.960  -5.003  -3.711  0.00  0.00    +0.033 C 
ATOM     11  C   UNL     1       0.402  -4.952  -3.790  0.00  0.00    +0.029 C 
ATOM     12  C   UNL     1      -0.102  -4.228  -5.002  0.00  0.00    +0.105 C 
ATOM     13  N   UNL     1      -0.038  -2.783  -4.900  0.00  0.00    -0.336 N 
ATOM     14  H   UNL     1      -0.036  -2.258  -5.716  0.00  0.00    +0.147 HD
ENDROOT
BRANCH  12  15
ATOM     15  C   UNL     1       0.739  -4.636  -6.185  0.00  0.00    -0.027 A 
ATOM     16  C   UNL     1       1.983  -4.061  -6.376  0.00  0.00    +0.006 A 
ATOM     17  C   UNL     1       2.757  -4.430  -7.457  0.00  0.00    +0.015 A 
ATOM     18  C   UNL     1       2.283  -5.386  -8.358  0.00  0.00    +0.059 A 
ATOM     19  C   UNL     1       1.027  -5.961  -8.158  0.00  0.00    +0.015 A 
ATOM     20  C   UNL     1       0.265  -5.587  -7.071  0.00  0.00    +0.006 A 
BRANCH  18  21
ATOM     21  C   UNL     1       3.107  -5.785  -9.517  0.00  0.00    +0.339 C 
ATOM     22  O   UNL     1       4.199  -5.283  -9.688  0.00  0.00    -0.245 OA
BRANCH  21  23
ATOM     23  O   UNL     1       2.646  -6.707 -10.384  0.00  0.00    -0.464 OA
ATOM     24  C   UNL     1       3.495  -7.046 -11.483  0.00  0.00    +0.280 C 
ENDBRANCH  21  23
ENDBRANCH  18  21
ENDBRANCH  12  15
BRANCH   1  26
ATOM     25  C   UNL     1      -0.018   1.503   0.010  0.00  0.00    +0.068 C 
ATOM     26  C   UNL     1       0.002  -0.004   0.002  0.00  0.00    +0.063 C 
ATOM     27  N   UNL     1       0.022  -0.659   1.123  0.00  0.00    -0.184 NA
BRANCH  27  28
ATOM     28  N   UNL     1       0.024   0.035   2.340  0.00  0.00    -0.204 N 
ATOM     29  C   UNL     1       0.044  -0.645   3.503  0.00  0.00    +0.266 C 
ATOM     30  O   UNL     1       0.060  -1.858   3.496  0.00  0.00    -0.271 OA
ATOM     31  H   UNL     1       0.011   1.005   2.345  0.00  0.00    +0.177 HD
BRANCH  29  32
ATOM     32  C   UNL     1       0.046   0.101   4.812  0.00  0.00    +0.235 C 
BRANCH  32  33
ATOM     33  C   UNL     1      -1.250   0.854   4.963  0.00  0.00    -0.010 A 
ATOM     34  C   UNL     1      -2.362   0.219   5.486  0.00  0.00    +0.006 A 
ATOM     35  C   UNL     1      -3.551   0.909   5.624  0.00  0.00    +0.000 A 
ATOM     36  C   UNL     1      -3.629   2.235   5.241  0.00  0.00    +0.000 A 
ATOM     37  C   UNL     1      -2.518   2.871   4.720  0.00  0.00    +0.000 A 
ATOM     38  C   UNL     1      -1.327   2.181   4.585  0.00  0.00    +0.006 A 
ENDBRANCH  32  33
BRANCH  32  39
ATOM     39  O   UNL     1       0.186  -0.827   5.889  0.00  0.00    -0.366 OA
ATOM     40  C   UNL     1       0.855  -0.293   7.034  0.00  0.00    +0.195 C 
ENDBRANCH  32  39
ENDBRANCH  29  32
ENDBRANCH  27  28
ENDBRANCH   1  26
TORSDOF 8
