REMARK  Name = ZINC35966839
REMARK  14 active torsions:
REMARK  status: ('A' for Active; 'I' for Inactive)
REMARK    1  A    between atoms: C_1  and  C_2
REMARK    2  A    between atoms: C_2  and  C_3
REMARK    3  A    between atoms: C_2  and  C_4
REMARK    4  A    between atoms: C_4  and  C_5
REMARK    5  A    between atoms: C_5  and  C_7
REMARK    6  A    between atoms: C_5  and  N_15
REMARK    7  A    between atoms: N_9  and  C_10
REMARK    8  A    between atoms: C_10  and  C_11
REMARK    9  A    between atoms: C_11  and  N_12
REMARK   10  A    between atoms: N_12  and  C_13
REMARK   11  A    between atoms: N_12  and  C_14
REMARK   12  A    between atoms: C_21  and  C_28
REMARK   13  A    between atoms: N_26  and  C_27
REMARK   14  A    between atoms: C_33  and  C_34
REMARK                            x       y       z     vdW  Elec       q    Type
REMARK                         _______ _______ _______ _____ _____    ______ ____
ROOT
ATOM      1  N   UNL     1      -1.956   1.335  -0.801  0.00  0.00    -0.281 N 
ATOM      2  C   UNL     1      -1.318   1.942  -1.979  0.00  0.00    +0.160 C 
ATOM      3  C   UNL     1      -1.885   3.342  -2.050  0.00  0.00    +0.042 C 
ATOM      4  C   UNL     1      -2.738   3.459  -1.013  0.00  0.00    +0.058 C 
ATOM      5  C   UNL     1      -2.780   2.259  -0.275  0.00  0.00    +0.247 C 
ATOM      6  O   UNL     1      -3.470   2.082   0.713  0.00  0.00    -0.270 OA
ATOM      7  C   UNL     1      -3.459   4.781  -0.839  0.00  0.00    +0.142 C 
ATOM      8  N   UNL     1      -3.166   5.835  -1.825  0.00  0.00    -0.288 N 
ATOM      9  C   UNL     1      -2.286   5.566  -2.811  0.00  0.00    +0.307 C 
ATOM     10  O   UNL     1      -2.038   6.429  -3.629  0.00  0.00    -0.252 OA
ATOM     11  N   UNL     1      -1.677   4.378  -2.916  0.00  0.00    -0.260 N 
ATOM     12  C   UNL     1      -0.736   4.178  -4.021  0.00  0.00    +0.139 C 
ATOM     13  H   UNL     1      -3.596   6.702  -1.768  0.00  0.00    +0.151 HD
ENDROOT
BRANCH   7  14
ATOM     14  C   UNL     1      -4.941   4.510  -0.876  0.00  0.00    -0.011 A 
ATOM     15  C   UNL     1      -5.548   4.144  -2.063  0.00  0.00    +0.006 A 
ATOM     16  C   UNL     1      -6.907   3.895  -2.096  0.00  0.00    +0.000 A 
ATOM     17  C   UNL     1      -7.660   4.013  -0.943  0.00  0.00    +0.001 A 
ATOM     18  C   UNL     1      -7.053   4.378   0.244  0.00  0.00    +0.013 A 
ATOM     19  C   UNL     1      -5.693   4.622   0.279  0.00  0.00    +0.060 A 
BRANCH  19  20
ATOM     20  C   UNL     1      -5.030   5.015   1.574  0.00  0.00    +0.418 C 
ATOM     21  F   UNL     1      -5.989   5.068   2.591  0.00  0.00    -0.166 F 
ATOM     22  F   UNL     1      -4.053   4.070   1.903  0.00  0.00    -0.166 F 
ATOM     23  F   UNL     1      -4.434   6.273   1.430  0.00  0.00    -0.166 F 
ENDBRANCH  19  20
ENDBRANCH   7  14
BRANCH   1  24
ATOM     24  C   UNL     1      -1.740  -0.024  -0.299  0.00  0.00    +0.163 C 
BRANCH  24  25
ATOM     25  C   UNL     1      -3.038  -0.788  -0.344  0.00  0.00    +0.234 C 
ATOM     26  O   UNL     1      -4.045  -0.251  -0.755  0.00  0.00    -0.274 OA
ATOM     27  N   UNL     1      -3.080  -2.070   0.072  0.00  0.00    -0.316 N 
ATOM     28  H   UNL     1      -2.275  -2.500   0.401  0.00  0.00    +0.149 HD
BRANCH  27  29
ATOM     29  C   UNL     1      -4.342  -2.813   0.029  0.00  0.00    +0.085 C 
BRANCH  29  30
ATOM     30  C   UNL     1      -4.117  -4.232   0.553  0.00  0.00    -0.061 C 
BRANCH  30  31
ATOM     31  N   UNL     1      -5.382  -4.977   0.509  0.00  0.00    +0.377 N 
ATOM     32  C   UNL     1      -5.805  -5.142  -0.887  0.00  0.00    -0.097 C 
ATOM     33  C   UNL     1      -5.193  -6.299   1.123  0.00  0.00    -0.097 C 
ATOM     34  H   UNL     1      -6.090  -4.468   1.018  0.00  0.00    -0.083 HD
ENDBRANCH  30  31
ENDBRANCH  29  30
ENDBRANCH  27  29
ENDBRANCH  24  25
BRANCH  24  35
ATOM     35  C   UNL     1      -1.235   0.039   1.143  0.00  0.00    +0.035 C 
BRANCH  35  37
ATOM     36  C   UNL     1       0.570   0.931   2.622  0.00  0.00    +0.007 C 
ATOM     37  C   UNL     1       0.149   0.692   1.171  0.00  0.00    -0.015 C 
ATOM     38  C   UNL     1       1.162  -0.232   0.492  0.00  0.00    +0.007 C 
ENDBRANCH  35  37
ENDBRANCH  24  35
ENDBRANCH   1  24
TORSDOF 9
