REMARK  Name = ZINC13273768
REMARK  7 active torsions:
REMARK  status: ('A' for Active; 'I' for Inactive)
REMARK    1  A    between atoms: C_4  and  S_9
REMARK    2  A    between atoms: C_5  and  C_7
REMARK    3  A    between atoms: S_9  and  C_10
REMARK    4  A    between atoms: C_13  and  S_19
REMARK    5  A    between atoms: C_15  and  N_16
REMARK    6  A    between atoms: S_19  and  N_22
REMARK    7  A    between atoms: C_25  and  C_28
REMARK                            x       y       z     vdW  Elec       q    Type
REMARK                         _______ _______ _______ _____ _____    ______ ____
ROOT
ATOM      1  C   UNL     1      -1.086   3.958   0.178  0.00  0.00    +0.043 A 
ATOM      2  C   UNL     1       0.257   4.316   0.153  0.00  0.00    +0.019 A 
ATOM      3  C   UNL     1       0.618   5.643   0.275  0.00  0.00    +0.030 A 
ATOM      4  C   UNL     1      -0.355   6.616   0.421  0.00  0.00    +0.108 A 
ATOM      5  C   UNL     1      -1.692   6.263   0.446  0.00  0.00    +0.062 A 
ATOM      6  C   UNL     1      -2.061   4.938   0.320  0.00  0.00    +0.142 A 
ENDROOT
BRANCH   6   7
ATOM      7  N   UNL     1      -3.492   4.562   0.341  0.00  0.00    +0.058 N 
ATOM      8  O   UNL     1      -4.346   5.422   0.466  0.00  0.00    -0.126 OA
ATOM      9  O   UNL     1      -3.817   3.393   0.234  0.00  0.00    -0.126 OA
ENDBRANCH   6   7
BRANCH   4  10
ATOM     10  S   UNL     1       0.111   8.308   0.577  0.00  0.00    +0.061 S 
ATOM     11  O   UNL     1      -0.957   8.963   1.248  0.00  0.00    -0.153 OA
ATOM     12  O   UNL     1       1.443   8.319   1.071  0.00  0.00    -0.153 OA
BRANCH  10  13
ATOM     13  N   UNL     1       0.168   8.942  -0.952  0.00  0.00    -0.177 NA
ATOM     14  C   UNL     1       1.413   8.908  -1.731  0.00  0.00    +0.110 C 
ATOM     15  C   UNL     1       1.743  10.322  -2.205  0.00  0.00    +0.032 C 
ATOM     16  C   UNL     1       0.543  10.896  -2.963  0.00  0.00    +0.105 C 
ATOM     17  C   UNL     1      -0.666  10.968  -2.027  0.00  0.00    +0.032 C 
ATOM     18  C   UNL     1      -1.024   9.556  -1.553  0.00  0.00    +0.110 C 
BRANCH  16  19
ATOM     19  C   UNL     1       0.878  12.279  -3.458  0.00  0.00    +0.359 C 
ATOM     20  O   UNL     1       0.217  13.225  -3.101  0.00  0.00    -0.246 OA
ATOM     21  O   UNL     1       1.910  12.460  -4.298  0.00  0.00    -0.246 OA
ENDBRANCH  16  19
ENDBRANCH  10  13
ENDBRANCH   4  10
BRANCH   1  22
ATOM     22  S   UNL     1      -1.552   2.266   0.022  0.00  0.00    -0.086 S 
BRANCH  22  26
ATOM     23  C   UNL     1       2.395   0.022   0.040  0.00  0.00    +0.001 A 
ATOM     24  C   UNL     1       1.716   0.234  -1.151  0.00  0.00    +0.001 A 
ATOM     25  C   UNL     1       0.518   0.917  -1.160  0.00  0.00    +0.016 A 
ATOM     26  C   UNL     1      -0.018   1.399   0.029  0.00  0.00    +0.027 A 
ATOM     27  C   UNL     1       0.667   1.186   1.237  0.00  0.00    +0.077 A 
ATOM     28  C   UNL     1       1.881   0.491   1.228  0.00  0.00    +0.016 A 
BRANCH  27  29
ATOM     29  C   UNL     1       0.112   1.691   2.503  0.00  0.00    +0.388 C 
ATOM     30  O   UNL     1      -0.943   2.294   2.506  0.00  0.00    -0.241 OA
ATOM     31  O   UNL     1       0.773   1.484   3.659  0.00  0.00    -0.241 OA
ENDBRANCH  27  29
ENDBRANCH  22  26
ENDBRANCH   1  22
TORSDOF 7
