REMARK  Name = ZINC38528687
REMARK  11 active torsions:
REMARK  status: ('A' for Active; 'I' for Inactive)
REMARK    1  A    between atoms: C_1  and  C_2
REMARK    2  A    between atoms: C_2  and  C_3
REMARK    3  A    between atoms: C_7  and  C_11
REMARK    4  A    between atoms: C_7  and  C_12
REMARK    5  A    between atoms: N_13  and  C_14
REMARK    6  A    between atoms: C_14  and  CA_15
REMARK    7  A    between atoms: CA_15  and  C_17
REMARK    8  A    between atoms: CA_15  and  N_20
REMARK    9  A    between atoms: C_21  and  O_23
REMARK   10  A    between atoms: O_23  and  C_24
REMARK   11  A    between atoms: C_24  and  C_25
REMARK                            x       y       z     vdW  Elec       q    Type
REMARK                         _______ _______ _______ _____ _____    ______ ____
ROOT
ATOM      1  N   UNL     1       1.660  -1.399  -3.254  0.00  0.00    -0.266 N 
ATOM      2  C   UNL     1       2.944  -1.793  -3.371  0.00  0.00    +0.401 C 
ATOM      3  O   UNL     1       3.838  -0.971  -3.328  0.00  0.00    -0.226 OA
ATOM      4  H   UNL     1       0.947  -2.054  -3.289  0.00  0.00    +0.153 HD
ENDROOT
BRANCH   1   5
ATOM      5  CA  UNL     1       1.343   0.020  -3.075  0.00  0.00    +0.210 C 
BRANCH   5   6
ATOM      6  C   UNL     1       1.276   0.694  -4.421  0.00  0.00    +0.378 C 
ATOM      7  O   UNL     1       1.569   1.873  -4.527  0.00  0.00    -0.244 OA
ATOM      8  OXT UNL     1       0.930   0.061  -5.403  0.00  0.00    -0.244 OA
ENDBRANCH   5   6
BRANCH   5   9
ATOM      9  C   UNL     1      -0.007   0.156  -2.369  0.00  0.00    +0.175 C 
BRANCH   9  12
ATOM     10  C   UNL     1      -0.339   1.505   0.044  0.00  0.00    +0.066 C 
ATOM     11  C   UNL     1      -0.080   0.021   0.019  0.00  0.00    +0.047 C 
ATOM     12  N   UNL     1       0.019  -0.600  -1.114  0.00  0.00    -0.285 NA
BRANCH  11  13
ATOM     13  C   UNL     1       0.061  -0.723   1.280  0.00  0.00    +0.080 C 
ATOM     14  C   UNL     1      -0.986  -1.534   1.718  0.00  0.00    +0.169 C 
ATOM     15  O   UNL     1      -2.006  -1.616   1.052  0.00  0.00    -0.292 OA
ATOM     16  C   UNL     1      -0.870  -2.309   3.004  0.00  0.00    +0.086 C 
ATOM     17  C   UNL     1       0.046  -1.554   3.971  0.00  0.00    -0.021 C 
ATOM     18  C   UNL     1       1.414  -1.357   3.311  0.00  0.00    +0.086 C 
ATOM     19  C   UNL     1       1.242  -0.610   2.014  0.00  0.00    +0.169 C 
ATOM     20  O   UNL     1       2.142   0.105   1.604  0.00  0.00    -0.292 OA
ATOM     21  C   UNL     1       0.211  -2.364   5.258  0.00  0.00    +0.012 C 
ATOM     22  C   UNL     1      -0.567  -0.190   4.297  0.00  0.00    +0.012 C 
ENDBRANCH  11  13
ENDBRANCH   9  12
ENDBRANCH   5   9
ENDBRANCH   1   5
BRANCH   2  23
ATOM     23  O   UNL     1       3.235  -3.097  -3.536  0.00  0.00    -0.449 OA
BRANCH  23  24
ATOM     24  C   UNL     1       4.617  -3.443  -3.654  0.00  0.00    +0.246 C 
BRANCH  24  25
ATOM     25  C   UNL     1       4.750  -4.957  -3.834  0.00  0.00    +0.088 C 
ATOM     26  C   UNL     1       4.202  -5.370  -5.178  0.00  0.00    -0.029 A 
ATOM     27  C   UNL     1       2.947  -5.263  -5.739  0.00  0.00    +0.005 A 
ATOM     28  C   UNL     1       2.718  -5.736  -7.019  0.00  0.00    +0.000 A 
ATOM     29  C   UNL     1       3.747  -6.317  -7.738  0.00  0.00    +0.001 A 
ATOM     30  C   UNL     1       5.006  -6.428  -7.185  0.00  0.00    +0.009 A 
ATOM     31  C   UNL     1       5.244  -5.953  -5.894  0.00  0.00    -0.014 A 
ATOM     32  C   UNL     1       6.477  -5.943  -5.068  0.00  0.00    -0.014 A 
ATOM     33  C   UNL     1       6.206  -5.354  -3.836  0.00  0.00    -0.029 A 
ATOM     34  C   UNL     1       7.201  -5.229  -2.890  0.00  0.00    +0.005 A 
ATOM     35  C   UNL     1       8.477  -5.690  -3.163  0.00  0.00    +0.000 A 
ATOM     36  C   UNL     1       8.757  -6.276  -4.384  0.00  0.00    +0.001 A 
ATOM     37  C   UNL     1       7.767  -6.405  -5.336  0.00  0.00    +0.009 A 
ENDBRANCH  24  25
ENDBRANCH  23  24
ENDBRANCH   2  23
TORSDOF 8
