REMARK  Name = ZINC38660661
REMARK  8 active torsions:
REMARK  status: ('A' for Active; 'I' for Inactive)
REMARK    1  A    between atoms: C_1  and  O_2
REMARK    2  A    between atoms: O_2  and  C_3
REMARK    3  A    between atoms: C_8  and  C_9
REMARK    4  A    between atoms: C_14  and  O_23
REMARK    5  A    between atoms: C_18  and  N_22
REMARK    6  A    between atoms: C_19  and  C_20
REMARK    7  A    between atoms: O_23  and  C_24
REMARK    8  A    between atoms: C_24  and  C_26
REMARK                            x       y       z     vdW  Elec       q    Type
REMARK                         _______ _______ _______ _____ _____    ______ ____
ROOT
ATOM      1  C   UNL     1       0.006  -2.788  -0.007  0.00  0.00    +0.101 C 
ATOM      2  C   UNL     1      -1.061  -3.672  -0.597  0.00  0.00    +0.008 A 
ATOM      3  C   UNL     1      -2.323  -3.153  -0.830  0.00  0.00    +0.012 A 
ATOM      4  C   UNL     1      -3.314  -3.948  -1.369  0.00  0.00    +0.047 A 
ATOM      5  C   UNL     1      -3.046  -5.274  -1.680  0.00  0.00    +0.135 A 
ATOM      6  C   UNL     1      -1.784  -5.797  -1.448  0.00  0.00    +0.093 A 
ATOM      7  C   UNL     1      -0.789  -4.995  -0.905  0.00  0.00    +0.138 A 
ATOM      8  O   UNL     1       0.441  -5.522  -0.684  0.00  0.00    -0.441 OA
ATOM      9  C   UNL     1       1.284  -4.919   0.170  0.00  0.00    +0.199 C 
ATOM     10  C   UNL     1       1.132  -3.626   0.529  0.00  0.00    +0.098 C 
ENDROOT
BRANCH   1  16
ATOM     11  C   UNL     1       0.428  -0.491  -0.920  0.00  0.00    +0.124 A 
ATOM     12  C   UNL     1       0.921   0.357  -1.901  0.00  0.00    +0.047 A 
ATOM     13  C   UNL     1       1.514  -0.169  -3.033  0.00  0.00    +0.019 A 
ATOM     14  C   UNL     1       1.615  -1.540  -3.188  0.00  0.00    +0.018 A 
ATOM     15  C   UNL     1       1.123  -2.387  -2.211  0.00  0.00    +0.023 A 
ATOM     16  C   UNL     1       0.535  -1.865  -1.075  0.00  0.00    +0.008 A 
ATOM     17 BR   UNL     1       2.425  -2.258  -4.739  0.00  0.00    -0.050 Br
BRANCH  11  19
ATOM     18  C   UNL     1      -0.231   1.449   0.287  0.00  0.00    +0.277 C 
ATOM     19  O   UNL     1      -0.155   0.025   0.194  0.00  0.00    -0.495 OA
ENDBRANCH  11  19
ENDBRANCH   1  16
BRANCH   9  20
ATOM     20  N   UNL     1       2.331  -5.638   0.692  0.00  0.00    -0.328 N 
ATOM     21  H   UNL     1       2.453  -6.567   0.443  0.00  0.00    +0.145 HD
ATOM     22  H   UNL     1       2.949  -5.216   1.310  0.00  0.00    +0.145 HD
ENDBRANCH   9  20
BRANCH  10  23
ATOM     23  C   UNL     1       2.067  -3.042   1.444  0.00  0.00    +0.101 C 
ATOM     24  N   UNL     1       2.809  -2.579   2.169  0.00  0.00    -0.191 NA
ENDBRANCH  10  23
BRANCH   5  25
ATOM     25  O   UNL     1      -4.021  -6.059  -2.211  0.00  0.00    -0.422 OA
BRANCH  25  26
ATOM     26  C   UNL     1      -4.429  -5.797  -3.468  0.00  0.00    +0.344 C 
ATOM     27  O   UNL     1      -3.858  -4.952  -4.128  0.00  0.00    -0.245 OA
BRANCH  26  28
ATOM     28  C   UNL     1      -5.571  -6.537  -4.043  0.00  0.00    +0.059 A 
ATOM     29  C   UNL     1      -6.233  -7.505  -3.284  0.00  0.00    +0.015 A 
ATOM     30  C   UNL     1      -7.298  -8.192  -3.827  0.00  0.00    +0.001 A 
ATOM     31  C   UNL     1      -7.712  -7.925  -5.120  0.00  0.00    +0.000 A 
ATOM     32  C   UNL     1      -7.060  -6.967  -5.878  0.00  0.00    +0.001 A 
ATOM     33  C   UNL     1      -5.997  -6.268  -5.345  0.00  0.00    +0.015 A 
ENDBRANCH  26  28
ENDBRANCH  25  26
ENDBRANCH   5  25
TORSDOF 7
