REMARK  Name = ZINC64428199
REMARK  9 active torsions:
REMARK  status: ('A' for Active; 'I' for Inactive)
REMARK    1  A    between atoms: C_1  and  C_2
REMARK    2  A    between atoms: C_4  and  C_33
REMARK    3  A    between atoms: N_5  and  C_7
REMARK    4  A    between atoms: C_7  and  C_8
REMARK    5  A    between atoms: C_10  and  C_16
REMARK    6  A    between atoms: C_13  and  O_14
REMARK    7  A    between atoms: O_14  and  C_15
REMARK    8  A    between atoms: C_23  and  O_28
REMARK    9  A    between atoms: O_28  and  C_29
REMARK                            x       y       z     vdW  Elec       q    Type
REMARK                         _______ _______ _______ _____ _____    ______ ____
ROOT
ATOM      1  C   UNL     1       1.564  -3.507   1.683  0.00  0.00    +0.016 A 
ATOM      2  C   UNL     1       2.145  -3.158   2.887  0.00  0.00    +0.014 A 
ATOM      3  C   UNL     1       3.372  -3.686   3.243  0.00  0.00    -0.028 A 
ATOM      4  C   UNL     1       4.021  -4.566   2.396  0.00  0.00    +0.009 A 
ATOM      5  C   UNL     1       3.443  -4.919   1.192  0.00  0.00    +0.046 A 
ATOM      6  C   UNL     1       2.210  -4.394   0.835  0.00  0.00    +0.125 A 
ENDROOT
BRANCH   3   7
ATOM      7  C   UNL     1       4.004  -3.302   4.556  0.00  0.00    +0.111 C 
ATOM      8  C   UNL     1       4.354  -4.564   5.349  0.00  0.00    +0.128 C 
ATOM      9  C   UNL     1       5.445  -5.276   4.557  0.00  0.00    -0.035 C 
ATOM     10  C   UNL     1       5.018  -6.514   4.360  0.00  0.00    +0.003 A 
ATOM     11  C   UNL     1       5.654  -7.689   3.742  0.00  0.00    +0.055 A 
ATOM     12  C   UNL     1       4.911  -8.828   3.688  0.00  0.00    +0.121 A 
ATOM     13  C   UNL     1       3.602  -8.935   4.181  0.00  0.00    +0.047 A 
ATOM     14  C   UNL     1       2.924  -7.919   4.773  0.00  0.00    +0.029 A 
ATOM     15  C   UNL     1       3.626  -6.634   4.894  0.00  0.00    +0.043 A 
ATOM     16  N   UNL     1       3.234  -5.500   5.438  0.00  0.00    -0.376 N 
ATOM     17  C   UNL     1       6.675  -4.546   4.073  0.00  0.00    +0.048 C 
ATOM     18  C   UNL     1       6.174  -3.249   3.412  0.00  0.00    +0.086 C 
ATOM     19  N   UNL     1       5.246  -2.552   4.308  0.00  0.00    -0.307 NA
ATOM     20  H   UNL     1       5.045  -1.623   3.970  0.00  0.00    +0.123 HD
ATOM     21  H   UNL     1       2.365  -5.310   5.825  0.00  0.00    +0.160 HD
BRANCH  12  22
ATOM     22  O   UNL     1       5.472  -9.930   3.123  0.00  0.00    -0.495 OA
ATOM     23  C   UNL     1       4.674 -11.114   3.078  0.00  0.00    +0.277 C 
ENDBRANCH  12  22
ENDBRANCH   3   7
BRANCH   6  24
ATOM     24  O   UNL     1       1.637  -4.745  -0.347  0.00  0.00    -0.495 OA
ATOM     25  C   UNL     1       2.359  -5.663  -1.171  0.00  0.00    +0.277 C 
ENDBRANCH   6  24
BRANCH   1  26
ATOM     26  C   UNL     1       0.227  -2.930   1.296  0.00  0.00    +0.182 C 
BRANCH  26  31
ATOM     27  C   UNL     1       0.963   1.692  -0.518  0.00  0.00    +0.068 C 
ATOM     28  C   UNL     1       0.749   0.204  -0.418  0.00  0.00    +0.074 A 
ATOM     29  C   UNL     1       0.672  -0.688  -1.494  0.00  0.00    +0.061 A 
ATOM     30  C   UNL     1       0.474  -1.929  -0.992  0.00  0.00    +0.051 A 
ATOM     31  N   UNL     1       0.426  -1.826   0.353  0.00  0.00    -0.263 N 
ATOM     32  N   UNL     1       0.607  -0.478   0.689  0.00  0.00    -0.175 NA
ATOM     33  C   UNL     1       0.330  -3.198  -1.792  0.00  0.00    +0.066 C 
ATOM     34 BR   UNL     1       0.819  -0.238  -3.325  0.00  0.00    -0.047 Br
ENDBRANCH  26  31
ENDBRANCH   1  26
TORSDOF 5
