REMARK  Name = ZINC63588962
REMARK  9 active torsions:
REMARK  status: ('A' for Active; 'I' for Inactive)
REMARK    1  A    between atoms: C_1  and  C_2
REMARK    2  A    between atoms: C_2  and  O_3
REMARK    3  A    between atoms: O_3  and  C_4
REMARK    4  A    between atoms: C_9  and  N_10
REMARK    5  A    between atoms: N_12  and  C_13
REMARK    6  A    between atoms: C_13  and  C_14
REMARK    7  A    between atoms: C_14  and  C_15
REMARK    8  A    between atoms: N_24  and  C_25
REMARK    9  A    between atoms: C_25  and  C_27
REMARK                            x       y       z     vdW  Elec       q    Type
REMARK                         _______ _______ _______ _____ _____    ______ ____
ROOT
ATOM      1  N   UNL     1       3.377  -2.020  -3.650  0.00  0.00    -0.325 N 
ATOM      2  C   UNL     1       3.159  -2.139  -4.992  0.00  0.00    +0.194 C 
ATOM      3  N   UNL     1       3.051  -1.022  -5.768  0.00  0.00    -0.357 N 
ATOM      4  N   UNL     1       3.051  -3.339  -5.542  0.00  0.00    -0.143 NA
ATOM      5  H   UNL     1       2.844  -1.104  -6.712  0.00  0.00    +0.162 HD
ATOM      6  H   UNL     1       4.246  -2.238  -3.279  0.00  0.00    +0.169 HD
ENDROOT
BRANCH   1  12
ATOM      7  C   UNL     1       2.603  -1.320  -1.466  0.00  0.00    +0.144 A 
ATOM      8  C   UNL     1       1.581  -0.882  -0.640  0.00  0.00    +0.048 A 
ATOM      9  C   UNL     1       0.306  -0.714  -1.147  0.00  0.00    +0.004 A 
ATOM     10  C   UNL     1       0.047  -0.982  -2.479  0.00  0.00    +0.002 A 
ATOM     11  C   UNL     1       1.062  -1.418  -3.310  0.00  0.00    +0.029 A 
ATOM     12  C   UNL     1       2.345  -1.584  -2.809  0.00  0.00    +0.084 A 
BRANCH   7  13
ATOM     13  O   UNL     1       3.858  -1.486  -0.968  0.00  0.00    -0.490 OA
BRANCH  13  15
ATOM     14  C   UNL     1       5.512  -1.440   0.794  0.00  0.00    +0.048 C 
ATOM     15  C   UNL     1       4.049  -1.196   0.419  0.00  0.00    +0.226 C 
ENDBRANCH  13  15
ENDBRANCH   7  13
ENDBRANCH   1  12
BRANCH   4  16
ATOM     16  C   UNL     1       2.967  -4.427  -4.764  0.00  0.00    +0.270 C 
ATOM     17  O   UNL     1       2.865  -4.306  -3.556  0.00  0.00    -0.268 OA
BRANCH  16  18
ATOM     18  C   UNL     1       2.998  -5.775  -5.372  0.00  0.00    +0.043 A 
ATOM     19  C   UNL     1       3.233  -5.920  -6.740  0.00  0.00    +0.017 A 
ATOM     20  C   UNL     1       3.261  -7.176  -7.306  0.00  0.00    +0.050 A 
ATOM     21  C   UNL     1       3.057  -8.301  -6.519  0.00  0.00    +0.166 A 
ATOM     22  C   UNL     1       2.821  -8.163  -5.150  0.00  0.00    +0.167 A 
ATOM     23  C   UNL     1       2.796  -6.906  -4.578  0.00  0.00    +0.062 A 
ATOM     24  O   UNL     1       2.653  -9.405  -4.609  0.00  0.00    -0.453 OA
ATOM     25  C   UNL     1       2.382 -10.276  -5.724  0.00  0.00    +0.466 C 
ATOM     26  O   UNL     1       3.037  -9.629  -6.831  0.00  0.00    -0.453 OA
ENDBRANCH  16  18
ENDBRANCH   4  16
BRANCH   3  27
ATOM     27  C   UNL     1       3.248   0.303  -5.174  0.00  0.00    +0.120 C 
BRANCH  27  28
ATOM     28  C   UNL     1       3.023   1.378  -6.240  0.00  0.00    +0.054 C 
BRANCH  28  29
ATOM     29  C   UNL     1       3.340   2.733  -5.662  0.00  0.00    -0.040 C 
ATOM     30  C   UNL     1       4.560   3.308  -5.560  0.00  0.00    -0.001 A 
ATOM     31  C   UNL     1       5.905   2.862  -5.942  0.00  0.00    +0.010 A 
ATOM     32  C   UNL     1       6.958   3.677  -5.709  0.00  0.00    +0.001 A 
ATOM     33  C   UNL     1       6.798   4.935  -5.111  0.00  0.00    +0.002 A 
ATOM     34  C   UNL     1       5.594   5.415  -4.733  0.00  0.00    +0.026 A 
ATOM     35  C   UNL     1       4.418   4.641  -4.932  0.00  0.00    +0.043 A 
ATOM     36  N   UNL     1       3.159   4.880  -4.655  0.00  0.00    -0.380 N 
ATOM     37  C   UNL     1       2.359   3.727  -5.083  0.00  0.00    +0.144 C 
ATOM     38  H   UNL     1       2.813   5.686  -4.241  0.00  0.00    +0.160 HD
ENDBRANCH  28  29
ENDBRANCH  27  28
ENDBRANCH   3  27
TORSDOF 8
