REMARK  Name = ZINC09450909
REMARK  8 active torsions:
REMARK  status: ('A' for Active; 'I' for Inactive)
REMARK    1  A    between atoms: C_3  and  N_11
REMARK    2  A    between atoms: C_6  and  N_7
REMARK    3  A    between atoms: C_12  and  C_14
REMARK    4  A    between atoms: C_14  and  O_15
REMARK    5  A    between atoms: O_15  and  C_16
REMARK    6  A    between atoms: C_16  and  C_18
REMARK    7  A    between atoms: C_18  and  O_19
REMARK    8  A    between atoms: O_19  and  C_20
REMARK                            x       y       z     vdW  Elec       q    Type
REMARK                         _______ _______ _______ _____ _____    ______ ____
ROOT
ATOM      1  C   UNL     1      -0.017   1.502   0.028  0.00  0.00    +0.328 C 
ENDROOT
BRANCH   1   3
ATOM      2  N   UNL     1      -1.156  -0.694   0.009  0.00  0.00    -0.282 N 
ATOM      3  C   UNL     1       0.002  -0.005   0.008  0.00  0.00    +0.255 C 
ATOM      4  O   UNL     1       1.061  -0.597  -0.009  0.00  0.00    -0.272 OA
ATOM      5  H   UNL     1      -2.000  -0.223   0.089  0.00  0.00    +0.155 HD
BRANCH   2   8
ATOM      6  C   UNL     1      -0.100  -4.199   0.360  0.00  0.00    +0.034 A 
ATOM      7  C   UNL     1      -0.113  -2.822   0.473  0.00  0.00    +0.026 A 
ATOM      8  C   UNL     1      -1.140  -2.089  -0.104  0.00  0.00    +0.048 A 
ATOM      9  C   UNL     1      -2.156  -2.743  -0.790  0.00  0.00    +0.041 A 
ATOM     10  C   UNL     1      -2.135  -4.120  -0.904  0.00  0.00    +0.049 A 
ATOM     11  C   UNL     1      -1.109  -4.847  -0.328  0.00  0.00    +0.127 A 
ATOM     12 BR   UNL     1      -3.563  -1.750  -1.572  0.00  0.00    -0.048 Br
BRANCH  11  13
ATOM     13  N   UNL     1      -1.093  -6.322  -0.446  0.00  0.00    +0.056 N 
ATOM     14  O   UNL     1      -0.191  -6.964   0.061  0.00  0.00    -0.126 OA
ATOM     15  O   UNL     1      -1.981  -6.895  -1.051  0.00  0.00    -0.126 OA
ENDBRANCH  11  13
ENDBRANCH   2   8
ENDBRANCH   1   3
BRANCH   1  16
ATOM     16  O   UNL     1       1.345   2.004   0.022  0.00  0.00    -0.453 OA
BRANCH  16  17
ATOM     17  C   UNL     1       1.503   3.337   0.038  0.00  0.00    +0.346 C 
ATOM     18  O   UNL     1       0.536   4.060   0.056  0.00  0.00    -0.247 OA
BRANCH  17  19
ATOM     19  C   UNL     1       2.888   3.931   0.034  0.00  0.00    +0.349 C 
BRANCH  19  20
ATOM     20  O   UNL     1       2.795   5.357   0.053  0.00  0.00    -0.481 OA
BRANCH  20  21
ATOM     21  C   UNL     1       3.963   6.052   0.052  0.00  0.00    +0.122 A 
ATOM     22  C   UNL     1       5.174   5.376   0.032  0.00  0.00    +0.046 A 
ATOM     23  C   UNL     1       6.358   6.087   0.030  0.00  0.00    +0.007 A 
ATOM     24  C   UNL     1       6.341   7.472   0.048  0.00  0.00    -0.044 A 
ATOM     25  C   UNL     1       5.135   8.147   0.068  0.00  0.00    -0.041 A 
ATOM     26  C   UNL     1       3.947   7.438   0.064  0.00  0.00    +0.049 A 
ATOM     27  C   UNL     1       5.385   9.640   0.085  0.00  0.00    +0.036 C 
ATOM     28  C   UNL     1       6.851   9.810  -0.366  0.00  0.00    +0.009 C 
ATOM     29  C   UNL     1       7.484   8.465   0.051  0.00  0.00    +0.036 C 
ENDBRANCH  20  21
ENDBRANCH  19  20
ENDBRANCH  17  19
ENDBRANCH  16  17
ENDBRANCH   1  16
TORSDOF 8
