REMARK  Name = ZINC63373853
REMARK  10 active torsions:
REMARK  status: ('A' for Active; 'I' for Inactive)
REMARK    1  A    between atoms: C_1  and  C_2
REMARK    2  A    between atoms: C_2  and  C_3
REMARK    3  A    between atoms: C_3  and  C_4
REMARK    4  A    between atoms: C_4  and  O_5
REMARK    5  A    between atoms: O_5  and  C_6
REMARK    6  A    between atoms: C_6  and  C_7
REMARK    7  A    between atoms: C_7  and  C_8
REMARK    8  A    between atoms: C_8  and  N_9
REMARK    9  A    between atoms: C_15  and  C_31
REMARK   10  A    between atoms: C_27  and  C_30
REMARK                            x       y       z     vdW  Elec       q    Type
REMARK                         _______ _______ _______ _____ _____    ______ ____
ROOT
ATOM      1  N   UNL     1      -5.716  -6.478  -0.463  0.00  0.00    -0.291 N 
ATOM      2  C   UNL     1      -6.422  -6.845   0.779  0.00  0.00    +0.203 C 
ATOM      3  C   UNL     1      -7.790  -6.194   0.768  0.00  0.00    +0.234 C 
ATOM      4  O   UNL     1      -8.248  -5.663   1.758  0.00  0.00    -0.274 OA
ATOM      5  N   UNL     1      -8.486  -6.234  -0.416  0.00  0.00    -0.283 N 
ATOM      6  C   UNL     1      -9.696  -5.436  -0.498  0.00  0.00    +0.121 C 
ATOM      7  C   UNL     1     -10.598  -5.818  -1.675  0.00  0.00    +0.065 C 
ATOM      8  C   UNL     1      -9.678  -6.085  -2.839  0.00  0.00    -0.027 C 
ATOM      9  C   UNL     1      -9.562  -5.536  -4.039  0.00  0.00    -0.000 A 
ATOM     10  C   UNL     1     -10.377  -4.535  -4.746  0.00  0.00    +0.010 A 
ATOM     11  C   UNL     1      -9.945  -4.176  -5.984  0.00  0.00    +0.001 A 
ATOM     12  C   UNL     1      -8.798  -4.705  -6.582  0.00  0.00    +0.002 A 
ATOM     13  C   UNL     1      -7.996  -5.639  -6.010  0.00  0.00    +0.026 A 
ATOM     14  C   UNL     1      -8.353  -6.104  -4.712  0.00  0.00    +0.043 A 
ATOM     15  N   UNL     1      -7.792  -7.003  -3.956  0.00  0.00    -0.375 N 
ATOM     16  C   UNL     1      -8.607  -7.161  -2.753  0.00  0.00    +0.139 C 
ATOM     17  C   UNL     1      -7.861  -7.021  -1.465  0.00  0.00    +0.135 C 
ATOM     18  C   UNL     1      -6.428  -6.584  -1.625  0.00  0.00    +0.242 C 
ATOM     19  O   UNL     1      -5.940  -6.347  -2.710  0.00  0.00    -0.273 OA
ATOM     20  C   UNL     1      -7.762  -8.438  -0.896  0.00  0.00    +0.044 C 
ATOM     21  H   UNL     1      -6.974  -7.484  -4.157  0.00  0.00    +0.160 HD
ENDROOT
BRANCH   7  22
ATOM     22  C   UNL     1     -11.389  -7.057  -1.341  0.00  0.00    -0.039 A 
ATOM     23  C   UNL     1     -10.922  -7.937  -0.383  0.00  0.00    +0.006 A 
ATOM     24  C   UNL     1     -11.647  -9.073  -0.076  0.00  0.00    +0.020 A 
ATOM     25  C   UNL     1     -12.839  -9.330  -0.729  0.00  0.00    +0.041 A 
ATOM     26  C   UNL     1     -13.306  -8.449  -1.688  0.00  0.00    +0.020 A 
ATOM     27  C   UNL     1     -12.583  -7.310  -1.990  0.00  0.00    +0.006 A 
ATOM     28 CL   UNL     1     -13.749 -10.758  -0.344  0.00  0.00    -0.084 Cl
ENDBRANCH   7  22
BRANCH   1  29
ATOM     29  C   UNL     1      -4.325  -6.019  -0.451  0.00  0.00    +0.110 C 
BRANCH  29  30
ATOM     30  C   UNL     1      -4.292  -4.497  -0.294  0.00  0.00    +0.047 C 
BRANCH  30  31
ATOM     31  C   UNL     1      -2.839  -4.017  -0.282  0.00  0.00    +0.161 C 
BRANCH  31  32
ATOM     32  O   UNL     1      -2.808  -2.596  -0.136  0.00  0.00    -0.380 OA
BRANCH  32  33
ATOM     33  C   UNL     1      -1.491  -2.043  -0.112  0.00  0.00    +0.160 C 
BRANCH  33  34
ATOM     34  C   UNL     1      -1.579  -0.523   0.047  0.00  0.00    +0.028 C 
BRANCH  34  36
ATOM     35  C   UNL     1      -0.256   1.588   0.232  0.00  0.00    +0.004 C 
ATOM     36  C   UNL     1      -0.168   0.069   0.072  0.00  0.00    -0.001 C 
ENDBRANCH  34  36
ENDBRANCH  33  34
ENDBRANCH  32  33
ENDBRANCH  31  32
ENDBRANCH  30  31
ENDBRANCH  29  30
ENDBRANCH   1  29
TORSDOF 8
