REMARK  Name = ZINC07844989
REMARK  6 active torsions:
REMARK  status: ('A' for Active; 'I' for Inactive)
REMARK    1  A    between atoms: C_1  and  C_2
REMARK    2  A    between atoms: C_7  and  N_8
REMARK    3  A    between atoms: C_9  and  C_11
REMARK    4  A    between atoms: C_11  and  C_12
REMARK    5  A    between atoms: C_14  and  C_17
REMARK    6  A    between atoms: C_18  and  C_26
REMARK                            x       y       z     vdW  Elec       q    Type
REMARK                         _______ _______ _______ _____ _____    ______ ____
ROOT
ATOM      1  C   UNL     1       4.072   7.996   0.006  0.00  0.00    +0.088 A 
ATOM      2  N   UNL     1       3.492   6.821  -0.003  0.00  0.00    -0.240 NA
ATOM      3  C   UNL     1       2.173   6.700   0.011  0.00  0.00    +0.114 A 
ATOM      4  C   UNL     1       1.425   7.850   0.029  0.00  0.00    +0.078 A 
ATOM      5  S   UNL     1       2.719   9.083   0.036  0.00  0.00    -0.079 S 
ENDROOT
BRANCH   3   6
ATOM      6  C   UNL     1       1.528   5.371   0.000  0.00  0.00    +0.158 A 
ATOM      7  C   UNL     1       2.185   4.186  -0.022  0.00  0.00    +0.005 A 
ATOM      8  C   UNL     1       1.152   3.148  -0.024  0.00  0.00    +0.024 A 
ATOM      9  C   UNL     1       1.174   1.753  -0.042  0.00  0.00    +0.012 A 
ATOM     10  C   UNL     1      -0.003   1.056  -0.038  0.00  0.00    +0.001 A 
ATOM     11  C   UNL     1      -1.216   1.728  -0.021  0.00  0.00    +0.004 A 
ATOM     12  C   UNL     1      -1.258   3.106   0.003  0.00  0.00    +0.047 A 
ATOM     13  C   UNL     1      -0.075   3.834  -0.001  0.00  0.00    +0.136 A 
ATOM     14  O   UNL     1       0.198   5.155   0.013  0.00  0.00    -0.453 OA
ATOM     15  C   UNL     1       3.678   3.979  -0.041  0.00  0.00    +0.048 C 
ENDBRANCH   3   6
BRANCH   1  16
ATOM     16  C   UNL     1       5.543   8.322  -0.006  0.00  0.00    +0.159 C 
BRANCH  16  18
ATOM     17  N   UNL     1       7.308   8.739  -1.688  0.00  0.00    -0.285 N 
ATOM     18  C   UNL     1       6.018   8.449  -1.431  0.00  0.00    +0.224 C 
ATOM     19  O   UNL     1       5.238   8.291  -2.346  0.00  0.00    -0.275 OA
ATOM     20  H   UNL     1       7.914   8.944  -0.959  0.00  0.00    +0.155 HD
BRANCH  17  27
ATOM     21  C   UNL     1       9.597  10.316  -2.299  0.00  0.00    +0.045 C 
ATOM     22  C   UNL     1       8.889   9.499  -3.349  0.00  0.00    -0.029 A 
ATOM     23  C   UNL     1       9.347   9.502  -4.652  0.00  0.00    +0.005 A 
ATOM     24  C   UNL     1       8.698   8.753  -5.616  0.00  0.00    +0.000 A 
ATOM     25  C   UNL     1       7.588   7.999  -5.279  0.00  0.00    +0.002 A 
ATOM     26  C   UNL     1       7.129   7.988  -3.977  0.00  0.00    +0.023 A 
ATOM     27  C   UNL     1       7.775   8.744  -3.007  0.00  0.00    +0.036 A 
ENDBRANCH  17  27
ENDBRANCH  16  18
ENDBRANCH   1  16
TORSDOF 4
