REMARK  Name = ZINC12008851
REMARK  7 active torsions:
REMARK  status: ('A' for Active; 'I' for Inactive)
REMARK    1  A    between atoms: C_1  and  C_2
REMARK    2  A    between atoms: C_2  and  C_3
REMARK    3  A    between atoms: C_4  and  C_36
REMARK    4  A    between atoms: C_12  and  N_21
REMARK    5  A    between atoms: C_14  and  C_16
REMARK    6  A    between atoms: C_22  and  C_24
REMARK    7  A    between atoms: C_24  and  C_29
REMARK                            x       y       z     vdW  Elec       q    Type
REMARK                         _______ _______ _______ _____ _____    ______ ____
ROOT
ATOM      1  C   UNL     1      -4.353   3.187  -6.896  0.00  0.00    +0.038 A 
ATOM      2  C   UNL     1      -3.932   2.800  -5.657  0.00  0.00    +0.050 A 
ATOM      3  N   UNL     1      -2.650   2.924  -5.320  0.00  0.00    -0.217 NA
ATOM      4  C   UNL     1      -1.766   3.425  -6.155  0.00  0.00    +0.234 A 
ATOM      5  N   UNL     1      -2.126   3.827  -7.403  0.00  0.00    -0.291 N 
ATOM      6  H   UNL     1      -1.460   4.191  -8.008  0.00  0.00    +0.172 HD
ATOM      7  C   UNL     1      -3.413   3.719  -7.798  0.00  0.00    +0.256 A 
ATOM      8  O   UNL     1      -3.753   4.075  -8.914  0.00  0.00    -0.267 OA
ATOM      9  N   UNL     1      -0.447   3.539  -5.760  0.00  0.00    -0.184 N 
ATOM     10  C   UNL     1       0.061   3.179  -4.544  0.00  0.00    +0.132 A 
ATOM     11  C   UNL     1       1.391   3.445  -4.558  0.00  0.00    +0.077 A 
ATOM     12  C   UNL     1       1.709   3.991  -5.820  0.00  0.00    +0.130 A 
ATOM     13  N   UNL     1       0.603   4.048  -6.534  0.00  0.00    -0.159 NA
ATOM     14  C   UNL     1      -4.918   2.227  -4.672  0.00  0.00    +0.066 C 
ENDROOT
BRANCH  12  15
ATOM     15  C   UNL     1       3.050   4.425  -6.263  0.00  0.00    +0.155 A 
ATOM     16  C   UNL     1       3.358   4.946  -7.481  0.00  0.00    +0.051 A 
ATOM     17  C   UNL     1       4.741   5.218  -7.468  0.00  0.00    +0.042 A 
ATOM     18  C   UNL     1       5.205   4.846  -6.259  0.00  0.00    +0.196 A 
ATOM     19  O   UNL     1       4.181   4.367  -5.534  0.00  0.00    -0.461 OA
ENDBRANCH  12  15
BRANCH  10  20
ATOM     20  N   UNL     1      -0.657   2.631  -3.483  0.00  0.00    -0.269 N 
ATOM     21  C   UNL     1      -0.026   2.314  -2.335  0.00  0.00    +0.229 C 
ATOM     22  O   UNL     1       1.146   2.591  -2.191  0.00  0.00    -0.274 OA
ATOM     23  H   UNL     1      -1.611   2.477  -3.571  0.00  0.00    +0.156 HD
BRANCH  21  24
ATOM     24  C   UNL     1      -0.777   1.617  -1.230  0.00  0.00    +0.072 C 
ATOM     25  C   UNL     1       0.169   1.329  -0.051  0.00  0.00    +0.021 C 
ATOM     26  C   UNL     1      -0.404   2.082   1.168  0.00  0.00    +0.001 C 
ATOM     27  C   UNL     1      -1.254   3.219   0.546  0.00  0.00    +0.001 C 
ATOM     28  C   UNL     1      -1.892   2.534  -0.688  0.00  0.00    +0.021 C 
BRANCH  24  29
ATOM     29  C   UNL     1      -1.370   0.330  -1.742  0.00  0.00    -0.032 A 
ATOM     30  C   UNL     1      -2.249  -0.388  -0.952  0.00  0.00    +0.006 A 
ATOM     31  C   UNL     1      -2.799  -1.566  -1.423  0.00  0.00    +0.020 A 
ATOM     32  C   UNL     1      -2.460  -2.032  -2.680  0.00  0.00    +0.041 A 
ATOM     33  C   UNL     1      -1.576  -1.317  -3.468  0.00  0.00    +0.020 A 
ATOM     34  C   UNL     1      -1.031  -0.136  -2.998  0.00  0.00    +0.006 A 
ATOM     35 CL   UNL     1      -3.144  -3.515  -3.270  0.00  0.00    -0.084 Cl
ENDBRANCH  24  29
ENDBRANCH  21  24
ENDBRANCH  10  20
BRANCH   1  37
ATOM     36  C   UNL     1      -6.529   4.369  -7.036  0.00  0.00    +0.009 C 
ATOM     37  C   UNL     1      -5.801   3.047  -7.291  0.00  0.00    +0.039 C 
ENDBRANCH   1  37
TORSDOF 5
