REMARK  Name = ZINC32503507
REMARK  8 active torsions:
REMARK  status: ('A' for Active; 'I' for Inactive)
REMARK    1  A    between atoms: C_1  and  C_2
REMARK    2  A    between atoms: C_6  and  C_8
REMARK    3  A    between atoms: C_8  and  C_9
REMARK    4  A    between atoms: C_9  and  N_11
REMARK    5  A    between atoms: N_13  and  C_24
REMARK    6  A    between atoms: C_27  and  C_30
REMARK    7  A    between atoms: C_30  and  C_31
REMARK    8  A    between atoms: C_30  and  C_32
REMARK                            x       y       z     vdW  Elec       q    Type
REMARK                         _______ _______ _______ _____ _____    ______ ____
ROOT
ATOM      1  N   UNL     1       1.812  -3.093   4.131  0.00  0.00    -0.159 NA
ATOM      2  C   UNL     1       2.950  -3.721   4.406  0.00  0.00    +0.154 C 
ATOM      3  N   UNL     1       4.152  -3.637   3.696  0.00  0.00    -0.276 N 
ATOM      4  C   UNL     1       5.263  -3.761   4.591  0.00  0.00    +0.116 C 
ATOM      5  C   UNL     1       6.729  -3.788   4.201  0.00  0.00    +0.190 C 
ATOM      6  S   UNL     1       7.421  -4.229   5.867  0.00  0.00    -0.028 S 
ATOM      7  O   UNL     1       8.434  -5.213   5.704  0.00  0.00    -0.174 OA
ATOM      8  O   UNL     1       7.714  -3.034   6.578  0.00  0.00    -0.174 OA
ATOM      9  C   UNL     1       5.921  -5.021   6.607  0.00  0.00    +0.182 C 
ATOM     10  C   UNL     1       5.015  -5.112   5.365  0.00  0.00    +0.097 C 
ATOM     11  S   UNL     1       3.246  -4.783   5.692  0.00  0.00    -0.086 S 
ENDROOT
BRANCH   3  12
ATOM     12  C   UNL     1       4.254  -3.459   2.313  0.00  0.00    +0.036 A 
ATOM     13  C   UNL     1       4.713  -2.253   1.798  0.00  0.00    +0.024 A 
ATOM     14  C   UNL     1       4.813  -2.080   0.432  0.00  0.00    +0.006 A 
ATOM     15  C   UNL     1       4.457  -3.107  -0.424  0.00  0.00    -0.045 A 
ATOM     16  C   UNL     1       4.001  -4.309   0.085  0.00  0.00    +0.006 A 
ATOM     17  C   UNL     1       3.903  -4.489   1.450  0.00  0.00    +0.024 A 
BRANCH  15  18
ATOM     18  C   UNL     1       4.567  -2.915  -1.915  0.00  0.00    +0.013 C 
ATOM     19  C   UNL     1       5.532  -3.952  -2.493  0.00  0.00    +0.012 C 
ATOM     20  C   UNL     1       3.189  -3.089  -2.555  0.00  0.00    +0.012 C 
ENDBRANCH  15  18
ENDBRANCH   3  12
BRANCH   1  21
ATOM     21  C   UNL     1       1.699  -2.379   3.014  0.00  0.00    +0.243 C 
ATOM     22  O   UNL     1       1.955  -2.887   1.940  0.00  0.00    -0.273 OA
BRANCH  21  23
ATOM     23  C   UNL     1       1.253  -0.941   3.081  0.00  0.00    +0.133 C 
BRANCH  23  29
ATOM     24  C   UNL     1       3.505   1.449  -0.696  0.00  0.00    +0.044 C 
ATOM     25  C   UNL     1       2.285   0.780  -0.117  0.00  0.00    -0.050 A 
ATOM     26  C   UNL     1       1.124   0.695  -0.863  0.00  0.00    +0.003 A 
ATOM     27  C   UNL     1       0.005   0.081  -0.333  0.00  0.00    +0.001 A 
ATOM     28  C   UNL     1       0.047  -0.449   0.944  0.00  0.00    +0.004 A 
ATOM     29  C   UNL     1       1.208  -0.364   1.689  0.00  0.00    -0.038 A 
ATOM     30  C   UNL     1       2.328   0.246   1.157  0.00  0.00    +0.007 A 
ENDBRANCH  23  29
ENDBRANCH  21  23
ENDBRANCH   1  21
TORSDOF 5
