REMARK  Name = ZINC66981791
REMARK  9 active torsions:
REMARK  status: ('A' for Active; 'I' for Inactive)
REMARK    1  A    between atoms: C_1  and  C_2
REMARK    2  A    between atoms: C_5  and  C_30
REMARK    3  A    between atoms: N_8  and  C_10
REMARK    4  A    between atoms: C_10  and  C_11
REMARK    5  A    between atoms: C_11  and  C_13
REMARK    6  A    between atoms: C_11  and  N_14
REMARK    7  A    between atoms: N_17  and  C_18
REMARK    8  A    between atoms: C_20  and  N_26
REMARK    9  A    between atoms: C_27  and  C_29
REMARK                            x       y       z     vdW  Elec       q    Type
REMARK                         _______ _______ _______ _____ _____    ______ ____
ROOT
ATOM      1  N   UNL     1       3.517  -2.474   0.986  0.00  0.00    -0.298 N 
ATOM      2  C   UNL     1       4.551  -1.840   0.399  0.00  0.00    +0.304 C 
ATOM      3  O   UNL     1       5.054  -0.871   0.935  0.00  0.00    -0.253 OA
ATOM      4  N   UNL     1       5.029  -2.280  -0.782  0.00  0.00    -0.267 N 
ATOM      5  H   UNL     1       3.116  -3.247   0.559  0.00  0.00    +0.150 HD
ATOM      6  H   UNL     1       4.683  -3.099  -1.170  0.00  0.00    +0.156 HD
ENDROOT
BRANCH   4   7
ATOM      7  C   UNL     1       6.025  -1.554  -1.450  0.00  0.00    +0.072 A 
ATOM      8  C   UNL     1       6.165  -0.194  -1.218  0.00  0.00    +0.052 A 
ATOM      9  C   UNL     1       7.152   0.522  -1.879  0.00  0.00    +0.071 A 
ATOM     10  C   UNL     1       7.998  -0.125  -2.773  0.00  0.00    +0.147 A 
ATOM     11  C   UNL     1       7.857  -1.481  -3.002  0.00  0.00    +0.080 A 
ATOM     12  C   UNL     1       6.877  -2.198  -2.339  0.00  0.00    +0.147 A 
ATOM     13  F   UNL     1       6.744  -3.524  -2.561  0.00  0.00    -0.203 F 
ATOM     14  F   UNL     1       8.960   0.572  -3.417  0.00  0.00    -0.203 F 
BRANCH   9  15
ATOM     15  N   UNL     1       7.295   1.897  -1.648  0.00  0.00    -0.283 N 
ATOM     16  C   UNL     1       6.244   2.621  -1.217  0.00  0.00    +0.214 C 
ATOM     17  O   UNL     1       5.149   2.106  -1.126  0.00  0.00    -0.276 OA
ATOM     18  C   UNL     1       6.427   4.071  -0.847  0.00  0.00    +0.109 C 
ATOM     19  H   UNL     1       8.152   2.328  -1.798  0.00  0.00    +0.155 HD
ENDBRANCH   9  15
ENDBRANCH   4   7
BRANCH   1  20
ATOM     20  C   UNL     1       2.998  -1.996   2.270  0.00  0.00    +0.055 C 
ATOM     21  C   UNL     1       3.823  -2.598   3.410  0.00  0.00    +0.026 C 
BRANCH  20  22
ATOM     22  C   UNL     1       1.536  -2.422   2.420  0.00  0.00    -0.057 C 
BRANCH  22  28
ATOM     23  C   UNL     1       0.009   1.556   0.008  0.00  0.00    +0.005 C 
ATOM     24  C   UNL     1       0.023   0.025   0.010  0.00  0.00    -0.031 C 
ATOM     25  C   UNL     1      -1.416  -0.499   0.022  0.00  0.00    +0.003 C 
ATOM     26  C   UNL     1      -1.391  -2.028   0.104  0.00  0.00    -0.031 C 
ATOM     27  C   UNL     1      -0.607  -2.454   1.347  0.00  0.00    -0.076 C 
ATOM     28  N   UNL     1       0.767  -1.945   1.263  0.00  0.00    +0.381 N 
ATOM     29  C   UNL     1       0.755  -0.477   1.256  0.00  0.00    -0.076 C 
ATOM     30  C   UNL     1      -2.823  -2.558   0.195  0.00  0.00    +0.005 C 
ATOM     31  H   UNL     1       1.197  -2.280   0.414  0.00  0.00    -0.082 HD
ENDBRANCH  22  28
ENDBRANCH  20  22
ENDBRANCH   1  20
TORSDOF 5
