REMARK  Name = ZINC43534473
REMARK  4 active torsions:
REMARK  status: ('A' for Active; 'I' for Inactive)
REMARK    1  A    between atoms: C_1  and  C_2
REMARK    2  A    between atoms: C_2  and  C_20
REMARK    3  A    between atoms: C_8  and  O_11
REMARK    4  A    between atoms: O_11  and  C_12
REMARK                            x       y       z     vdW  Elec       q    Type
REMARK                         _______ _______ _______ _____ _____    ______ ____
ROOT
ATOM      1  C   UNL     1       0.329   1.657  -0.213  0.00  0.00    +0.056 C 
ATOM      2  C   UNL     1       0.261   0.129  -0.206  0.00  0.00    +0.109 C 
ATOM      3  C   UNL     1       1.139  -0.464  -1.334  0.00  0.00    +0.086 C 
ATOM      4  C   UNL     1       2.453  -0.704  -0.615  0.00  0.00    +0.002 A 
ATOM      5  C   UNL     1       3.728  -0.954  -1.078  0.00  0.00    +0.007 A 
ATOM      6  C   UNL     1       4.767  -1.131  -0.183  0.00  0.00    +0.004 A 
ATOM      7  C   UNL     1       4.525  -1.058   1.176  0.00  0.00    +0.050 A 
ATOM      8  C   UNL     1       3.246  -0.811   1.644  0.00  0.00    +0.172 A 
ATOM      9  C   UNL     1       2.192  -0.634   0.745  0.00  0.00    +0.167 A 
ATOM     10  O   UNL     1       0.871  -0.403   0.983  0.00  0.00    -0.482 OA
ATOM     11  C   UNL     1      -1.187  -0.349  -0.333  0.00  0.00    +0.056 C 
ENDROOT
BRANCH   8  12
ATOM     12  O   UNL     1       3.016  -0.741   2.983  0.00  0.00    -0.434 OA
BRANCH  12  13
ATOM     13  C   UNL     1       2.599  -1.864   3.616  0.00  0.00    +0.226 A 
ATOM     14  C   UNL     1       2.332  -1.846   4.984  0.00  0.00    +0.107 A 
ATOM     15  C   UNL     1       1.908  -3.016   5.589  0.00  0.00    +0.138 A 
ATOM     16  N   UNL     1       1.770  -4.111   4.856  0.00  0.00    -0.203 NA
ATOM     17  C   UNL     1       2.031  -4.097   3.557  0.00  0.00    +0.217 A 
ATOM     18  N   UNL     1       2.434  -2.996   2.941  0.00  0.00    -0.179 NA
ATOM     19  N   UNL     1       1.875  -5.261   2.825  0.00  0.00    -0.327 N 
ATOM     20 CL   UNL     1       1.562  -3.049   7.290  0.00  0.00    -0.062 Cl
ATOM     21  H   UNL     1       1.578  -6.074   3.263  0.00  0.00    +0.145 HD
ATOM     22  H   UNL     1       2.064  -5.264   1.873  0.00  0.00    +0.145 HD
ENDBRANCH  12  13
ENDBRANCH   8  12
TORSDOF 2
