REMARK  Name = ZINC02251340
REMARK  5 active torsions:
REMARK  status: ('A' for Active; 'I' for Inactive)
REMARK    1  A    between atoms: C_1  and  C_2
REMARK    2  A    between atoms: C_5  and  C_8
REMARK    3  A    between atoms: C_19  and  C_21
REMARK    4  A    between atoms: C_33  and  S_35
REMARK    5  A    between atoms: S_35  and  C_36
REMARK                            x       y       z     vdW  Elec       q    Type
REMARK                         _______ _______ _______ _____ _____    ______ ____
ROOT
ATOM      1  C   UNL     1       0.035  -4.173  -0.182  0.00  0.00    +0.172 C 
ATOM      2  C   UNL     1      -1.120  -4.749   0.598  0.00  0.00    +0.025 C 
ATOM      3  C   UNL     1      -0.962  -5.308   1.799  0.00  0.00    +0.050 C 
ATOM      4  C   UNL     1      -2.160  -5.829   2.499  0.00  0.00    +0.039 A 
ATOM      5  C   UNL     1      -2.051  -6.704   3.574  0.00  0.00    +0.033 A 
ATOM      6  C   UNL     1      -3.196  -7.163   4.197  0.00  0.00    +0.042 A 
ATOM      7  C   UNL     1      -4.444  -6.756   3.754  0.00  0.00    +0.023 A 
ATOM      8  C   UNL     1      -4.560  -5.886   2.685  0.00  0.00    +0.048 A 
ATOM      9  C   UNL     1      -3.423  -5.418   2.053  0.00  0.00    +0.131 A 
ATOM     10  O   UNL     1      -3.496  -4.565   1.000  0.00  0.00    -0.479 OA
ATOM     11  C   UNL     1      -2.501  -4.699  -0.015  0.00  0.00    +0.237 C 
ATOM     12 CL   UNL     1      -3.070  -8.257   5.539  0.00  0.00    -0.084 Cl
ATOM     13  N   UNL     1       0.293  -5.423   2.409  0.00  0.00    -0.283 N 
ATOM     14  C   UNL     1       1.408  -5.184   1.621  0.00  0.00    +0.220 A 
ATOM     15  N   UNL     1       1.299  -4.603   0.404  0.00  0.00    -0.220 N 
ATOM     16  N   UNL     1       2.593  -4.521  -0.110  0.00  0.00    -0.141 NA
ATOM     17  C   UNL     1       3.395  -5.036   0.797  0.00  0.00    +0.210 A 
ATOM     18  N   UNL     1       2.670  -5.434   1.843  0.00  0.00    -0.187 NA
ATOM     19  H   UNL     1       0.379  -5.659   3.345  0.00  0.00    +0.155 HD
ENDROOT
BRANCH   1  24
ATOM     20  C   UNL     1      -0.268   1.597  -0.065  0.00  0.00    +0.044 C 
ATOM     21  C   UNL     1      -0.189   0.092  -0.095  0.00  0.00    -0.050 A 
ATOM     22  C   UNL     1      -0.237  -0.578  -1.303  0.00  0.00    +0.004 A 
ATOM     23  C   UNL     1      -0.165  -1.958  -1.332  0.00  0.00    +0.006 A 
ATOM     24  C   UNL     1      -0.043  -2.668  -0.152  0.00  0.00    -0.019 A 
ATOM     25  C   UNL     1       0.006  -1.998   1.056  0.00  0.00    +0.006 A 
ATOM     26  C   UNL     1      -0.063  -0.617   1.084  0.00  0.00    +0.004 A 
ENDBRANCH   1  24
BRANCH  11  27
ATOM     27  C   UNL     1      -2.748  -5.969  -0.788  0.00  0.00    +0.032 A 
ATOM     28  C   UNL     1      -3.399  -7.030  -0.186  0.00  0.00    +0.010 A 
ATOM     29  C   UNL     1      -3.625  -8.194  -0.895  0.00  0.00    +0.001 A 
ATOM     30  C   UNL     1      -3.201  -8.300  -2.207  0.00  0.00    +0.003 A 
ATOM     31  C   UNL     1      -2.551  -7.241  -2.811  0.00  0.00    +0.039 A 
ATOM     32  C   UNL     1      -2.328  -6.072  -2.103  0.00  0.00    +0.130 A 
ATOM     33  F   UNL     1      -1.697  -5.034  -2.694  0.00  0.00    -0.205 F 
ENDBRANCH  11  27
BRANCH  17  34
ATOM     34  S   UNL     1       5.145  -5.177   0.654  0.00  0.00    -0.088 S 
ATOM     35  C   UNL     1       5.651  -5.957   2.212  0.00  0.00    +0.093 C 
ENDBRANCH  17  34
TORSDOF 3
