REMARK  Name = ZINC63228849
REMARK  6 active torsions:
REMARK  status: ('A' for Active; 'I' for Inactive)
REMARK    1  A    between atoms: C_1  and  C_2
REMARK    2  A    between atoms: C_9  and  C_14
REMARK    3  A    between atoms: N_16  and  C_17
REMARK    4  A    between atoms: C_17  and  C_18
REMARK    5  A    between atoms: C_18  and  C_20
REMARK    6  A    between atoms: C_18  and  C_27
REMARK                            x       y       z     vdW  Elec       q    Type
REMARK                         _______ _______ _______ _____ _____    ______ ____
ROOT
ATOM      1  C   UNL     1       8.929   0.924   0.578  0.00  0.00    +0.117 C 
ENDROOT
BRANCH   1   4
ATOM      2  C   UNL     1       6.624   0.407  -0.018  0.00  0.00    +0.244 C 
ATOM      3  O   UNL     1       6.963   0.377  -1.185  0.00  0.00    -0.270 OA
ATOM      4  N   UNL     1       7.532   0.673   0.942  0.00  0.00    -0.310 N 
ATOM      5  H   UNL     1       7.261   0.697   1.873  0.00  0.00    +0.149 HD
BRANCH   2  13
ATOM      6  C   UNL     1      -0.019   1.526   0.010  0.00  0.00    +0.029 C 
ATOM      7  C   UNL     1       0.002  -0.004   0.002  0.00  0.00    +0.134 C 
ATOM      8  C   UNL     1       0.712  -0.492  -1.231  0.00  0.00    +0.230 C 
ATOM      9  O   UNL     1       0.043  -0.768  -2.205  0.00  0.00    -0.274 OA
ATOM     10  N   UNL     1       2.031  -0.636  -1.313  0.00  0.00    -0.284 N 
ATOM     11  C   UNL     1       2.955  -0.360  -0.308  0.00  0.00    +0.048 A 
ATOM     12  C   UNL     1       4.277  -0.121  -0.647  0.00  0.00    +0.037 A 
ATOM     13  C   UNL     1       5.218   0.154   0.348  0.00  0.00    +0.039 A 
ATOM     14  C   UNL     1       4.829   0.189   1.691  0.00  0.00    +0.014 A 
ATOM     15  C   UNL     1       3.514  -0.047   2.029  0.00  0.00    +0.017 A 
ATOM     16  C   UNL     1       2.579  -0.318   1.039  0.00  0.00    +0.030 A 
ATOM     17  S   UNL     1       0.888  -0.610   1.470  0.00  0.00    -0.111 S 
ATOM     18  H   UNL     1       2.385  -0.967  -2.154  0.00  0.00    +0.155 HD
ENDBRANCH   2  13
ENDBRANCH   1   4
BRANCH   1  19
ATOM     19  C   UNL     1       9.744   1.197   1.844  0.00  0.00    +0.066 C 
BRANCH  19  20
ATOM     20  C   UNL     1      11.201   1.334   1.483  0.00  0.00    -0.033 C 
ATOM     21  C   UNL     1      12.224   0.569   1.927  0.00  0.00    -0.000 A 
ATOM     22  C   UNL     1      12.285  -0.575   2.844  0.00  0.00    +0.010 A 
ATOM     23  C   UNL     1      13.483  -1.146   3.102  0.00  0.00    +0.001 A 
ATOM     24  C   UNL     1      14.666  -0.674   2.517  0.00  0.00    +0.002 A 
ATOM     25  C   UNL     1      14.691   0.373   1.665  0.00  0.00    +0.026 A 
ATOM     26  C   UNL     1      13.487   1.049   1.322  0.00  0.00    +0.043 A 
ATOM     27  N   UNL     1      13.254   2.071   0.535  0.00  0.00    -0.380 N 
ATOM     28  C   UNL     1      11.814   2.351   0.547  0.00  0.00    +0.145 C 
ATOM     29  H   UNL     1      13.921   2.558   0.026  0.00  0.00    +0.160 HD
ENDBRANCH  19  20
BRANCH  19  30
ATOM     30  C   UNL     1       9.263   2.473   2.486  0.00  0.00    -0.020 A 
ATOM     31  C   UNL     1       9.318   3.663   1.785  0.00  0.00    +0.006 A 
ATOM     32  C   UNL     1       8.877   4.833   2.374  0.00  0.00    +0.000 A 
ATOM     33  C   UNL     1       8.381   4.814   3.664  0.00  0.00    +0.001 A 
ATOM     34  C   UNL     1       8.325   3.624   4.366  0.00  0.00    +0.020 A 
ATOM     35  C   UNL     1       8.761   2.452   3.775  0.00  0.00    +0.045 A 
ATOM     36 CL   UNL     1       8.686   0.956   4.654  0.00  0.00    -0.083 Cl
ENDBRANCH  19  30
ENDBRANCH   1  19
TORSDOF 5
