REMARK  Name = ZINC09726591
REMARK  7 active torsions:
REMARK  status: ('A' for Active; 'I' for Inactive)
REMARK    1  A    between atoms: C_1  and  C_2
REMARK    2  A    between atoms: C_5  and  S_27
REMARK    3  A    between atoms: C_7  and  N_8
REMARK    4  A    between atoms: C_9  and  C_11
REMARK    5  A    between atoms: C_11  and  N_68
REMARK    6  A    between atoms: C_15  and  C_17
REMARK    7  A    between atoms: S_27  and  N_30
REMARK                            x       y       z     vdW  Elec       q    Type
REMARK                         _______ _______ _______ _____ _____    ______ ____
ROOT
ATOM      1  N   UNL     1       4.150   2.847   4.457  0.00  0.00    -0.287 N 
ATOM      2  C   UNL     1       4.152   2.708   3.116  0.00  0.00    +0.201 C 
ATOM      3  O   UNL     1       4.862   1.874   2.594  0.00  0.00    -0.278 OA
ATOM      4  H   UNL     1       3.645   3.566   4.869  0.00  0.00    +0.155 HD
ENDROOT
BRANCH   1  11
ATOM      5  C   UNL     1       5.015   3.735   7.018  0.00  0.00    +0.045 C 
ATOM      6  C   UNL     1       5.319   2.349   6.511  0.00  0.00    -0.029 A 
ATOM      7  C   UNL     1       6.031   1.465   7.298  0.00  0.00    +0.007 A 
ATOM      8  C   UNL     1       6.315   0.195   6.830  0.00  0.00    +0.029 A 
ATOM      9  C   UNL     1       5.882  -0.196   5.577  0.00  0.00    +0.107 A 
ATOM     10  C   UNL     1       5.164   0.680   4.787  0.00  0.00    +0.052 A 
ATOM     11  C   UNL     1       4.877   1.957   5.254  0.00  0.00    +0.038 A 
BRANCH   9  12
ATOM     12  S   UNL     1       6.247  -1.816   4.986  0.00  0.00    +0.061 S 
ATOM     13  O   UNL     1       6.461  -2.628   6.132  0.00  0.00    -0.153 OA
ATOM     14  O   UNL     1       5.264  -2.122   4.007  0.00  0.00    -0.153 OA
BRANCH  12  15
ATOM     15  N   UNL     1       7.697  -1.731   4.189  0.00  0.00    -0.177 NA
ATOM     16  C   UNL     1       7.744  -1.442   2.749  0.00  0.00    +0.109 C 
ATOM     17  C   UNL     1       8.682  -0.247   2.521  0.00  0.00    +0.017 C 
ATOM     18  C   UNL     1      10.046  -0.550   3.146  0.00  0.00    +0.003 C 
ATOM     19  C   UNL     1       9.884  -0.754   4.654  0.00  0.00    +0.017 C 
ATOM     20  C   UNL     1       8.960  -1.949   4.908  0.00  0.00    +0.109 C 
ENDBRANCH  12  15
ENDBRANCH   9  12
ENDBRANCH   1  11
BRANCH   2  21
ATOM     21  C   UNL     1       3.272   3.587   2.266  0.00  0.00    +0.020 C 
BRANCH  21  26
ATOM     22  C   UNL     1       4.753   3.752   0.337  0.00  0.00    -0.077 C 
ATOM     23  C   UNL     1       4.572   3.809  -1.196  0.00  0.00    -0.020 C 
ATOM     24  C   UNL     1       3.049   3.914  -1.416  0.00  0.00    -0.013 C 
ATOM     25  C   UNL     1       2.437   3.912   0.001  0.00  0.00    -0.037 C 
ATOM     26  N   UNL     1       3.464   3.256   0.818  0.00  0.00    +0.390 N 
ATOM     27  H   UNL     1       3.414   2.238   0.695  0.00  0.00    -0.080 HD
BRANCH  25  28
ATOM     28  C   UNL     1       1.146   3.136   0.015  0.00  0.00    -0.057 A 
ATOM     29  C   UNL     1       1.171   1.754   0.010  0.00  0.00    +0.006 A 
ATOM     30  C   UNL     1      -0.011   1.038   0.022  0.00  0.00    +0.049 A 
ATOM     31  C   UNL     1      -1.227   1.706   0.034  0.00  0.00    +0.162 A 
ATOM     32  C   UNL     1      -1.253   3.095   0.047  0.00  0.00    +0.162 A 
ATOM     33  C   UNL     1      -0.062   3.807   0.034  0.00  0.00    +0.051 A 
ATOM     34  O   UNL     1      -2.434   3.770   0.073  0.00  0.00    -0.485 OA
ATOM     35  C   UNL     1      -3.604   3.030  -0.307  0.00  0.00    +0.270 C 
ATOM     36  C   UNL     1      -3.572   1.683   0.426  0.00  0.00    +0.270 C 
ATOM     37  O   UNL     1      -2.383   0.988   0.034  0.00  0.00    -0.485 OA
ENDBRANCH  25  28
ENDBRANCH  21  26
ENDBRANCH   2  21
TORSDOF 6
