REMARK  Name = ZINC01962924
REMARK  8 active torsions:
REMARK  status: ('A' for Active; 'I' for Inactive)
REMARK    1  A    between atoms: C_1  and  C_2
REMARK    2  A    between atoms: C_5  and  C_32
REMARK    3  A    between atoms: C_6  and  N_8
REMARK    4  A    between atoms: C_9  and  C_11
REMARK    5  A    between atoms: C_11  and  O_12
REMARK    6  A    between atoms: O_12  and  C_13
REMARK    7  A    between atoms: C_21  and  O_24
REMARK    8  A    between atoms: O_24  and  C_25
REMARK                            x       y       z     vdW  Elec       q    Type
REMARK                         _______ _______ _______ _____ _____    ______ ____
ROOT
ATOM      1  C   UNL     1      -0.271   1.730   0.052  0.00  0.00    +0.125 A 
ATOM      2  C   UNL     1      -1.511   2.368   0.048  0.00  0.00    +0.046 A 
ATOM      3  C   UNL     1      -1.586   3.731   0.045  0.00  0.00    +0.019 A 
ATOM      4  C   UNL     1      -0.414   4.489   0.036  0.00  0.00    +0.068 A 
ATOM      5  C   UNL     1       0.841   3.855   0.035  0.00  0.00    +0.142 A 
ATOM      6  C   UNL     1       0.900   2.468   0.043  0.00  0.00    +0.092 A 
ATOM      7  O   UNL     1       1.966   4.597   0.025  0.00  0.00    -0.459 OA
ATOM      8  C   UNL     1       1.943   5.936   0.018  0.00  0.00    +0.245 A 
ATOM      9  C   UNL     1       0.796   6.646   0.019  0.00  0.00    +0.210 A 
ATOM     10  C   UNL     1      -0.453   5.962   0.028  0.00  0.00    +0.234 A 
ATOM     11  O   UNL     1      -1.510   6.569   0.029  0.00  0.00    -0.283 OA
ENDROOT
BRANCH   1  12
ATOM     12  O   UNL     1      -0.212   0.374   0.059  0.00  0.00    -0.483 OA
BRANCH  12  13
ATOM     13  C   UNL     1      -1.456  -0.329   0.069  0.00  0.00    +0.324 C 
BRANCH  13  15
ATOM     14  N   UNL     1      -2.226  -2.680   0.086  0.00  0.00    -0.282 N 
ATOM     15  C   UNL     1      -1.194  -1.813   0.076  0.00  0.00    +0.255 C 
ATOM     16  O   UNL     1      -0.054  -2.228   0.074  0.00  0.00    -0.272 OA
ATOM     17  H   UNL     1      -3.135  -2.351   0.169  0.00  0.00    +0.155 HD
BRANCH  14  23
ATOM     18  C   UNL     1       0.665  -6.366  -1.407  0.00  0.00    +0.044 C 
ATOM     19  C   UNL     1      -0.593  -5.868  -0.743  0.00  0.00    -0.049 A 
ATOM     20  C   UNL     1      -1.514  -6.771  -0.244  0.00  0.00    +0.004 A 
ATOM     21  C   UNL     1      -2.670  -6.319   0.365  0.00  0.00    +0.005 A 
ATOM     22  C   UNL     1      -2.909  -4.963   0.476  0.00  0.00    -0.029 A 
ATOM     23  C   UNL     1      -1.987  -4.054  -0.025  0.00  0.00    +0.037 A 
ATOM     24  C   UNL     1      -0.829  -4.512  -0.641  0.00  0.00    +0.027 A 
ATOM     25  C   UNL     1      -4.169  -4.471   1.140  0.00  0.00    +0.045 C 
ENDBRANCH  14  23
ENDBRANCH  13  15
ENDBRANCH  12  13
ENDBRANCH   1  12
BRANCH   9  26
ATOM     26  O   UNL     1       0.832   8.006   0.011  0.00  0.00    -0.448 OA
BRANCH  26  27
ATOM     27  C   UNL     1       2.043   8.612  -0.104  0.00  0.00    +0.143 A 
ATOM     28  C   UNL     1       2.682   9.108   1.023  0.00  0.00    +0.047 A 
ATOM     29  C   UNL     1       3.916   9.719   0.904  0.00  0.00    +0.004 A 
ATOM     30  C   UNL     1       4.510   9.845  -0.339  0.00  0.00    +0.001 A 
ATOM     31  C   UNL     1       3.873   9.356  -1.465  0.00  0.00    +0.019 A 
ATOM     32  C   UNL     1       2.641   8.739  -1.351  0.00  0.00    +0.060 A 
ATOM     33 BR   UNL     1       1.771   8.070  -2.891  0.00  0.00    -0.046 Br
ENDBRANCH  26  27
ENDBRANCH   9  26
TORSDOF 6
