REMARK  Name = ZINC21325573
REMARK  11 active torsions:
REMARK  status: ('A' for Active; 'I' for Inactive)
REMARK    1  A    between atoms: C_1  and  C_2
REMARK    2  A    between atoms: C_5  and  C_8
REMARK    3  A    between atoms: C_8  and  C_10
REMARK    4  A    between atoms: C_10  and  S_11
REMARK    5  A    between atoms: S_11  and  C_12
REMARK    6  A    between atoms: N_16  and  N_17
REMARK    7  A    between atoms: N_18  and  N_19
REMARK    8  A    between atoms: C_20  and  C_21
REMARK    9  A    between atoms: C_26  and  O_27
REMARK   10  A    between atoms: O_27  and  C_28
REMARK   11  A    between atoms: C_28  and  C_29
REMARK                            x       y       z     vdW  Elec       q    Type
REMARK                         _______ _______ _______ _____ _____    ______ ____
ROOT
ATOM      1  C   UNL     1       1.225   1.846   0.065  0.00  0.00    +0.210 A 
ATOM      2  N   UNL     1       2.015   0.801   0.136  0.00  0.00    -0.119 NA
ATOM      3  N   UNL     1       1.214  -0.348   0.135  0.00  0.00    -0.109 NA
ATOM      4  C   UNL     1      -0.039   0.031   0.064  0.00  0.00    +0.254 A 
ATOM      5  N   UNL     1      -0.065   1.397   0.018  0.00  0.00    -0.211 N 
ATOM      6  N   UNL     1      -1.145  -0.807   0.038  0.00  0.00    -0.204 N 
ATOM      7  H   UNL     1      -2.158  -0.380   0.062  0.00  0.00    +0.177 HD
ENDROOT
BRANCH   5   8
ATOM      8  N   UNL     1      -1.183   2.177  -0.066  0.00  0.00    -0.294 N 
ATOM      9  H   UNL     1      -2.178   1.709  -0.098  0.00  0.00    +0.163 HD
ATOM     10  H   UNL     1      -1.089   3.272  -0.102  0.00  0.00    +0.163 HD
ENDBRANCH   5   8
BRANCH   6  11
ATOM     11  N   UNL     1      -0.970  -2.196  -0.017  0.00  0.00    -0.187 NA
ATOM     12  C   UNL     1      -2.001  -2.975  -0.140  0.00  0.00    +0.142 C 
BRANCH  12  13
ATOM     13  C   UNL     1      -1.829  -4.438  -0.086  0.00  0.00    +0.036 A 
ATOM     14  C   UNL     1      -0.549  -4.993  -0.020  0.00  0.00    +0.013 A 
ATOM     15  C   UNL     1      -0.396  -6.362   0.036  0.00  0.00    +0.001 A 
ATOM     16  C   UNL     1      -1.505  -7.190   0.015  0.00  0.00    +0.004 A 
ATOM     17  C   UNL     1      -2.777  -6.654  -0.057  0.00  0.00    +0.046 A 
ATOM     18  C   UNL     1      -2.949  -5.280  -0.108  0.00  0.00    +0.130 A 
BRANCH  18  19
ATOM     19  O   UNL     1      -4.199  -4.752  -0.178  0.00  0.00    -0.487 OA
BRANCH  19  20
ATOM     20  C   UNL     1      -5.295  -5.664  -0.085  0.00  0.00    +0.266 C 
BRANCH  20  21
ATOM     21  C   UNL     1      -6.591  -4.906  -0.213  0.00  0.00    +0.008 A 
ATOM     22  C   UNL     1      -6.576  -3.555  -0.504  0.00  0.00    +0.008 A 
ATOM     23  C   UNL     1      -7.765  -2.861  -0.626  0.00  0.00    +0.000 A 
ATOM     24  C   UNL     1      -8.970  -3.515  -0.448  0.00  0.00    +0.001 A 
ATOM     25  C   UNL     1      -8.986  -4.865  -0.151  0.00  0.00    +0.020 A 
ATOM     26  C   UNL     1      -7.796  -5.561  -0.034  0.00  0.00    +0.047 A 
ATOM     27 CL   UNL     1      -7.816  -7.257   0.339  0.00  0.00    -0.083 Cl
ENDBRANCH  20  21
ENDBRANCH  19  20
ENDBRANCH  18  19
ENDBRANCH  12  13
ENDBRANCH   6  11
BRANCH   1  28
ATOM     28  S   UNL     1       1.737   3.531   0.033  0.00  0.00    -0.076 S 
BRANCH  28  29
ATOM     29  C   UNL     1       3.546   3.442   0.123  0.00  0.00    +0.157 C 
BRANCH  29  30
ATOM     30  C   UNL     1       4.120   4.836   0.104  0.00  0.00    +0.173 C 
ATOM     31  O   UNL     1       3.380   5.795   0.037  0.00  0.00    -0.291 OA
BRANCH  30  36
ATOM     32  C   UNL     1       9.811   5.606   0.351  0.00  0.00    +0.044 C 
ATOM     33  C   UNL     1       8.319   5.404   0.286  0.00  0.00    -0.050 A 
ATOM     34  C   UNL     1       7.479   6.501   0.209  0.00  0.00    +0.004 A 
ATOM     35  C   UNL     1       6.112   6.325   0.150  0.00  0.00    +0.011 A 
ATOM     36  C   UNL     1       5.577   5.033   0.167  0.00  0.00    +0.018 A 
ATOM     37  C   UNL     1       6.432   3.930   0.250  0.00  0.00    +0.011 A 
ATOM     38  C   UNL     1       7.797   4.123   0.304  0.00  0.00    +0.004 A 
ENDBRANCH  30  36
ENDBRANCH  29  30
ENDBRANCH  28  29
ENDBRANCH   1  28
TORSDOF 10
