REMARK  Name = ZINC39597898
REMARK  6 active torsions:
REMARK  status: ('A' for Active; 'I' for Inactive)
REMARK    1  A    between atoms: C_7  and  C_10
REMARK    2  A    between atoms: C_10  and  C_11
REMARK    3  A    between atoms: C_11  and  N_12
REMARK    4  A    between atoms: C_13  and  C_15
REMARK    5  A    between atoms: C_26  and  C_28
REMARK    6  A    between atoms: C_31  and  C_33
REMARK                            x       y       z     vdW  Elec       q    Type
REMARK                         _______ _______ _______ _____ _____    ______ ____
ROOT
ATOM      1  C   UNL     1      -5.660   7.126  -2.507  0.00  0.00    +0.100 C 
ATOM      2  C   UNL     1      -7.142   7.129  -2.069  0.00  0.00    +0.121 C 
ATOM      3  N   UNL     1      -7.777   8.176  -2.903  0.00  0.00    -0.294 N 
ATOM      4  C   UNL     1      -7.147   8.018  -4.236  0.00  0.00    +0.115 C 
ATOM      5  C   UNL     1      -5.668   7.709  -3.930  0.00  0.00    -0.004 C 
ATOM      6  C   UNL     1      -5.127   6.686  -4.924  0.00  0.00    -0.010 C 
ATOM      7  C   UNL     1      -5.089   7.309  -6.322  0.00  0.00    -0.082 C 
ATOM      8  N   UNL     1      -4.235   8.503  -6.305  0.00  0.00    +0.379 N 
ATOM      9  C   UNL     1      -4.814   9.519  -5.417  0.00  0.00    -0.082 C 
ATOM     10  C   UNL     1      -4.840   8.989  -3.981  0.00  0.00    -0.010 C 
ATOM     11  C   UNL     1      -8.715   9.071  -2.534  0.00  0.00    +0.282 C 
ATOM     12  O   UNL     1      -9.141   9.875  -3.343  0.00  0.00    -0.267 OA
ATOM     13  H   UNL     1      -3.316   8.253  -5.973  0.00  0.00    -0.086 HD
ATOM     14  H   UNL     1      -4.163   8.877  -7.239  0.00  0.00    -0.086 HD
ENDROOT
BRANCH  11  15
ATOM     15  C   UNL     1      -9.221   9.076  -1.159  0.00  0.00    +0.190 A 
ATOM     16  C   UNL     1     -10.178   9.928  -0.653  0.00  0.00    +0.055 A 
ATOM     17  C   UNL     1     -10.356   9.582   0.690  0.00  0.00    +0.050 A 
ATOM     18  C   UNL     1      -9.509   8.543   0.953  0.00  0.00    +0.136 A 
ATOM     19  O   UNL     1      -8.835   8.243  -0.170  0.00  0.00    -0.450 OA
BRANCH  18  20
ATOM     20  C   UNL     1      -9.364   7.860   2.254  0.00  0.00    +0.017 A 
ATOM     21  C   UNL     1     -10.134   8.261   3.347  0.00  0.00    +0.014 A 
ATOM     22  C   UNL     1      -9.995   7.619   4.559  0.00  0.00    +0.039 A 
ATOM     23  C   UNL     1      -9.091   6.576   4.693  0.00  0.00    +0.123 A 
ATOM     24  C   UNL     1      -8.323   6.174   3.612  0.00  0.00    +0.039 A 
ATOM     25  C   UNL     1      -8.459   6.805   2.394  0.00  0.00    +0.014 A 
ATOM     26  F   UNL     1      -8.958   5.950   5.883  0.00  0.00    -0.205 F 
ENDBRANCH  18  20
ENDBRANCH  11  15
BRANCH   1  28
ATOM     27  N   UNL     1      -3.808   5.499  -2.300  0.00  0.00    -0.315 N 
ATOM     28  C   UNL     1      -5.120   5.719  -2.519  0.00  0.00    +0.218 C 
ATOM     29  O   UNL     1      -5.865   4.785  -2.727  0.00  0.00    -0.275 OA
ATOM     30  H   UNL     1      -3.212   6.246  -2.135  0.00  0.00    +0.149 HD
BRANCH  27  31
ATOM     31  C   UNL     1      -3.283   4.132  -2.313  0.00  0.00    +0.109 C 
BRANCH  31  32
ATOM     32  C   UNL     1      -1.778   4.161  -2.039  0.00  0.00    +0.056 C 
BRANCH  32  39
ATOM     33  C   UNL     1      -0.299   1.323  -5.465  0.00  0.00    +0.001 A 
ATOM     34  C   UNL     1       0.121   0.086  -4.998  0.00  0.00    +0.002 A 
ATOM     35  C   UNL     1       0.081  -0.209  -3.653  0.00  0.00    +0.026 A 
ATOM     36  C   UNL     1      -0.386   0.742  -2.752  0.00  0.00    +0.047 A 
ATOM     37  N   UNL     1      -0.547   0.753  -1.384  0.00  0.00    -0.360 N 
ATOM     38  C   UNL     1      -1.055   1.960  -0.985  0.00  0.00    +0.087 A 
ATOM     39  C   UNL     1      -1.237   2.755  -2.052  0.00  0.00    -0.021 A 
ATOM     40  C   UNL     1      -0.811   1.995  -3.230  0.00  0.00    +0.003 A 
ATOM     41  C   UNL     1      -0.757   2.274  -4.596  0.00  0.00    +0.010 A 
ATOM     42  H   UNL     1      -0.333   0.016  -0.792  0.00  0.00    +0.165 HD
ENDBRANCH  32  39
ENDBRANCH  31  32
ENDBRANCH  27  31
ENDBRANCH   1  28
TORSDOF 6
