REMARK  Name = ZINC39468047
REMARK  7 active torsions:
REMARK  status: ('A' for Active; 'I' for Inactive)
REMARK    1  A    between atoms: C_1  and  C_2
REMARK    2  A    between atoms: C_2  and  O_3
REMARK    3  A    between atoms: O_3  and  C_4
REMARK    4  A    between atoms: P_13  and  O_29
REMARK    5  A    between atoms: C_21  and  C_22
REMARK    6  A    between atoms: C_27  and  O_28
REMARK    7  A    between atoms: O_29  and  C_30
REMARK                            x       y       z     vdW  Elec       q    Type
REMARK                         _______ _______ _______ _____ _____    ______ ____
ROOT
ATOM      1  C   UNL     1      -1.498  -1.848   0.006  0.00  0.00    +0.124 C 
ATOM      2  C   UNL     1      -0.434  -2.653  -0.003  0.00  0.00    +0.023 C 
ATOM      3  C   UNL     1      -0.632  -4.144  -0.020  0.00  0.00    +0.025 C 
ATOM      4  C   UNL     1       0.601  -4.844  -0.576  0.00  0.00    +0.031 C 
ATOM      5  C   UNL     1       0.826  -4.469  -2.046  0.00  0.00    +0.100 C 
ATOM      6  C   UNL     1       2.049  -5.258  -2.529  0.00  0.00    +0.191 C 
ATOM      7  O   UNL     1       2.328  -4.927  -3.901  0.00  0.00    -0.294 OA
ATOM      8  P   UNL     1       1.101  -5.014  -4.966  0.00  0.00    +0.421 P 
ATOM      9  O   UNL     1       0.872  -6.418  -5.371  0.00  0.00    -0.239 OA
ATOM     10  N   UNL     1      -0.215  -4.429  -4.159  0.00  0.00    -0.156 NA
ATOM     11  N   UNL     1      -0.366  -4.793  -2.836  0.00  0.00    -0.228 NA
ATOM     12  C   UNL     1      -1.560  -4.096  -2.329  0.00  0.00    +0.111 C 
ATOM     13  C   UNL     1      -1.836  -4.492  -0.900  0.00  0.00    +0.035 C 
ATOM     14  C   UNL     1      -3.031  -3.699  -0.424  0.00  0.00    -0.010 C 
ATOM     15  C   UNL     1      -2.856  -2.441   0.016  0.00  0.00    +0.023 C 
ATOM     16  H   UNL     1      -0.858  -3.852  -4.599  0.00  0.00    +0.153 HD
ENDROOT
BRANCH  15  17
ATOM     17  C   UNL     1      -4.013  -1.650   0.502  0.00  0.00    +0.027 A 
ATOM     18  C   UNL     1      -4.562  -1.912   1.756  0.00  0.00    +0.012 A 
ATOM     19  C   UNL     1      -5.638  -1.173   2.204  0.00  0.00    +0.001 A 
ATOM     20  C   UNL     1      -6.174  -0.172   1.412  0.00  0.00    +0.004 A 
ATOM     21  C   UNL     1      -5.637   0.096   0.168  0.00  0.00    +0.046 A 
ATOM     22  C   UNL     1      -4.553  -0.634  -0.292  0.00  0.00    +0.125 A 
BRANCH  22  23
ATOM     23  O   UNL     1      -4.020  -0.368  -1.514  0.00  0.00    -0.506 OA
ATOM     24  H   UNL     1      -4.419  -0.873  -2.235  0.00  0.00    +0.292 HD
ENDBRANCH  22  23
ENDBRANCH  15  17
BRANCH   8  25
ATOM     25  O   UNL     1       1.417  -4.105  -6.257  0.00  0.00    -0.299 OA
ATOM     26  C   UNL     1       0.627  -4.142  -7.447  0.00  0.00    +0.206 C 
ENDBRANCH   8  25
BRANCH   1  27
ATOM     27  O   UNL     1      -1.339  -0.499   0.012  0.00  0.00    -0.492 OA
BRANCH  27  29
ATOM     28  C   UNL     1      -0.019   1.526   0.010  0.00  0.00    +0.048 C 
ATOM     29  C   UNL     1       0.002  -0.004   0.002  0.00  0.00    +0.225 C 
ENDBRANCH  27  29
ENDBRANCH   1  27
TORSDOF 5
