REMARK  Name = ZINC40374015
REMARK  8 active torsions:
REMARK  status: ('A' for Active; 'I' for Inactive)
REMARK    1  A    between atoms: C_4  and  N_28
REMARK    2  A    between atoms: C_5  and  C_7
REMARK    3  A    between atoms: C_9  and  C_26
REMARK    4  A    between atoms: C_10  and  N_12
REMARK    5  A    between atoms: N_12  and  C_13
REMARK    6  A    between atoms: C_13  and  C_14
REMARK    7  A    between atoms: C_14  and  C_16
REMARK    8  A    between atoms: C_14  and  N_21
REMARK                            x       y       z     vdW  Elec       q    Type
REMARK                         _______ _______ _______ _____ _____    ______ ____
ROOT
ATOM      1  C   UNL     1       1.245  -2.208  -0.614  0.00  0.00    +0.233 A 
ATOM      2  N   UNL     1       2.305  -2.973  -0.625  0.00  0.00    -0.196 NA
ATOM      3  C   UNL     1       1.904  -4.271  -0.578  0.00  0.00    +0.201 A 
ATOM      4  C   UNL     1       0.517  -4.263  -0.536  0.00  0.00    +0.225 A 
ATOM      5  O   UNL     1       0.138  -2.973  -0.555  0.00  0.00    -0.420 OA
ENDROOT
BRANCH   1  10
ATOM      6  C   UNL     1       2.011   1.367   0.241  0.00  0.00    +0.001 A 
ATOM      7  C   UNL     1       1.285   2.037  -0.728  0.00  0.00    +0.002 A 
ATOM      8  C   UNL     1       0.546   1.331  -1.660  0.00  0.00    +0.033 A 
ATOM      9  C   UNL     1       0.529  -0.049  -1.628  0.00  0.00    +0.138 A 
ATOM     10  C   UNL     1       1.259  -0.731  -0.654  0.00  0.00    +0.067 A 
ATOM     11  C   UNL     1       2.003  -0.011   0.283  0.00  0.00    +0.015 A 
BRANCH   9  12
ATOM     12  N   UNL     1      -0.264  -0.804  -2.626  0.00  0.00    +0.057 N 
ATOM     13  O   UNL     1      -0.968  -0.213  -3.411  0.00  0.00    -0.126 OA
ATOM     14  O   UNL     1      -0.206  -2.011  -2.655  0.00  0.00    -0.126 OA
ENDBRANCH   9  12
ENDBRANCH   1  10
BRANCH   4  15
ATOM     15  N   UNL     1      -0.310  -5.364  -0.482  0.00  0.00    -0.314 N 
ATOM     16  H   UNL     1       0.070  -6.256  -0.470  0.00  0.00    +0.149 HD
BRANCH  15  17
ATOM     17  C   UNL     1      -1.763  -5.186  -0.443  0.00  0.00    +0.094 C 
BRANCH  17  18
ATOM     18  C   UNL     1      -2.438  -6.545  -0.250  0.00  0.00    -0.013 C 
BRANCH  18  19
ATOM     19  N   UNL     1      -3.896  -6.386  -0.340  0.00  0.00    +0.386 N 
ATOM     20  C   UNL     1      -4.276  -5.914  -1.696  0.00  0.00    -0.078 C 
ATOM     21  C   UNL     1      -5.763  -6.332  -1.813  0.00  0.00    -0.020 C 
ATOM     22  C   UNL     1      -5.796  -7.697  -1.089  0.00  0.00    -0.020 C 
ATOM     23  C   UNL     1      -4.564  -7.694  -0.166  0.00  0.00    -0.078 C 
ATOM     24  H   UNL     1      -4.219  -5.734   0.359  0.00  0.00    -0.081 HD
ENDBRANCH  18  19
BRANCH  18  25
ATOM     25  C   UNL     1      -2.077  -7.097   1.105  0.00  0.00    -0.022 A 
ATOM     26  C   UNL     1      -1.141  -8.024   1.427  0.00  0.00    +0.009 A 
ATOM     27  C   UNL     1      -0.981  -8.382   2.753  0.00  0.00    +0.008 A 
ATOM     28  C   UNL     1      -1.764  -7.795   3.691  0.00  0.00    +0.045 A 
ATOM     29  S   UNL     1      -2.763  -6.694   2.703  0.00  0.00    -0.103 S 
ENDBRANCH  18  25
ENDBRANCH  17  18
ENDBRANCH  15  17
ENDBRANCH   4  15
BRANCH   3  30
ATOM     30  C   UNL     1       2.751  -5.426  -0.573  0.00  0.00    +0.124 C 
ATOM     31  N   UNL     1       3.423  -6.342  -0.568  0.00  0.00    -0.189 NA
ENDBRANCH   3  30
TORSDOF 8
