REMARK  Name = ZINC63374610
REMARK  9 active torsions:
REMARK  status: ('A' for Active; 'I' for Inactive)
REMARK    1  A    between atoms: C_1  and  C_2
REMARK    2  A    between atoms: C_2  and  C_4
REMARK    3  A    between atoms: C_2  and  N_10
REMARK    4  A    between atoms: C_11  and  C_13
REMARK    5  A    between atoms: C_13  and  C_15
REMARK    6  A    between atoms: C_13  and  N_18
REMARK    7  A    between atoms: C_15  and  C_16
REMARK    8  A    between atoms: C_15  and  C_17
REMARK    9  A    between atoms: C_21  and  C_37
REMARK                            x       y       z     vdW  Elec       q    Type
REMARK                         _______ _______ _______ _____ _____    ______ ____
ROOT
ATOM      1  N   UNL     1      -3.931  -1.418  -2.475  0.00  0.00    -0.212 N 
ATOM      2  C   UNL     1      -5.065  -0.857  -2.942  0.00  0.00    +0.249 C 
ATOM      3  O   UNL     1      -5.856  -0.180  -2.321  0.00  0.00    -0.273 OA
ATOM      4  C   UNL     1      -5.144  -1.245  -4.402  0.00  0.00    +0.136 C 
ATOM      5  C   UNL     1      -6.403  -2.083  -4.657  0.00  0.00    +0.139 C 
ATOM      6  C   UNL     1      -6.146  -2.871  -5.935  0.00  0.00    -0.034 C 
ATOM      7  C   UNL     1      -7.125  -2.550  -6.776  0.00  0.00    -0.001 A 
ATOM      8  C   UNL     1      -7.447  -3.028  -8.130  0.00  0.00    +0.010 A 
ATOM      9  C   UNL     1      -8.537  -2.469  -8.719  0.00  0.00    +0.001 A 
ATOM     10  C   UNL     1      -9.329  -1.495  -8.104  0.00  0.00    +0.002 A 
ATOM     11  C   UNL     1      -9.109  -1.000  -6.860  0.00  0.00    +0.026 A 
ATOM     12  C   UNL     1      -7.992  -1.514  -6.137  0.00  0.00    +0.043 A 
ATOM     13  N   UNL     1      -7.565  -1.233  -4.929  0.00  0.00    -0.375 N 
ATOM     14  C   UNL     1      -4.943  -3.762  -6.131  0.00  0.00    +0.052 C 
ATOM     15  C   UNL     1      -3.696  -2.925  -5.785  0.00  0.00    +0.115 C 
ATOM     16  N   UNL     1      -3.985  -2.149  -4.575  0.00  0.00    -0.269 N 
ATOM     17  C   UNL     1      -3.304  -2.128  -3.422  0.00  0.00    +0.313 C 
ATOM     18  O   UNL     1      -2.240  -2.691  -3.254  0.00  0.00    -0.252 OA
ATOM     19  C   UNL     1      -5.064  -0.026  -5.324  0.00  0.00    +0.044 C 
ATOM     20  H   UNL     1      -7.943  -0.579  -4.321  0.00  0.00    +0.160 HD
ENDROOT
BRANCH   1  21
ATOM     21  C   UNL     1      -3.442  -1.265  -1.103  0.00  0.00    +0.174 C 
BRANCH  21  23
ATOM     22  N   UNL     1      -1.617   0.007  -0.022  0.00  0.00    -0.307 N 
ATOM     23  C   UNL     1      -2.083  -0.615  -1.123  0.00  0.00    +0.235 C 
ATOM     24  O   UNL     1      -1.408  -0.651  -2.130  0.00  0.00    -0.274 OA
ATOM     25  H   UNL     1      -2.183   0.098   0.760  0.00  0.00    +0.149 HD
BRANCH  22  27
ATOM     26  C   UNL     1      -0.253   1.947  -0.619  0.00  0.00    +0.033 C 
ATOM     27  C   UNL     1      -0.254   0.545  -0.006  0.00  0.00    +0.100 C 
BRANCH  27  28
ATOM     28  C   UNL     1       0.240   0.619   1.416  0.00  0.00    -0.027 A 
ATOM     29  C   UNL     1      -0.615   1.019   2.425  0.00  0.00    +0.005 A 
ATOM     30  C   UNL     1      -0.162   1.086   3.729  0.00  0.00    +0.000 A 
ATOM     31  C   UNL     1       1.147   0.754   4.024  0.00  0.00    +0.000 A 
ATOM     32  C   UNL     1       2.002   0.353   3.015  0.00  0.00    +0.000 A 
ATOM     33  C   UNL     1       1.548   0.281   1.711  0.00  0.00    +0.005 A 
ENDBRANCH  27  28
ENDBRANCH  22  27
ENDBRANCH  21  23
BRANCH  21  34
ATOM     34  C   UNL     1      -3.339  -2.642  -0.442  0.00  0.00    +0.013 C 
ATOM     35  C   UNL     1      -2.931  -2.475   1.023  0.00  0.00    +0.009 C 
ATOM     36  C   UNL     1      -4.695  -3.346  -0.516  0.00  0.00    +0.009 C 
ENDBRANCH  21  34
ENDBRANCH   1  21
TORSDOF 5
