REMARK  Name = ZINC01150494
REMARK  10 active torsions:
REMARK  status: ('A' for Active; 'I' for Inactive)
REMARK    1  A    between atoms: C_1  and  C_2
REMARK    2  A    between atoms: C_5  and  S_8
REMARK    3  A    between atoms: S_8  and  N_11
REMARK    4  A    between atoms: N_11  and  C_12
REMARK    5  A    between atoms: N_11  and  C_20
REMARK    6  A    between atoms: C_12  and  C_13
REMARK    7  A    between atoms: C_13  and  C_14
REMARK    8  A    between atoms: C_20  and  C_21
REMARK    9  A    between atoms: N_23  and  C_24
REMARK   10  A    between atoms: C_28  and  N_30
REMARK                            x       y       z     vdW  Elec       q    Type
REMARK                         _______ _______ _______ _____ _____    ______ ____
ROOT
ATOM      1  N   UNL     1       2.430   7.940   0.334  0.00  0.00    -0.167 NA
ENDROOT
BRANCH   1   2
ATOM      2  S   UNL     1       3.209   8.460  -1.032  0.00  0.00    +0.061 S 
ATOM      3  O   UNL     1       4.602   8.351  -0.771  0.00  0.00    -0.153 OA
ATOM      4  O   UNL     1       2.586   7.806  -2.129  0.00  0.00    -0.153 OA
BRANCH   2   9
ATOM      5  C   UNL     1       2.023  14.345  -1.632  0.00  0.00    +0.044 C 
ATOM      6  C   UNL     1       2.320  12.875  -1.482  0.00  0.00    -0.050 A 
ATOM      7  C   UNL     1       3.424  12.463  -0.760  0.00  0.00    +0.005 A 
ATOM      8  C   UNL     1       3.696  11.114  -0.623  0.00  0.00    +0.029 A 
ATOM      9  C   UNL     1       2.863  10.178  -1.207  0.00  0.00    +0.106 A 
ATOM     10  C   UNL     1       1.761  10.591  -1.933  0.00  0.00    +0.029 A 
ATOM     11  C   UNL     1       1.487  11.939  -2.066  0.00  0.00    +0.005 A 
ENDBRANCH   2   9
ENDBRANCH   1   2
BRANCH   1  12
ATOM     12  C   UNL     1       3.113   7.987   1.629  0.00  0.00    +0.114 C 
BRANCH  12  13
ATOM     13  C   UNL     1       3.753   6.628   1.919  0.00  0.00    +0.052 C 
BRANCH  13  14
ATOM     14  C   UNL     1       4.455   6.677   3.251  0.00  0.00    -0.046 A 
ATOM     15  C   UNL     1       5.784   7.052   3.319  0.00  0.00    +0.003 A 
ATOM     16  C   UNL     1       6.426   7.102   4.542  0.00  0.00    +0.000 A 
ATOM     17  C   UNL     1       5.743   6.766   5.696  0.00  0.00    +0.000 A 
ATOM     18  C   UNL     1       4.416   6.386   5.627  0.00  0.00    +0.000 A 
ATOM     19  C   UNL     1       3.772   6.341   4.405  0.00  0.00    +0.003 A 
ENDBRANCH  13  14
ENDBRANCH  12  13
ENDBRANCH   1  12
BRANCH   1  20
ATOM     20  C   UNL     1       1.059   7.432   0.247  0.00  0.00    +0.205 C 
BRANCH  20  21
ATOM     21  C   UNL     1       1.085   5.931   0.125  0.00  0.00    +0.233 C 
ATOM     22  O   UNL     1       2.146   5.342   0.112  0.00  0.00    -0.274 OA
ATOM     23  N   UNL     1      -0.069   5.242   0.030  0.00  0.00    -0.284 N 
ATOM     24  H   UNL     1      -0.913   5.715  -0.028  0.00  0.00    +0.155 HD
BRANCH  23  25
ATOM     25  C   UNL     1      -0.050   3.842   0.014  0.00  0.00    +0.036 A 
ATOM     26  C   UNL     1       0.993   3.168  -0.609  0.00  0.00    +0.023 A 
ATOM     27  C   UNL     1       1.009   1.787  -0.622  0.00  0.00    +0.004 A 
ATOM     28  C   UNL     1      -0.010   1.076  -0.016  0.00  0.00    +0.033 A 
ATOM     29  C   UNL     1      -1.052   1.744   0.601  0.00  0.00    +0.128 A 
ATOM     30  C   UNL     1      -1.072   3.126   0.622  0.00  0.00    +0.056 A 
BRANCH  29  31
ATOM     31  N   UNL     1      -2.144   0.980   1.244  0.00  0.00    +0.056 N 
ATOM     32  O   UNL     1      -2.125  -0.238   1.229  0.00  0.00    -0.126 OA
ATOM     33  O   UNL     1      -3.062   1.568   1.787  0.00  0.00    -0.126 OA
ENDBRANCH  29  31
ENDBRANCH  23  25
ENDBRANCH  20  21
ENDBRANCH   1  20
TORSDOF 9
