REMARK  Name = ZINC11882552
REMARK  8 active torsions:
REMARK  status: ('A' for Active; 'I' for Inactive)
REMARK    1  A    between atoms: C_1  and  C_2
REMARK    2  A    between atoms: C_2  and  O_3
REMARK    3  A    between atoms: O_3  and  C_4
REMARK    4  A    between atoms: C_4  and  C_6
REMARK    5  A    between atoms: C_10  and  N_11
REMARK    6  A    between atoms: C_12  and  C_14
REMARK    7  A    between atoms: C_23  and  C_24
REMARK    8  A    between atoms: C_23  and  N_51
REMARK                            x       y       z     vdW  Elec       q    Type
REMARK                         _______ _______ _______ _____ _____    ______ ____
ROOT
ATOM      1  C   UNL     1       3.767   5.680  -5.248  0.00  0.00    +0.091 A 
ATOM      2  C   UNL     1       3.535   5.293  -3.869  0.00  0.00    -0.025 A 
ATOM      3  C   UNL     1       2.241   5.092  -3.535  0.00  0.00    -0.021 A 
ATOM      4  S   UNL     1       1.335   5.411  -5.020  0.00  0.00    -0.079 S 
ATOM      5  C   UNL     1       2.654   5.805  -6.073  0.00  0.00    +0.086 A 
ATOM      6  C   UNL     1       1.723   4.687  -2.190  0.00  0.00    -0.035 C 
ATOM      7  C   UNL     1       3.982   5.141  -1.440  0.00  0.00    -0.073 C 
ATOM      8  C   UNL     1       4.632   5.111  -2.826  0.00  0.00    +0.018 C 
ATOM      9  N   UNL     1       2.867   4.171  -1.400  0.00  0.00    +0.386 N 
ATOM     10  H   UNL     1       3.182   3.283  -1.808  0.00  0.00    -0.081 HD
ENDROOT
BRANCH   5  11
ATOM     11  N   UNL     1       2.611   6.159  -7.411  0.00  0.00    -0.275 N 
ATOM     12  C   UNL     1       1.427   6.229  -8.052  0.00  0.00    +0.255 C 
ATOM     13  O   UNL     1       0.396   5.981  -7.454  0.00  0.00    -0.269 OA
ATOM     14  H   UNL     1       3.432   6.356  -7.887  0.00  0.00    +0.156 HD
BRANCH  12  15
ATOM     15  C   UNL     1       1.381   6.603  -9.466  0.00  0.00    +0.075 A 
ATOM     16  C   UNL     1       0.281   6.732 -10.301  0.00  0.00    +0.022 A 
ATOM     17  C   UNL     1       0.522   7.101 -11.601  0.00  0.00    +0.024 A 
ATOM     18  C   UNL     1       1.804   7.318 -12.002  0.00  0.00    +0.056 A 
ATOM     19  S   UNL     1       2.725   7.019 -10.564  0.00  0.00    -0.077 S 
ATOM     20 BR   UNL     1       2.429   7.830 -13.711  0.00  0.00    -0.043 Br
ENDBRANCH  12  15
ENDBRANCH   5  11
BRANCH   1  21
ATOM     21  C   UNL     1       5.118   5.930  -5.752  0.00  0.00    +0.342 C 
ATOM     22  O   UNL     1       5.767   5.020  -6.231  0.00  0.00    -0.245 OA
BRANCH  21  23
ATOM     23  O   UNL     1       5.645   7.170  -5.684  0.00  0.00    -0.461 OA
BRANCH  23  25
ATOM     24  C   UNL     1       7.413   8.806  -6.040  0.00  0.00    +0.048 C 
ATOM     25  C   UNL     1       6.990   7.345  -6.202  0.00  0.00    +0.229 C 
ENDBRANCH  23  25
ENDBRANCH  21  23
ENDBRANCH   1  21
BRANCH   9  26
ATOM     26  C   UNL     1       2.451   3.937  -0.001  0.00  0.00    -0.043 C 
BRANCH  26  27
ATOM     27  C   UNL     1       1.156   3.165   0.008  0.00  0.00    -0.064 A 
ATOM     28  C   UNL     1       1.175   1.783   0.000  0.00  0.00    +0.002 A 
ATOM     29  C   UNL     1      -0.013   1.076   0.008  0.00  0.00    +0.000 A 
ATOM     30  C   UNL     1      -1.219   1.751   0.017  0.00  0.00    +0.000 A 
ATOM     31  C   UNL     1      -1.238   3.133   0.030  0.00  0.00    +0.000 A 
ATOM     32  C   UNL     1      -0.050   3.840   0.023  0.00  0.00    +0.002 A 
ENDBRANCH  26  27
ENDBRANCH   9  26
TORSDOF 7
