REMARK  Name = ZINC13023233
REMARK  9 active torsions:
REMARK  status: ('A' for Active; 'I' for Inactive)
REMARK    1  A    between atoms: C_1  and  C_2
REMARK    2  A    between atoms: C_4  and  C_35
REMARK    3  A    between atoms: C_7  and  C_14
REMARK    4  A    between atoms: C_14  and  C_16
REMARK    5  A    between atoms: C_14  and  N_66
REMARK    6  A    between atoms: N_20  and  C_21
REMARK    7  A    between atoms: C_21  and  C_22
REMARK    8  A    between atoms: C_22  and  C_23
REMARK    9  A    between atoms: C_31  and  C_34
REMARK                            x       y       z     vdW  Elec       q    Type
REMARK                         _______ _______ _______ _____ _____    ______ ____
ROOT
ATOM      1  C   UNL     1       4.873   4.287  -0.025  0.00  0.00    +0.039 C 
ENDROOT
BRANCH   1   8
ATOM      2  C   UNL     1      -1.297  -0.767   0.010  0.00  0.00    +0.044 C 
ATOM      3  C   UNL     1       0.002  -0.004   0.002  0.00  0.00    -0.048 A 
ATOM      4  C   UNL     1       1.206  -0.696  -0.013  0.00  0.00    +0.007 A 
ATOM      5  C   UNL     1       2.394  -0.024  -0.021  0.00  0.00    -0.041 A 
ATOM      6  C   UNL     1       2.400   1.375  -0.014  0.00  0.00    +0.002 A 
ATOM      7  C   UNL     1       3.655   2.128  -0.023  0.00  0.00    +0.018 A 
ATOM      8  C   UNL     1       3.599   3.482  -0.016  0.00  0.00    +0.011 A 
ATOM      9  C   UNL     1       2.351   4.142  -0.001  0.00  0.00    +0.251 A 
ATOM     10  O   UNL     1       2.322   5.360   0.005  0.00  0.00    -0.268 OA
ATOM     11  N   UNL     1       1.192   3.459   0.008  0.00  0.00    -0.322 N 
ATOM     12  H   UNL     1       0.352   3.943   0.018  0.00  0.00    +0.169 HD
ATOM     13  C   UNL     1       1.182   2.080   0.002  0.00  0.00    +0.050 A 
ATOM     14  C   UNL     1      -0.017   1.374   0.010  0.00  0.00    +0.029 A 
ATOM     15  C   UNL     1       3.695  -0.785  -0.037  0.00  0.00    +0.044 C 
ENDBRANCH   1   8
BRANCH   1  22
ATOM     16  C   UNL     1       4.568   4.512   2.366  0.00  0.00    -0.077 C 
ATOM     17  C   UNL     1       4.434   5.527   3.504  0.00  0.00    -0.015 C 
ATOM     18  C   UNL     1       5.744   6.307   3.642  0.00  0.00    -0.018 C 
ATOM     19  C   UNL     1       6.065   6.991   2.310  0.00  0.00    -0.015 C 
ATOM     20  C   UNL     1       6.151   5.933   1.207  0.00  0.00    -0.077 C 
ATOM     21  C   UNL     1       5.597   7.365   4.737  0.00  0.00    +0.007 C 
ATOM     22  N   UNL     1       4.852   5.235   1.109  0.00  0.00    +0.389 N 
ATOM     23  H   UNL     1       4.112   5.929   0.950  0.00  0.00    -0.080 HD
ENDBRANCH   1  22
BRANCH   1  24
ATOM     24  C   UNL     1       4.964   5.069  -1.310  0.00  0.00    +0.142 A 
ATOM     25  N   UNL     1       4.282   6.144  -1.622  0.00  0.00    -0.115 NA
ATOM     26  N   UNL     1       4.644   6.516  -2.801  0.00  0.00    -0.023 NA
ATOM     27  N   UNL     1       5.533   5.702  -3.252  0.00  0.00    -0.044 NA
ATOM     28  N   UNL     1       5.758   4.796  -2.362  0.00  0.00    -0.230 N 
BRANCH  28  29
ATOM     29  C   UNL     1       6.700   3.680  -2.475  0.00  0.00    +0.152 C 
BRANCH  29  30
ATOM     30  C   UNL     1       5.988   2.471  -3.086  0.00  0.00    +0.058 C 
BRANCH  30  31
ATOM     31  C   UNL     1       6.957   1.323  -3.202  0.00  0.00    -0.046 A 
ATOM     32  C   UNL     1       7.707   1.165  -4.353  0.00  0.00    +0.004 A 
ATOM     33  C   UNL     1       8.600   0.115  -4.457  0.00  0.00    +0.000 A 
ATOM     34  C   UNL     1       8.735  -0.783  -3.415  0.00  0.00    +0.000 A 
ATOM     35  C   UNL     1       7.981  -0.628  -2.266  0.00  0.00    +0.000 A 
ATOM     36  C   UNL     1       7.093   0.425  -2.160  0.00  0.00    +0.004 A 
ENDBRANCH  30  31
ENDBRANCH  29  30
ENDBRANCH  28  29
ENDBRANCH   1  24
TORSDOF 6
