REMARK  Name = ZINC20327463
REMARK  9 active torsions:
REMARK  status: ('A' for Active; 'I' for Inactive)
REMARK    1  A    between atoms: C_1  and  C_2
REMARK    2  A    between atoms: C_2  and  C_3
REMARK    3  A    between atoms: N_9  and  C_10
REMARK    4  A    between atoms: C_10  and  C_11
REMARK    5  A    between atoms: C_11  and  N_12
REMARK    6  A    between atoms: C_13  and  C_15
REMARK    7  A    between atoms: N_20  and  S_22
REMARK    8  A    between atoms: S_22  and  C_25
REMARK    9  A    between atoms: N_34  and  C_35
REMARK                            x       y       z     vdW  Elec       q    Type
REMARK                         _______ _______ _______ _____ _____    ______ ____
ROOT
ATOM      1  C   UNL     1      -3.468   8.750   2.663  0.00  0.00    +0.091 C 
ATOM      2  C   UNL     1      -2.232   9.570   2.288  0.00  0.00    +0.015 C 
ATOM      3  C   UNL     1      -2.586  11.058   2.286  0.00  0.00    +0.018 C 
ATOM      4  C   UNL     1      -3.033  11.474   3.691  0.00  0.00    +0.109 C 
ATOM      5  N   UNL     1      -4.129  10.593   4.118  0.00  0.00    -0.176 NA
ATOM      6  C   UNL     1      -3.925   9.139   4.072  0.00  0.00    +0.122 C 
ENDROOT
BRANCH   1   8
ATOM      7  N   UNL     1      -2.698   6.714   1.488  0.00  0.00    -0.317 N 
ATOM      8  C   UNL     1      -3.127   7.282   2.632  0.00  0.00    +0.217 C 
ATOM      9  O   UNL     1      -3.238   6.613   3.638  0.00  0.00    -0.275 OA
ATOM     10  H   UNL     1      -2.597   7.321   0.576  0.00  0.00    +0.149 HD
BRANCH   7  11
ATOM     11  C   UNL     1      -2.366   5.287   1.458  0.00  0.00    +0.085 C 
BRANCH  11  12
ATOM     12  C   UNL     1      -1.909   4.899   0.051  0.00  0.00    -0.059 C 
BRANCH  12  18
ATOM     13  C   UNL     1      -1.040   3.080  -1.290  0.00  0.00    -0.069 C 
ATOM     14  C   UNL     1      -0.842   1.563  -1.332  0.00  0.00    -0.015 C 
ATOM     15  C   UNL     1       0.126   1.148  -0.221  0.00  0.00    -0.003 C 
ATOM     16  C   UNL     1      -0.432   1.607   1.130  0.00  0.00    -0.019 C 
ATOM     17  C   UNL     1      -0.643   3.123   1.100  0.00  0.00    -0.078 C 
ATOM     18  N   UNL     1      -1.576   3.468   0.021  0.00  0.00    +0.383 N 
ATOM     19  H   UNL     1      -2.504   2.900   0.185  0.00  0.00    -0.081 HD
BRANCH  13  21
ATOM     20  C   UNL     1      -1.407   3.210  -3.758  0.00  0.00    +0.002 C 
ATOM     21  C   UNL     1      -2.022   3.497  -2.387  0.00  0.00    -0.019 C 
ENDBRANCH  13  21
ENDBRANCH  12  18
ENDBRANCH  11  12
ENDBRANCH   7  11
ENDBRANCH   1   8
BRANCH   5  22
ATOM     22  S   UNL     1      -5.566  11.228   4.642  0.00  0.00    +0.061 S 
ATOM     23  O   UNL     1      -5.672  12.523   4.067  0.00  0.00    -0.153 OA
ATOM     24  O   UNL     1      -6.551  10.223   4.443  0.00  0.00    -0.153 OA
BRANCH  22  25
ATOM     25  C   UNL     1      -5.429  11.460   6.384  0.00  0.00    +0.109 A 
ATOM     26  C   UNL     1      -5.804  10.444   7.245  0.00  0.00    +0.031 A 
ATOM     27  C   UNL     1      -5.695  10.616   8.612  0.00  0.00    +0.031 A 
ATOM     28  C   UNL     1      -5.218  11.815   9.119  0.00  0.00    +0.090 A 
ATOM     29  C   UNL     1      -4.845  12.841   8.252  0.00  0.00    +0.159 A 
ATOM     30  C   UNL     1      -4.953  12.657   6.882  0.00  0.00    +0.077 A 
ATOM     31  O   UNL     1      -4.423  13.879   9.014  0.00  0.00    -0.407 OA
ATOM     32  C   UNL     1      -4.519  13.542  10.310  0.00  0.00    +0.421 A 
ATOM     33  O   UNL     1      -4.219  14.258  11.246  0.00  0.00    -0.223 OA
ATOM     34  N   UNL     1      -5.001  12.288  10.413  0.00  0.00    -0.277 N 
ATOM     35  C   UNL     1      -5.251  11.555  11.657  0.00  0.00    +0.156 C 
ENDBRANCH  22  25
ENDBRANCH   5  22
TORSDOF 7
