REMARK  Name = ZINC08884142
REMARK  8 active torsions:
REMARK  status: ('A' for Active; 'I' for Inactive)
REMARK    1  A    between atoms: C_7  and  C_25
REMARK    2  A    between atoms: C_8  and  C_10
REMARK    3  A    between atoms: C_10  and  O_12
REMARK    4  A    between atoms: O_12  and  C_13
REMARK    5  A    between atoms: C_13  and  C_14
REMARK    6  A    between atoms: N_16  and  C_17
REMARK    7  A    between atoms: C_25  and  S_26
REMARK    8  A    between atoms: S_26  and  C_27
REMARK                            x       y       z     vdW  Elec       q    Type
REMARK                         _______ _______ _______ _____ _____    ______ ____
ROOT
ATOM      1  C   UNL     1      -9.041  -2.507  -6.213  0.00  0.00    +0.001 A 
ATOM      2  C   UNL     1      -8.680  -3.309  -5.139  0.00  0.00    +0.004 A 
ATOM      3  C   UNL     1      -7.616  -2.968  -4.333  0.00  0.00    +0.047 A 
ATOM      4  C   UNL     1      -6.893  -1.810  -4.593  0.00  0.00    +0.136 A 
ATOM      5  C   UNL     1      -7.264  -1.000  -5.683  0.00  0.00    +0.025 A 
ATOM      6  C   UNL     1      -8.346  -1.364  -6.489  0.00  0.00    +0.012 A 
ATOM      7  C   UNL     1      -6.322   0.118  -5.684  0.00  0.00    +0.022 A 
ATOM      8  C   UNL     1      -5.486  -0.092  -4.634  0.00  0.00    +0.217 A 
ATOM      9  O   UNL     1      -5.829  -1.234  -4.001  0.00  0.00    -0.448 OA
ENDROOT
BRANCH   8  10
ATOM     10  C   UNL     1      -4.375   0.786  -4.250  0.00  0.00    +0.376 C 
ATOM     11  O   UNL     1      -4.145   1.793  -4.892  0.00  0.00    -0.241 OA
BRANCH  10  12
ATOM     12  O   UNL     1      -3.608   0.477  -3.185  0.00  0.00    -0.450 OA
BRANCH  12  13
ATOM     13  C   UNL     1      -2.526   1.391  -2.863  0.00  0.00    +0.328 C 
BRANCH  13  14
ATOM     14  C   UNL     1      -1.784   0.885  -1.653  0.00  0.00    +0.251 C 
ATOM     15  O   UNL     1      -2.133  -0.144  -1.114  0.00  0.00    -0.272 OA
ATOM     16  N   UNL     1      -0.734   1.577  -1.169  0.00  0.00    -0.308 N 
ATOM     17  H   UNL     1      -0.455   2.400  -1.599  0.00  0.00    +0.149 HD
BRANCH  16  18
ATOM     18  C   UNL     1      -0.013   1.086   0.008  0.00  0.00    +0.095 C 
ATOM     19  C   UNL     1      -0.703   1.589   1.287  0.00  0.00    +0.046 C 
ATOM     20  C   UNL     1       0.216   1.352   2.510  0.00  0.00    +0.168 C 
ATOM     21  S   UNL     1       1.898   1.415   1.770  0.00  0.00    -0.029 S 
ATOM     22  O   UNL     1       2.523   0.149   1.935  0.00  0.00    -0.174 OA
ATOM     23  O   UNL     1       2.561   2.587   2.223  0.00  0.00    -0.174 OA
ATOM     24  C   UNL     1       1.444   1.631  -0.003  0.00  0.00    +0.188 C 
ENDBRANCH  16  18
ENDBRANCH  13  14
ENDBRANCH  12  13
ENDBRANCH  10  12
ENDBRANCH   8  10
BRANCH   7  25
ATOM     25  C   UNL     1      -6.287   1.271  -6.655  0.00  0.00    +0.109 C 
BRANCH  25  26
ATOM     26  S   UNL     1      -5.220   0.847  -8.059  0.00  0.00    -0.153 S 
BRANCH  26  27
ATOM     27  C   UNL     1      -5.283   2.317  -9.119  0.00  0.00    +0.047 C 
ATOM     28  C   UNL     1      -6.705   2.502  -9.651  0.00  0.00    +0.014 C 
ATOM     29  C   UNL     1      -6.759   3.742 -10.545  0.00  0.00    +0.001 C 
ATOM     30  C   UNL     1      -5.794   3.567 -11.719  0.00  0.00    +0.000 C 
ATOM     31  C   UNL     1      -4.371   3.382 -11.187  0.00  0.00    +0.001 C 
ATOM     32  C   UNL     1      -4.318   2.142 -10.293  0.00  0.00    +0.014 C 
ENDBRANCH  26  27
ENDBRANCH  25  26
ENDBRANCH   7  25
TORSDOF 8
