REMARK  Name = ZINC39700604
REMARK  8 active torsions:
REMARK  status: ('A' for Active; 'I' for Inactive)
REMARK    1  A    between atoms: C_1  and  C_2
REMARK    2  A    between atoms: C_2  and  C_3
REMARK    3  A    between atoms: C_2  and  C_4
REMARK    4  A    between atoms: C_2  and  C_5
REMARK    5  A    between atoms: C_7  and  C_11
REMARK    6  A    between atoms: N_13  and  N_14
REMARK    7  A    between atoms: C_15  and  C_16
REMARK    8  A    between atoms: C_21  and  O_22
REMARK                            x       y       z     vdW  Elec       q    Type
REMARK                         _______ _______ _______ _____ _____    ______ ____
ROOT
ATOM      1  C   UNL     1       1.151  -0.484  -4.531  0.00  0.00    +0.262 C 
ATOM      2  O   UNL     1       0.276  -1.250  -4.880  0.00  0.00    -0.271 OA
ATOM      3  N   UNL     1       1.529   0.522  -5.343  0.00  0.00    -0.205 N 
ATOM      4  H   UNL     1       2.228   1.134  -5.064  0.00  0.00    +0.177 HD
ENDROOT
BRANCH   1   7
ATOM      5  C   UNL     1       0.707  -0.490  -1.238  0.00  0.00    +0.067 C 
ATOM      6  C   UNL     1       1.233   0.306  -2.172  0.00  0.00    +0.036 C 
ATOM      7  C   UNL     1       1.815  -0.660  -3.189  0.00  0.00    +0.240 C 
ATOM      8  N   UNL     1       1.496  -1.978  -2.615  0.00  0.00    -0.170 NA
ATOM      9  N   UNL     1       0.899  -1.790  -1.552  0.00  0.00    -0.158 NA
BRANCH   5  11
ATOM     10  C   UNL     1      -0.019   1.526   0.010  0.00  0.00    +0.017 C 
ATOM     11  C   UNL     1       0.002  -0.004   0.002  0.00  0.00    +0.006 C 
ATOM     12  C   UNL     1       0.742  -0.511   1.242  0.00  0.00    +0.017 C 
ATOM     13  C   UNL     1      -1.433  -0.534   0.013  0.00  0.00    +0.017 C 
ENDBRANCH   5  11
ENDBRANCH   1   7
BRANCH   3  14
ATOM     14  N   UNL     1       0.911   0.686  -6.590  0.00  0.00    -0.188 NA
ATOM     15  C   UNL     1       1.275   1.655  -7.373  0.00  0.00    +0.142 C 
BRANCH  15  16
ATOM     16  C   UNL     1       0.626   1.827  -8.684  0.00  0.00    +0.038 A 
ATOM     17  C   UNL     1       1.019   2.866  -9.532  0.00  0.00    +0.028 A 
ATOM     18  C   UNL     1       0.408   3.021 -10.759  0.00  0.00    +0.020 A 
ATOM     19  C   UNL     1      -0.594   2.150 -11.155  0.00  0.00    +0.034 A 
ATOM     20  C   UNL     1      -0.992   1.118 -10.325  0.00  0.00    +0.061 A 
ATOM     21  C   UNL     1      -0.384   0.946  -9.091  0.00  0.00    +0.139 A 
ATOM     22 BR   UNL     1      -2.361  -0.063 -10.877  0.00  0.00    -0.046 Br
ATOM     23 BR   UNL     1       0.940   4.428 -11.905  0.00  0.00    -0.050 Br
BRANCH  21  24
ATOM     24  O   UNL     1      -0.770  -0.072  -8.277  0.00  0.00    -0.505 OA
ATOM     25  H   UNL     1      -1.488   0.159  -7.673  0.00  0.00    +0.292 HD
ENDBRANCH  21  24
ENDBRANCH  15  16
ENDBRANCH   3  14
TORSDOF 5
