REMARK  Name = ZINC41021463
REMARK  10 active torsions:
REMARK  status: ('A' for Active; 'I' for Inactive)
REMARK    1  A    between atoms: C_1  and  C_2
REMARK    2  A    between atoms: C_2  and  C_3
REMARK    3  A    between atoms: C_3  and  S_4
REMARK    4  A    between atoms: S_4  and  C_5
REMARK    5  A    between atoms: C_10  and  C_27
REMARK    6  A    between atoms: C_12  and  C_16
REMARK    7  A    between atoms: C_13  and  C_15
REMARK    8  A    between atoms: N_18  and  C_19
REMARK    9  A    between atoms: C_23  and  C_26
REMARK   10  A    between atoms: C_24  and  C_25
REMARK                            x       y       z     vdW  Elec       q    Type
REMARK                         _______ _______ _______ _____ _____    ______ ____
ROOT
ATOM      1  C   UNL     1       0.682  -2.770   3.163  0.00  0.00    +0.210 A 
ATOM      2  N   UNL     1       1.438  -2.024   3.981  0.00  0.00    -0.187 NA
ATOM      3  C   UNL     1       2.202  -2.802   4.699  0.00  0.00    +0.220 A 
ATOM      4  N   UNL     1       1.948  -4.086   4.345  0.00  0.00    -0.217 N 
ATOM      5  N   UNL     1       0.961  -4.041   3.361  0.00  0.00    -0.141 NA
ATOM      6  C   UNL     1       2.627  -5.237   4.934  0.00  0.00    +0.213 C 
ATOM      7  C   UNL     1       3.390  -4.797   6.155  0.00  0.00    +0.063 C 
ATOM      8  C   UNL     1       3.607  -3.509   6.458  0.00  0.00    +0.018 C 
ATOM      9  N   UNL     1       3.136  -2.483   5.675  0.00  0.00    -0.287 N 
ATOM     10  C   UNL     1       4.394  -3.175   7.699  0.00  0.00    +0.061 C 
ATOM     11  H   UNL     1       3.444  -1.572   5.800  0.00  0.00    +0.155 HD
ENDROOT
BRANCH   6  12
ATOM     12  C   UNL     1       1.607  -6.275   5.326  0.00  0.00    +0.134 A 
ATOM     13  C   UNL     1       1.552  -7.537   4.863  0.00  0.00    +0.047 A 
ATOM     14  C   UNL     1       0.447  -8.156   5.490  0.00  0.00    +0.041 A 
ATOM     15  C   UNL     1      -0.107  -7.235   6.300  0.00  0.00    +0.195 A 
ATOM     16  O   UNL     1       0.604  -6.100   6.200  0.00  0.00    -0.465 OA
ENDBRANCH   6  12
BRANCH   7  17
ATOM     17  C   UNL     1       3.901  -5.789   7.025  0.00  0.00    +0.248 C 
ATOM     18  O   UNL     1       4.883  -6.433   6.703  0.00  0.00    -0.270 OA
ATOM     19  N   UNL     1       3.301  -6.022   8.209  0.00  0.00    -0.281 N 
ATOM     20  H   UNL     1       2.570  -5.455   8.502  0.00  0.00    +0.155 HD
BRANCH  19  21
ATOM     21  C   UNL     1       3.731  -7.082   9.014  0.00  0.00    +0.037 A 
ATOM     22  C   UNL     1       5.066  -7.464   9.007  0.00  0.00    +0.023 A 
ATOM     23  C   UNL     1       5.487  -8.511   9.803  0.00  0.00    +0.002 A 
ATOM     24  C   UNL     1       4.581  -9.178  10.608  0.00  0.00    +0.004 A 
ATOM     25  C   UNL     1       3.251  -8.799  10.617  0.00  0.00    -0.046 A 
ATOM     26  C   UNL     1       2.824  -7.750   9.827  0.00  0.00    -0.026 A 
ATOM     27  C   UNL     1       1.376  -7.334   9.843  0.00  0.00    +0.046 C 
ATOM     28  C   UNL     1       2.268  -9.529  11.495  0.00  0.00    +0.044 C 
ENDBRANCH  19  21
ENDBRANCH   7  17
BRANCH   1  29
ATOM     29  S   UNL     1      -0.501  -2.150   2.014  0.00  0.00    -0.084 S 
BRANCH  29  30
ATOM     30  C   UNL     1      -0.412  -0.350   2.221  0.00  0.00    +0.077 C 
BRANCH  30  32
ATOM     31  C   UNL     1      -1.327   1.841   1.443  0.00  0.00    +0.004 C 
ATOM     32  C   UNL     1      -1.402   0.323   1.269  0.00  0.00    +0.008 C 
ENDBRANCH  30  32
ENDBRANCH  29  30
ENDBRANCH   1  29
TORSDOF 6
