REMARK  Name = ZINC39686156
REMARK  7 active torsions:
REMARK  status: ('A' for Active; 'I' for Inactive)
REMARK    1  A    between atoms: C_1  and  C_2
REMARK    2  A    between atoms: C_2  and  C_3
REMARK    3  A    between atoms: C_2  and  C_4
REMARK    4  A    between atoms: C_4  and  C_5
REMARK    5  A    between atoms: C_10  and  N_13
REMARK    6  A    between atoms: C_14  and  C_16
REMARK    7  A    between atoms: C_27  and  C_29
REMARK                            x       y       z     vdW  Elec       q    Type
REMARK                         _______ _______ _______ _____ _____    ______ ____
ROOT
ATOM      1  C   UNL     1       7.782  -4.602  -5.199  0.00  0.00    +0.100 C 
ATOM      2  C   UNL     1       8.196  -4.976  -3.758  0.00  0.00    +0.121 C 
ATOM      3  N   UNL     1       9.639  -5.297  -3.854  0.00  0.00    -0.296 N 
ATOM      4  C   UNL     1      10.178  -4.292  -4.802  0.00  0.00    +0.115 C 
ATOM      5  C   UNL     1       9.086  -4.153  -5.880  0.00  0.00    -0.004 C 
ATOM      6  C   UNL     1       8.973  -2.700  -6.332  0.00  0.00    -0.010 C 
ATOM      7  C   UNL     1      10.259  -2.295  -7.058  0.00  0.00    -0.082 C 
ATOM      8  N   UNL     1      10.467  -3.173  -8.216  0.00  0.00    +0.379 N 
ATOM      9  C   UNL     1      10.667  -4.556  -7.765  0.00  0.00    -0.082 C 
ATOM     10  C   UNL     1       9.399  -5.057  -7.069  0.00  0.00    -0.010 C 
ATOM     11  C   UNL     1      10.311  -6.282  -3.224  0.00  0.00    +0.249 C 
ATOM     12  O   UNL     1      11.519  -6.361  -3.334  0.00  0.00    -0.270 OA
ATOM     13  H   UNL     1       9.658  -3.131  -8.818  0.00  0.00    -0.086 HD
ATOM     14  H   UNL     1      11.280  -2.866  -8.727  0.00  0.00    -0.086 HD
ENDROOT
BRANCH  11  15
ATOM     15  C   UNL     1       9.578  -7.264  -2.399  0.00  0.00    +0.072 A 
ATOM     16  C   UNL     1       8.456  -6.868  -1.669  0.00  0.00    +0.016 A 
ATOM     17  C   UNL     1       7.776  -7.790  -0.901  0.00  0.00    +0.001 A 
ATOM     18  C   UNL     1       8.204  -9.106  -0.852  0.00  0.00    +0.003 A 
ATOM     19  C   UNL     1       9.314  -9.507  -1.571  0.00  0.00    +0.039 A 
ATOM     20  C   UNL     1      10.002  -8.595  -2.350  0.00  0.00    +0.135 A 
ATOM     21  F   UNL     1      11.084  -8.988  -3.057  0.00  0.00    -0.205 F 
ENDBRANCH  11  15
BRANCH   1  23
ATOM     22  N   UNL     1       5.875  -3.363  -6.171  0.00  0.00    -0.312 N 
ATOM     23  C   UNL     1       6.784  -3.474  -5.182  0.00  0.00    +0.218 C 
ATOM     24  O   UNL     1       6.797  -2.665  -4.278  0.00  0.00    -0.275 OA
ATOM     25  H   UNL     1       5.864  -4.010  -6.894  0.00  0.00    +0.149 HD
BRANCH  22  31
ATOM     26  C   UNL     1       1.074  -1.059  -7.021  0.00  0.00    +0.216 C 
ATOM     27  O   UNL     1       0.187  -1.314  -6.235  0.00  0.00    -0.276 OA
ATOM     28  N   UNL     1       2.362  -1.120  -6.627  0.00  0.00    -0.301 N 
ATOM     29  C   UNL     1       3.448  -0.807  -7.566  0.00  0.00    +0.109 C 
ATOM     30  C   UNL     1       4.436  -1.978  -7.583  0.00  0.00    +0.041 C 
ATOM     31  C   UNL     1       4.904  -2.266  -6.155  0.00  0.00    +0.076 C 
ATOM     32  C   UNL     1       3.703  -2.661  -5.293  0.00  0.00    +0.041 C 
ATOM     33  C   UNL     1       2.706  -1.494  -5.248  0.00  0.00    +0.109 C 
BRANCH  26  34
ATOM     34  C   UNL     1       0.738  -0.674  -8.439  0.00  0.00    +0.099 C 
BRANCH  34  36
ATOM     35  C   UNL     1      -1.406   0.408  -7.748  0.00  0.00    +0.008 C 
ATOM     36  C   UNL     1      -0.781  -0.681  -8.622  0.00  0.00    -0.008 C 
ATOM     37  C   UNL     1      -1.119  -0.413 -10.090  0.00  0.00    +0.008 C 
ENDBRANCH  34  36
ENDBRANCH  26  34
ENDBRANCH  22  31
ENDBRANCH   1  23
TORSDOF 5
