REMARK  Name = ZINC39965890
REMARK  7 active torsions:
REMARK  status: ('A' for Active; 'I' for Inactive)
REMARK    1  A    between atoms: C_6  and  N_7
REMARK    2  A    between atoms: C_8  and  C_10
REMARK    3  A    between atoms: C_10  and  S_11
REMARK    4  A    between atoms: S_11  and  C_12
REMARK    5  A    between atoms: C_15  and  C_24
REMARK    6  A    between atoms: N_16  and  C_17
REMARK    7  A    between atoms: C_17  and  C_18
REMARK                            x       y       z     vdW  Elec       q    Type
REMARK                         _______ _______ _______ _____ _____    ______ ____
ROOT
ATOM      1  C   UNL     1      -4.164  -5.411  -0.433  0.00  0.00    +0.192 A 
ATOM      2  N   UNL     1      -5.445  -5.141  -0.540  0.00  0.00    -0.122 NA
ATOM      3  N   UNL     1      -6.114  -6.228  -0.692  0.00  0.00    -0.128 NA
ATOM      4  C   UNL     1      -5.301  -7.259  -0.690  0.00  0.00    +0.165 A 
ATOM      5  N   UNL     1      -4.026  -6.767  -0.530  0.00  0.00    -0.300 N 
ENDROOT
BRANCH   4   6
ATOM      6  C   UNL     1      -5.683  -8.679  -0.838  0.00  0.00    +0.023 A 
ATOM      7  C   UNL     1      -4.787  -9.686  -0.475  0.00  0.00    +0.015 A 
ATOM      8  C   UNL     1      -5.145 -11.011  -0.614  0.00  0.00    +0.050 A 
ATOM      9  C   UNL     1      -6.395 -11.347  -1.113  0.00  0.00    +0.166 A 
ATOM     10  C   UNL     1      -7.295 -10.346  -1.477  0.00  0.00    +0.167 A 
ATOM     11  C   UNL     1      -6.943  -9.017  -1.335  0.00  0.00    +0.061 A 
ATOM     12  O   UNL     1      -8.439 -10.934  -1.933  0.00  0.00    -0.453 OA
ATOM     13  C   UNL     1      -8.080 -12.297  -2.228  0.00  0.00    +0.466 C 
ATOM     14  O   UNL     1      -6.978 -12.561  -1.341  0.00  0.00    -0.453 OA
ENDBRANCH   4   6
BRANCH   1  15
ATOM     15  S   UNL     1      -2.864  -4.242  -0.213  0.00  0.00    -0.077 S 
BRANCH  15  16
ATOM     16  C   UNL     1      -3.717  -2.642  -0.165  0.00  0.00    +0.173 C 
BRANCH  16  18
ATOM     17  N   UNL     1      -3.114  -0.256   0.088  0.00  0.00    -0.285 N 
ATOM     18  C   UNL     1      -2.707  -1.539   0.023  0.00  0.00    +0.227 C 
ATOM     19  O   UNL     1      -1.528  -1.807   0.115  0.00  0.00    -0.275 OA
ATOM     20  H   UNL     1      -4.061  -0.047   0.090  0.00  0.00    +0.155 HD
BRANCH  17  26
ATOM     21  C   UNL     1      -0.906   0.596  -0.394  0.00  0.00    +0.024 A 
ATOM     22  C   UNL     1       0.024   1.616  -0.329  0.00  0.00    +0.017 A 
ATOM     23  C   UNL     1      -0.303   2.814   0.281  0.00  0.00    +0.018 A 
ATOM     24  C   UNL     1      -1.562   2.995   0.826  0.00  0.00    +0.017 A 
ATOM     25  C   UNL     1      -2.495   1.978   0.765  0.00  0.00    +0.024 A 
ATOM     26  C   UNL     1      -2.170   0.775   0.153  0.00  0.00    +0.033 A 
ATOM     27 BR   UNL     1       0.972   4.207   0.368  0.00  0.00    -0.050 Br
ENDBRANCH  17  26
ENDBRANCH  16  18
ENDBRANCH  15  16
ENDBRANCH   1  15
BRANCH   5  28
ATOM     28  C   UNL     1      -2.781  -7.537  -0.473  0.00  0.00    +0.157 C 
BRANCH  28  29
ATOM     29  C   UNL     1      -2.395  -7.774   0.988  0.00  0.00    +0.138 C 
ATOM     30  C   UNL     1      -1.084  -8.586   1.058  0.00  0.00    +0.035 C 
ATOM     31  C   UNL     1      -1.353  -9.545   2.249  0.00  0.00    +0.031 C 
ATOM     32  C   UNL     1      -2.873  -9.794   2.089  0.00  0.00    +0.160 C 
ATOM     33  O   UNL     1      -3.415  -8.539   1.642  0.00  0.00    -0.375 OA
ENDBRANCH  28  29
ENDBRANCH   5  28
TORSDOF 7
