REMARK  Name = ZINC22067632
REMARK  7 active torsions:
REMARK  status: ('A' for Active; 'I' for Inactive)
REMARK    1  A    between atoms: C_1  and  C_2
REMARK    2  A    between atoms: C_11  and  N_34
REMARK    3  A    between atoms: C_13  and  S_15
REMARK    4  A    between atoms: S_15  and  C_16
REMARK    5  A    between atoms: C_16  and  C_17
REMARK    6  A    between atoms: N_22  and  C_25
REMARK    7  A    between atoms: C_30  and  N_31
REMARK                            x       y       z     vdW  Elec       q    Type
REMARK                         _______ _______ _______ _____ _____    ______ ____
ROOT
ATOM      1  S   UNL     1       3.657  -0.959   0.847  0.00  0.00    -0.077 S 
ENDROOT
BRANCH   1  13
ATOM      2  C   UNL     1      -5.010   3.541  -2.211  0.00  0.00    +0.008 C 
ATOM      3  C   UNL     1      -3.576   3.041  -2.028  0.00  0.00    -0.009 C 
ATOM      4  C   UNL     1      -2.884   3.853  -0.930  0.00  0.00    +0.008 C 
ATOM      5  C   UNL     1      -1.390   3.532  -0.908  0.00  0.00    +0.037 C 
ATOM      6  C   UNL     1      -1.212   2.019  -0.819  0.00  0.00    -0.025 A 
ATOM      7  C   UNL     1      -2.225   1.187  -1.131  0.00  0.00    -0.004 A 
ATOM      8  S   UNL     1      -1.577  -0.445  -0.886  0.00  0.00    -0.073 S 
ATOM      9  C   UNL     1       0.058  -0.006  -0.357  0.00  0.00    +0.115 A 
ATOM     10  C   UNL     1       0.045   1.402  -0.387  0.00  0.00    +0.051 A 
ATOM     11  C   UNL     1       1.258   2.036   0.001  0.00  0.00    +0.129 A 
ATOM     12  N   UNL     1       2.292   1.290   0.355  0.00  0.00    -0.207 NA
ATOM     13  C   UNL     1       2.236  -0.036   0.362  0.00  0.00    +0.191 A 
ATOM     14  N   UNL     1       1.131  -0.680   0.009  0.00  0.00    -0.214 NA
ATOM     15  C   UNL     1      -3.601   1.564  -1.592  0.00  0.00    +0.046 C 
BRANCH  11  16
ATOM     16  N   UNL     1       1.356   3.415   0.008  0.00  0.00    -0.343 N 
ATOM     17  H   UNL     1       2.297   3.898   0.309  0.00  0.00    +0.144 HD
ATOM     18  H   UNL     1       0.493   4.029  -0.288  0.00  0.00    +0.144 HD
ENDBRANCH  11  16
ENDBRANCH   1  13
BRANCH   1  19
ATOM     19  C   UNL     1       4.805   0.395   1.201  0.00  0.00    +0.173 C 
BRANCH  19  20
ATOM     20  C   UNL     1       6.128  -0.172   1.647  0.00  0.00    +0.226 C 
ATOM     21  O   UNL     1       6.279  -1.374   1.719  0.00  0.00    -0.275 OA
ATOM     22  N   UNL     1       7.143   0.655   1.966  0.00  0.00    -0.298 N 
ATOM     23  C   UNL     1       6.982   2.115   1.880  0.00  0.00    +0.126 C 
ATOM     24  C   UNL     1       7.431   2.729   3.216  0.00  0.00    +0.124 C 
ATOM     25  N   UNL     1       8.792   2.271   3.526  0.00  0.00    -0.325 N 
ATOM     26  C   UNL     1       8.835   0.815   3.714  0.00  0.00    +0.124 C 
ATOM     27  C   UNL     1       8.442   0.123   2.404  0.00  0.00    +0.126 C 
BRANCH  25  28
ATOM     28  C   UNL     1       9.300   2.935   4.644  0.00  0.00    +0.060 A 
ATOM     29  C   UNL     1       8.700   2.768   5.886  0.00  0.00    +0.025 A 
ATOM     30  C   UNL     1       9.209   3.422   6.991  0.00  0.00    +0.002 A 
ATOM     31  C   UNL     1      10.308   4.251   6.860  0.00  0.00    +0.002 A 
ATOM     32  C   UNL     1      10.904   4.424   5.625  0.00  0.00    +0.034 A 
ATOM     33  C   UNL     1      10.404   3.769   4.517  0.00  0.00    +0.147 A 
BRANCH  33  34
ATOM     34  N   UNL     1      11.043   3.956   3.195  0.00  0.00    +0.058 N 
ATOM     35  O   UNL     1      12.011   4.687   3.084  0.00  0.00    -0.126 OA
ATOM     36  O   UNL     1      10.601   3.378   2.218  0.00  0.00    -0.126 OA
ENDBRANCH  33  34
ENDBRANCH  25  28
ENDBRANCH  19  20
ENDBRANCH   1  19
TORSDOF 6
