REMARK  Name = ZINC62688604
REMARK  7 active torsions:
REMARK  status: ('A' for Active; 'I' for Inactive)
REMARK    1  A    between atoms: C_1  and  C_2
REMARK    2  A    between atoms: C_2  and  C_3
REMARK    3  A    between atoms: C_2  and  O_4
REMARK    4  A    between atoms: O_4  and  C_5
REMARK    5  A    between atoms: C_8  and  S_11
REMARK    6  A    between atoms: S_11  and  N_14
REMARK    7  A    between atoms: C_20  and  C_22
REMARK                            x       y       z     vdW  Elec       q    Type
REMARK                         _______ _______ _______ _____ _____    ______ ____
ROOT
ATOM      1  N   UNL     1      -2.350  -7.949  -1.827  0.00  0.00    -0.159 NA
ATOM      2  C   UNL     1      -0.999  -8.463  -2.107  0.00  0.00    +0.129 C 
ATOM      3  C   UNL     1       0.016  -7.501  -1.485  0.00  0.00    +0.121 C 
ATOM      4  N   UNL     1      -0.363  -7.161  -0.121  0.00  0.00    -0.312 N 
ATOM      5  C   UNL     1      -1.600  -7.261   0.369  0.00  0.00    +0.236 C 
ATOM      6  O   UNL     1      -1.808  -6.873   1.499  0.00  0.00    -0.274 OA
ATOM      7  C   UNL     1      -2.747  -7.827  -0.416  0.00  0.00    +0.195 C 
ATOM      8  H   UNL     1       0.333  -6.840   0.474  0.00  0.00    +0.149 HD
ENDROOT
BRANCH   7   9
ATOM      9  C   UNL     1      -3.937  -6.910  -0.303  0.00  0.00    -0.019 A 
ATOM     10  C   UNL     1      -3.764  -5.540  -0.388  0.00  0.00    +0.006 A 
ATOM     11  C   UNL     1      -4.855  -4.698  -0.284  0.00  0.00    +0.002 A 
ATOM     12  C   UNL     1      -6.119  -5.224  -0.096  0.00  0.00    +0.020 A 
ATOM     13  C   UNL     1      -6.293  -6.594  -0.011  0.00  0.00    +0.041 A 
ATOM     14  C   UNL     1      -5.201  -7.437  -0.121  0.00  0.00    +0.025 A 
ATOM     15 CL   UNL     1      -7.880  -7.255   0.226  0.00  0.00    -0.084 Cl
ENDBRANCH   7   9
BRANCH   1  16
ATOM     16  S   UNL     1      -3.380  -7.520  -3.051  0.00  0.00    +0.062 S 
ATOM     17  O   UNL     1      -2.568  -7.045  -4.117  0.00  0.00    -0.153 OA
ATOM     18  O   UNL     1      -4.403  -6.729  -2.462  0.00  0.00    -0.153 OA
BRANCH  16  22
ATOM     19  C   UNL     1      -5.363 -11.314  -4.525  0.00  0.00    +0.121 A 
ATOM     20  C   UNL     1      -5.982 -10.538  -3.556  0.00  0.00    +0.047 A 
ATOM     21  C   UNL     1      -5.375  -9.381  -3.108  0.00  0.00    +0.032 A 
ATOM     22  C   UNL     1      -4.152  -8.996  -3.624  0.00  0.00    +0.106 A 
ATOM     23  C   UNL     1      -3.533  -9.768  -4.591  0.00  0.00    +0.032 A 
ATOM     24  C   UNL     1      -4.133 -10.929  -5.038  0.00  0.00    +0.047 A 
BRANCH  19  25
ATOM     25  O   UNL     1      -5.959 -12.453  -4.968  0.00  0.00    -0.489 OA
BRANCH  25  27
ATOM     26  C   UNL     1      -5.741 -14.611  -6.033  0.00  0.00    +0.051 C 
ATOM     27  C   UNL     1      -5.324 -13.139  -6.049  0.00  0.00    +0.167 C 
ATOM     28  C   UNL     1      -5.746 -12.503  -7.375  0.00  0.00    +0.051 C 
ENDBRANCH  25  27
ENDBRANCH  19  25
ENDBRANCH  16  22
ENDBRANCH   1  16
TORSDOF 5
