REMARK  Name = ZINC08072228
REMARK  8 active torsions:
REMARK  status: ('A' for Active; 'I' for Inactive)
REMARK    1  A    between atoms: C_1  and  C_2
REMARK    2  A    between atoms: C_3  and  C_29
REMARK    3  A    between atoms: N_4  and  C_23
REMARK    4  A    between atoms: C_5  and  N_9
REMARK    5  A    between atoms: C_6  and  C_7
REMARK    6  A    between atoms: C_10  and  C_12
REMARK    7  A    between atoms: C_12  and  N_59
REMARK    8  A    between atoms: C_16  and  C_18
REMARK                            x       y       z     vdW  Elec       q    Type
REMARK                         _______ _______ _______ _____ _____    ______ ____
ROOT
ATOM      1  N   UNL     1       4.576   2.509  -4.335  0.00  0.00    -0.272 N 
ATOM      2  C   UNL     1       4.926   1.257  -4.691  0.00  0.00    +0.202 C 
ATOM      3  O   UNL     1       5.639   1.078  -5.655  0.00  0.00    -0.278 OA
ATOM      4  H   UNL     1       4.023   2.654  -3.551  0.00  0.00    +0.156 HD
ENDROOT
BRANCH   1   9
ATOM      5  C   UNL     1       5.775   5.557  -8.184  0.00  0.00    +0.047 C 
ATOM      6  C   UNL     1       5.556   4.990  -6.805  0.00  0.00    -0.011 A 
ATOM      7  C   UNL     1       5.811   5.603  -5.637  0.00  0.00    +0.022 A 
ATOM      8  N   UNL     1       5.481   4.766  -4.605  0.00  0.00    -0.329 N 
ATOM      9  C   UNL     1       5.005   3.590  -5.091  0.00  0.00    +0.123 A 
ATOM     10  C   UNL     1       5.029   3.660  -6.476  0.00  0.00    +0.095 A 
ATOM     11  C   UNL     1       6.372   6.994  -5.486  0.00  0.00    +0.064 C 
BRANCH   8  12
ATOM     12  C   UNL     1       5.622   5.091  -3.184  0.00  0.00    +0.089 C 
ATOM     13  C   UNL     1       6.468   4.017  -2.496  0.00  0.00    +0.025 C 
ATOM     14  C   UNL     1       6.615   4.357  -1.012  0.00  0.00    +0.002 C 
ATOM     15  C   UNL     1       5.231   4.409  -0.361  0.00  0.00    +0.000 C 
ATOM     16  C   UNL     1       4.385   5.483  -1.048  0.00  0.00    +0.002 C 
ATOM     17  C   UNL     1       4.238   5.143  -2.533  0.00  0.00    +0.025 C 
ENDBRANCH   8  12
BRANCH  10  18
ATOM     18  C   UNL     1       4.621   2.643  -7.398  0.00  0.00    +0.103 C 
ATOM     19  N   UNL     1       4.297   1.837  -8.129  0.00  0.00    -0.191 NA
ENDBRANCH  10  18
ENDBRANCH   1   9
BRANCH   2  20
ATOM     20  C   UNL     1       4.433   0.080  -3.889  0.00  0.00    +0.020 C 
BRANCH  20  25
ATOM     21  C   UNL     1       4.310  -1.634  -5.614  0.00  0.00    -0.077 C 
ATOM     22  C   UNL     1       4.670  -3.131  -5.715  0.00  0.00    -0.020 C 
ATOM     23  C   UNL     1       5.057  -3.547  -4.280  0.00  0.00    -0.012 C 
ATOM     24  C   UNL     1       4.898  -2.266  -3.434  0.00  0.00    -0.030 C 
ATOM     25  N   UNL     1       5.027  -1.189  -4.414  0.00  0.00    +0.390 N 
ATOM     26  H   UNL     1       6.018  -1.032  -4.634  0.00  0.00    -0.080 HD
BRANCH  24  27
ATOM     27  C   UNL     1       5.983  -2.187  -2.391  0.00  0.00    -0.024 A 
ATOM     28  C   UNL     1       5.918  -2.474  -1.068  0.00  0.00    +0.009 A 
ATOM     29  C   UNL     1       7.052  -2.321  -0.292  0.00  0.00    +0.008 A 
ATOM     30  C   UNL     1       8.199  -1.901  -0.880  0.00  0.00    +0.045 A 
ATOM     31  S   UNL     1       7.688  -1.692  -2.578  0.00  0.00    -0.103 S 
ENDBRANCH  24  27
ENDBRANCH  20  25
ENDBRANCH   2  20
TORSDOF 6
