REMARK  Name = ZINC35400598
REMARK  9 active torsions:
REMARK  status: ('A' for Active; 'I' for Inactive)
REMARK    1  A    between atoms: C_1  and  C_2
REMARK    2  A    between atoms: C_2  and  C_3
REMARK    3  A    between atoms: C_3  and  O_4
REMARK    4  A    between atoms: O_4  and  C_5
REMARK    5  A    between atoms: C_8  and  C_11
REMARK    6  A    between atoms: C_22  and  C_24
REMARK    7  A    between atoms: C_22  and  C_34
REMARK    8  A    between atoms: C_24  and  C_25
REMARK    9  A    between atoms: C_28  and  N_31
REMARK                            x       y       z     vdW  Elec       q    Type
REMARK                         _______ _______ _______ _____ _____    ______ ____
ROOT
ATOM      1  C   UNL     1      -6.397  -4.588   0.038  0.00  0.00    +0.098 C 
ATOM      2  C   UNL     1      -6.667  -5.185   1.407  0.00  0.00    +0.113 C 
ATOM      3  C   UNL     1      -5.912  -6.556   1.213  0.00  0.00    +0.122 C 
ATOM      4  C   UNL     1      -5.764  -7.012   2.571  0.00  0.00    +0.245 C 
ATOM      5  O   UNL     1      -5.715  -8.284   2.995  0.00  0.00    -0.273 OA
ATOM      6  N   UNL     1      -5.685  -5.912   3.321  0.00  0.00    -0.145 NA
ATOM      7  C   UNL     1      -5.915  -4.744   2.624  0.00  0.00    +0.245 C 
ATOM      8  O   UNL     1      -5.594  -3.612   2.924  0.00  0.00    -0.273 OA
ATOM      9  C   UNL     1      -6.429  -7.006  -0.090  0.00  0.00    +0.138 C 
ATOM     10  N   UNL     1      -6.379  -5.744  -0.909  0.00  0.00    -0.293 NA
ATOM     11  H   UNL     1      -7.155  -5.697  -1.552  0.00  0.00    +0.124 HD
ENDROOT
BRANCH   1  15
ATOM     12  C   UNL     1      -2.616  -2.596   0.013  0.00  0.00    +0.121 A 
ATOM     13  C   UNL     1      -3.778  -1.878   0.257  0.00  0.00    +0.046 A 
ATOM     14  C   UNL     1      -4.999  -2.524   0.264  0.00  0.00    +0.009 A 
ATOM     15  C   UNL     1      -5.064  -3.885   0.029  0.00  0.00    -0.029 A 
ATOM     16  C   UNL     1      -3.907  -4.603  -0.213  0.00  0.00    +0.009 A 
ATOM     17  C   UNL     1      -2.684  -3.961  -0.228  0.00  0.00    +0.046 A 
BRANCH  12  18
ATOM     18  O   UNL     1      -1.414  -1.963   0.005  0.00  0.00    -0.492 OA
BRANCH  18  19
ATOM     19  C   UNL     1      -1.419  -0.557   0.261  0.00  0.00    +0.229 C 
BRANCH  19  21
ATOM     20  C   UNL     1       0.008   1.482   0.485  0.00  0.00    +0.007 C 
ATOM     21  C   UNL     1       0.014  -0.024   0.211  0.00  0.00    +0.038 C 
ENDBRANCH  19  21
ENDBRANCH  18  19
ENDBRANCH  12  18
ENDBRANCH   1  15
BRANCH   9  22
ATOM     22  C   UNL     1      -7.846  -7.505   0.039  0.00  0.00    +0.377 C 
ATOM     23  O   UNL     1      -8.740  -6.970  -0.594  0.00  0.00    -0.244 OA
ATOM     24  O   UNL     1      -8.097  -8.443   0.775  0.00  0.00    -0.244 OA
ENDBRANCH   9  22
BRANCH   9  25
ATOM     25  C   UNL     1      -5.524  -8.083  -0.693  0.00  0.00    +0.069 C 
BRANCH  25  26
ATOM     26  C   UNL     1      -6.012  -8.433  -2.075  0.00  0.00    -0.045 A 
ATOM     27  C   UNL     1      -6.943  -9.440  -2.245  0.00  0.00    +0.006 A 
ATOM     28  C   UNL     1      -7.390  -9.761  -3.514  0.00  0.00    +0.033 A 
ATOM     29  C   UNL     1      -6.907  -9.074  -4.611  0.00  0.00    +0.126 A 
ATOM     30  C   UNL     1      -5.976  -8.066  -4.441  0.00  0.00    +0.033 A 
ATOM     31  C   UNL     1      -5.532  -7.742  -3.173  0.00  0.00    +0.006 A 
BRANCH  29  32
ATOM     32  N   UNL     1      -7.385  -9.418  -5.969  0.00  0.00    +0.056 N 
ATOM     33  O   UNL     1      -8.198 -10.300  -6.118  0.00  0.00    -0.126 OA
ATOM     34  O   UNL     1      -6.962  -8.817  -6.929  0.00  0.00    -0.126 OA
ENDBRANCH  29  32
ENDBRANCH  25  26
ENDBRANCH   9  25
TORSDOF 8
