REMARK  Name = ZINC59048182
REMARK  10 active torsions:
REMARK  status: ('A' for Active; 'I' for Inactive)
REMARK    1  A    between atoms: C_1  and  C_2
REMARK    2  A    between atoms: C_2  and  O_3
REMARK    3  A    between atoms: O_3  and  C_4
REMARK    4  A    between atoms: C_4  and  C_6
REMARK    5  A    between atoms: C_10  and  N_11
REMARK    6  A    between atoms: C_12  and  C_14
REMARK    7  A    between atoms: C_14  and  S_15
REMARK    8  A    between atoms: S_15  and  C_16
REMARK    9  A    between atoms: C_19  and  C_27
REMARK   10  A    between atoms: N_20  and  C_21
REMARK                            x       y       z     vdW  Elec       q    Type
REMARK                         _______ _______ _______ _____ _____    ______ ____
ROOT
ATOM      1  C   UNL     1       6.016  -2.615   0.411  0.00  0.00    +0.173 C 
ENDROOT
BRANCH   1   3
ATOM      2  N   UNL     1       3.749  -2.622   1.400  0.00  0.00    -0.279 N 
ATOM      3  C   UNL     1       5.073  -2.808   1.571  0.00  0.00    +0.228 C 
ATOM      4  O   UNL     1       5.505  -3.130   2.657  0.00  0.00    -0.275 OA
ATOM      5  H   UNL     1       3.403  -2.365   0.531  0.00  0.00    +0.155 HD
BRANCH   2  10
ATOM      6  C   UNL     1       1.502  -2.653   2.477  0.00  0.00    +0.091 A 
ATOM      7  C   UNL     1       0.818  -2.905   3.734  0.00  0.00    -0.021 A 
ATOM      8  C   UNL     1       1.637  -3.250   4.750  0.00  0.00    -0.004 A 
ATOM      9  S   UNL     1       3.259  -3.237   4.043  0.00  0.00    -0.077 S 
ATOM     10  C   UNL     1       2.881  -2.799   2.467  0.00  0.00    +0.086 A 
ATOM     11  C   UNL     1       1.240  -3.569   6.158  0.00  0.00    +0.043 C 
ATOM     12  C   UNL     1      -0.200  -3.080   6.375  0.00  0.00    +0.005 C 
ATOM     13  C   UNL     1      -1.067  -3.558   5.207  0.00  0.00    +0.005 C 
ATOM     14  C   UNL     1      -0.688  -2.801   3.932  0.00  0.00    +0.037 C 
BRANCH   6  15
ATOM     15  C   UNL     1       0.766  -2.267   1.271  0.00  0.00    +0.342 C 
ATOM     16  O   UNL     1       0.351  -3.122   0.512  0.00  0.00    -0.245 OA
BRANCH  15  17
ATOM     17  O   UNL     1       0.548  -0.964   1.002  0.00  0.00    -0.461 OA
BRANCH  17  19
ATOM     18  C   UNL     1      -0.325   0.857  -0.326  0.00  0.00    +0.048 C 
ATOM     19  C   UNL     1      -0.177  -0.660  -0.191  0.00  0.00    +0.229 C 
ENDBRANCH  17  19
ENDBRANCH  15  17
ENDBRANCH   6  15
ENDBRANCH   2  10
ENDBRANCH   1   3
BRANCH   1  20
ATOM     20  S   UNL     1       7.716  -2.937   0.956  0.00  0.00    -0.076 S 
BRANCH  20  21
ATOM     21  C   UNL     1       8.684  -2.674  -0.493  0.00  0.00    +0.197 A 
ATOM     22  N   UNL     1       8.236  -2.320  -1.677  0.00  0.00    -0.122 NA
ATOM     23  N   UNL     1       9.212  -2.216  -2.507  0.00  0.00    -0.128 NA
ATOM     24  C   UNL     1      10.345  -2.498  -1.906  0.00  0.00    +0.171 A 
ATOM     25  N   UNL     1      10.043  -2.795  -0.594  0.00  0.00    -0.270 N 
BRANCH  25  26
ATOM     26  C   UNL     1      10.941  -3.148   0.422  0.00  0.00    +0.051 A 
ATOM     27  C   UNL     1      11.842  -2.213   0.911  0.00  0.00    +0.026 A 
ATOM     28  C   UNL     1      12.726  -2.564   1.913  0.00  0.00    +0.002 A 
ATOM     29  C   UNL     1      12.713  -3.847   2.429  0.00  0.00    +0.000 A 
ATOM     30  C   UNL     1      11.816  -4.782   1.944  0.00  0.00    +0.002 A 
ATOM     31  C   UNL     1      10.927  -4.434   0.947  0.00  0.00    +0.026 A 
ENDBRANCH  25  26
BRANCH  24  32
ATOM     32  C   UNL     1      11.690  -2.493  -2.519  0.00  0.00    +0.038 A 
ATOM     33  C   UNL     1      12.757  -3.154  -1.899  0.00  0.00    +0.014 A 
ATOM     34  C   UNL     1      13.996  -3.118  -2.514  0.00  0.00    +0.020 A 
ATOM     35  C   UNL     1      14.140  -2.437  -3.710  0.00  0.00    +0.111 A 
ATOM     36  N   UNL     1      13.116  -1.823  -4.270  0.00  0.00    -0.263 NA
ATOM     37  C   UNL     1      11.916  -1.833  -3.728  0.00  0.00    +0.122 A 
ENDBRANCH  24  32
ENDBRANCH  20  21
ENDBRANCH   1  20
TORSDOF 9
