REMARK  Name = ZINC36550932
REMARK  7 active torsions:
REMARK  status: ('A' for Active; 'I' for Inactive)
REMARK    1  A    between atoms: C_1  and  C_2
REMARK    2  A    between atoms: C_2  and  O_37
REMARK    3  A    between atoms: C_6  and  C_28
REMARK    4  A    between atoms: C_8  and  C_21
REMARK    5  A    between atoms: C_10  and  C_12
REMARK    6  A    between atoms: N_14  and  C_15
REMARK    7  A    between atoms: N_30  and  C_31
REMARK                            x       y       z     vdW  Elec       q    Type
REMARK                         _______ _______ _______ _____ _____    ______ ____
ROOT
ATOM      1  C   UNL     1       1.200   1.736   0.986  0.00  0.00    +0.042 C 
ATOM      2  C   UNL     1       1.484   0.260   0.702  0.00  0.00    +0.082 C 
ATOM      3  C   UNL     1       2.275   0.134  -0.604  0.00  0.00    +0.110 C 
ATOM      4  C   UNL     1       3.631   0.775  -0.408  0.00  0.00    +0.148 C 
ATOM      5  O   UNL     1       4.045   1.599  -1.188  0.00  0.00    -0.296 OA
ATOM      6  C   UNL     1       4.456   0.357   0.789  0.00  0.00    +0.149 C 
ATOM      7  C   UNL     1       3.585   0.475   2.045  0.00  0.00    +0.053 C 
ATOM      8  C   UNL     1       2.301  -0.333   1.851  0.00  0.00    +0.115 C 
ENDROOT
BRANCH   7   9
ATOM      9  C   UNL     1       4.342  -0.060   3.233  0.00  0.00    -0.042 A 
ATOM     10  C   UNL     1       4.555  -1.420   3.361  0.00  0.00    +0.005 A 
ATOM     11  C   UNL     1       5.248  -1.911   4.451  0.00  0.00    +0.020 A 
ATOM     12  C   UNL     1       5.730  -1.042   5.414  0.00  0.00    +0.041 A 
ATOM     13  C   UNL     1       5.516   0.319   5.285  0.00  0.00    +0.020 A 
ATOM     14  C   UNL     1       4.827   0.809   4.192  0.00  0.00    +0.005 A 
ATOM     15 CL   UNL     1       6.601  -1.659   6.783  0.00  0.00    -0.084 Cl
ENDBRANCH   7   9
BRANCH   8  16
ATOM     16  C   UNL     1       2.653  -1.763   1.529  0.00  0.00    +0.224 C 
ATOM     17  O   UNL     1       3.042  -2.057   0.418  0.00  0.00    -0.275 OA
ATOM     18  N   UNL     1       2.537  -2.715   2.476  0.00  0.00    -0.285 N 
ATOM     19  H   UNL     1       2.288  -2.470   3.382  0.00  0.00    +0.155 HD
BRANCH  18  20
ATOM     20  C   UNL     1       2.773  -4.056   2.153  0.00  0.00    +0.033 A 
ATOM     21  C   UNL     1       2.667  -4.483   0.837  0.00  0.00    +0.023 A 
ATOM     22  C   UNL     1       2.901  -5.807   0.521  0.00  0.00    +0.002 A 
ATOM     23  C   UNL     1       3.241  -6.707   1.515  0.00  0.00    +0.000 A 
ATOM     24  C   UNL     1       3.348  -6.284   2.827  0.00  0.00    +0.002 A 
ATOM     25  C   UNL     1       3.121  -4.960   3.148  0.00  0.00    +0.023 A 
ENDBRANCH  18  20
ENDBRANCH   8  16
BRANCH   6  26
ATOM     26  C   UNL     1       4.912  -1.069   0.618  0.00  0.00    +0.228 C 
ATOM     27  O   UNL     1       5.483  -1.636   1.525  0.00  0.00    -0.275 OA
ATOM     28  N   UNL     1       4.687  -1.713  -0.544  0.00  0.00    -0.285 N 
ATOM     29  H   UNL     1       4.278  -1.243  -1.288  0.00  0.00    +0.155 HD
BRANCH  28  30
ATOM     30  C   UNL     1       5.042  -3.060  -0.678  0.00  0.00    +0.033 A 
ATOM     31  C   UNL     1       5.320  -3.821   0.450  0.00  0.00    +0.023 A 
ATOM     32  C   UNL     1       5.670  -5.150   0.315  0.00  0.00    +0.002 A 
ATOM     33  C   UNL     1       5.744  -5.723  -0.941  0.00  0.00    +0.000 A 
ATOM     34  C   UNL     1       5.468  -4.968  -2.066  0.00  0.00    +0.002 A 
ATOM     35  C   UNL     1       5.112  -3.640  -1.938  0.00  0.00    +0.023 A 
ENDBRANCH  28  30
ENDBRANCH   6  26
BRANCH   2  36
ATOM     36  O   UNL     1       0.248  -0.448   0.581  0.00  0.00    -0.388 OA
ATOM     37  H   UNL     1      -0.322  -0.125  -0.130  0.00  0.00    +0.210 HD
ENDBRANCH   2  36
TORSDOF 6
