REMARK  Name = ZINC13495617
REMARK  13 active torsions:
REMARK  status: ('A' for Active; 'I' for Inactive)
REMARK    1  A    between atoms: C_1  and  C_2
REMARK    2  A    between atoms: C_2  and  C_3
REMARK    3  A    between atoms: C_3  and  C_5
REMARK    4  A    between atoms: C_3  and  N_19
REMARK    5  A    between atoms: N_9  and  C_10
REMARK    6  A    between atoms: C_10  and  C_11
REMARK    7  A    between atoms: C_14  and  O_17
REMARK    8  A    between atoms: O_17  and  C_18
REMARK    9  A    between atoms: N_19  and  C_20
REMARK   10  A    between atoms: N_19  and  C_26
REMARK   11  A    between atoms: C_20  and  C_21
REMARK   12  A    between atoms: C_26  and  C_27
REMARK   13  A    between atoms: C_31  and  C_39
REMARK                            x       y       z     vdW  Elec       q    Type
REMARK                         _______ _______ _______ _____ _____    ______ ____
ROOT
ATOM      1  N   UNL     1      -0.331  -0.144  -2.643  0.00  0.00    -0.281 NA
ENDROOT
BRANCH   1   2
ATOM      2  C   UNL     1       0.580  -0.818  -1.708  0.00  0.00    +0.127 C 
BRANCH   2   3
ATOM      3  C   UNL     1       0.825  -2.230  -2.174  0.00  0.00    +0.169 A 
ATOM      4  N   UNL     1      -0.075  -3.079  -2.606  0.00  0.00    -0.112 NA
ATOM      5  N   UNL     1       0.526  -4.177  -2.909  0.00  0.00    -0.023 NA
ATOM      6  N   UNL     1       1.787  -4.050  -2.683  0.00  0.00    -0.044 NA
ATOM      7  N   UNL     1       2.012  -2.862  -2.233  0.00  0.00    -0.223 N 
BRANCH   7   8
ATOM      8  C   UNL     1       3.314  -2.306  -1.856  0.00  0.00    +0.182 C 
BRANCH   8   9
ATOM      9  C   UNL     1       3.576  -2.587  -0.398  0.00  0.00    -0.026 A 
ATOM     10  C   UNL     1       3.164  -1.683   0.563  0.00  0.00    +0.009 A 
ATOM     11  C   UNL     1       3.403  -1.937   1.900  0.00  0.00    +0.046 A 
ATOM     12  C   UNL     1       4.057  -3.101   2.277  0.00  0.00    +0.120 A 
ATOM     13  C   UNL     1       4.470  -4.007   1.310  0.00  0.00    +0.046 A 
ATOM     14  C   UNL     1       4.223  -3.750  -0.025  0.00  0.00    +0.009 A 
BRANCH  12  15
ATOM     15  O   UNL     1       4.295  -3.353   3.591  0.00  0.00    -0.495 OA
ATOM     16  C   UNL     1       4.973  -4.571   3.905  0.00  0.00    +0.277 C 
ENDBRANCH  12  15
ENDBRANCH   8   9
ENDBRANCH   7   8
ENDBRANCH   2   3
BRANCH   2  18
ATOM     17  C   UNL     1      -0.241   0.590   0.186  0.00  0.00    +0.006 C 
ATOM     18  C   UNL     1      -0.049  -0.843  -0.313  0.00  0.00    +0.023 C 
ENDBRANCH   2  18
ENDBRANCH   1   2
BRANCH   1  19
ATOM     19  C   UNL     1      -1.725  -0.535  -2.394  0.00  0.00    +0.159 C 
BRANCH  19  20
ATOM     20  C   UNL     1      -2.574  -0.150  -3.578  0.00  0.00    +0.119 A 
ATOM     21  C   UNL     1      -2.861  -0.938  -4.630  0.00  0.00    +0.046 A 
ATOM     22  C   UNL     1      -3.680  -0.179  -5.498  0.00  0.00    +0.041 A 
ATOM     23  C   UNL     1      -3.844   1.026  -4.925  0.00  0.00    +0.195 A 
ATOM     24  O   UNL     1      -3.176   1.037  -3.759  0.00  0.00    -0.467 OA
ENDBRANCH  19  20
ENDBRANCH   1  19
BRANCH   1  25
ATOM     25  C   UNL     1      -0.172   1.315  -2.574  0.00  0.00    +0.126 C 
BRANCH  25  26
ATOM     26  C   UNL     1       1.068   1.722  -3.326  0.00  0.00    +0.031 A 
ATOM     27  C   UNL     1       0.980   2.079  -4.631  0.00  0.00    +0.020 A 
ATOM     28  C   UNL     1       2.204   2.469  -5.333  0.00  0.00    -0.001 A 
ATOM     29  C   UNL     1       2.176   2.848  -6.680  0.00  0.00    +0.013 A 
ATOM     30  C   UNL     1       3.335   3.208  -7.306  0.00  0.00    -0.050 A 
ATOM     31  C   UNL     1       4.542   3.200  -6.619  0.00  0.00    +0.005 A 
ATOM     32  C   UNL     1       4.593   2.830  -5.292  0.00  0.00    +0.026 A 
ATOM     33  C   UNL     1       3.425   2.461  -4.633  0.00  0.00    +0.049 A 
ATOM     34  N   UNL     1       3.447   2.087  -3.306  0.00  0.00    -0.322 N 
ATOM     35  H   UNL     1       4.289   2.082  -2.825  0.00  0.00    +0.169 HD
ATOM     36  C   UNL     1       2.317   1.735  -2.668  0.00  0.00    +0.254 A 
ATOM     37  O   UNL     1       2.373   1.415  -1.493  0.00  0.00    -0.268 OA
ATOM     38  C   UNL     1       3.305   3.616  -8.757  0.00  0.00    +0.044 C 
ENDBRANCH  25  26
ENDBRANCH   1  25
TORSDOF 10
