REMARK  Name = ZINC08991448
REMARK  9 active torsions:
REMARK  status: ('A' for Active; 'I' for Inactive)
REMARK    1  A    between atoms: C_1  and  C_2
REMARK    2  A    between atoms: C_2  and  N_3
REMARK    3  A    between atoms: C_5  and  C_14
REMARK    4  A    between atoms: C_10  and  O_12
REMARK    5  A    between atoms: O_12  and  C_13
REMARK    6  A    between atoms: C_21  and  O_33
REMARK    7  A    between atoms: C_22  and  C_25
REMARK    8  A    between atoms: C_25  and  N_63
REMARK    9  A    between atoms: C_30  and  C_32
REMARK                            x       y       z     vdW  Elec       q    Type
REMARK                         _______ _______ _______ _____ _____    ______ ____
ROOT
ATOM      1  C   UNL     1      -5.601   5.887   0.184  0.00  0.00    +0.060 C 
ATOM      2  C   UNL     1      -5.231   4.916   1.066  0.00  0.00    +0.176 C 
ATOM      3  C   UNL     1      -6.112   4.032   1.744  0.00  0.00    +0.231 C 
ATOM      4  O   UNL     1      -7.328   3.987   1.657  0.00  0.00    -0.283 OA
ATOM      5  C   UNL     1      -5.242   3.181   2.574  0.00  0.00    +0.068 A 
ATOM      6  C   UNL     1      -5.486   2.132   3.460  0.00  0.00    +0.019 A 
ATOM      7  C   UNL     1      -4.443   1.522   4.097  0.00  0.00    +0.046 A 
ATOM      8  C   UNL     1      -3.136   1.945   3.865  0.00  0.00    +0.122 A 
ATOM      9  C   UNL     1      -2.878   2.986   2.987  0.00  0.00    +0.020 A 
ATOM     10  C   UNL     1      -3.929   3.619   2.336  0.00  0.00    +0.144 A 
ATOM     11  O   UNL     1      -3.962   4.632   1.444  0.00  0.00    -0.451 OA
ENDROOT
BRANCH   1  14
ATOM     12  N   UNL     1      -9.057   5.418  -0.889  0.00  0.00    -0.346 N 
ATOM     13  C   UNL     1      -7.856   4.932  -0.489  0.00  0.00    +0.094 A 
ATOM     14  C   UNL     1      -6.989   5.979  -0.261  0.00  0.00    +0.004 A 
ATOM     15  C   UNL     1      -7.742   7.213  -0.562  0.00  0.00    +0.011 A 
ATOM     16  C   UNL     1      -9.026   6.798  -0.949  0.00  0.00    +0.050 A 
ATOM     17  C   UNL     1      -9.976   7.752  -1.298  0.00  0.00    +0.030 A 
ATOM     18  C   UNL     1      -9.653   9.091  -1.264  0.00  0.00    +0.047 A 
ATOM     19  C   UNL     1      -8.381   9.503  -0.880  0.00  0.00    +0.121 A 
ATOM     20  C   UNL     1      -7.424   8.568  -0.530  0.00  0.00    +0.056 A 
BRANCH  12  22
ATOM     21  C   UNL     1     -10.261   4.342  -2.726  0.00  0.00    +0.027 C 
ATOM     22  C   UNL     1     -10.223   4.594  -1.217  0.00  0.00    +0.118 C 
ENDBRANCH  12  22
BRANCH  19  23
ATOM     23  O   UNL     1      -8.077  10.828  -0.850  0.00  0.00    -0.495 OA
ATOM     24  C   UNL     1      -9.112  11.739  -1.224  0.00  0.00    +0.277 C 
ENDBRANCH  19  23
ENDBRANCH   1  14
BRANCH   8  25
ATOM     25  O   UNL     1      -2.107   1.332   4.504  0.00  0.00    -0.506 OA
ATOM     26  H   UNL     1      -1.878   1.732   5.354  0.00  0.00    +0.292 HD
ENDBRANCH   8  25
BRANCH   9  27
ATOM     27  C   UNL     1      -1.460   3.434   2.745  0.00  0.00    -0.035 C 
BRANCH  27  34
ATOM     28  C   UNL     1      -0.845   1.341   1.696  0.00  0.00    -0.078 C 
ATOM     29  C   UNL     1      -0.448   0.696   0.366  0.00  0.00    -0.019 C 
ATOM     30  C   UNL     1       0.896   1.270  -0.092  0.00  0.00    -0.003 C 
ATOM     31  C   UNL     1       0.777   2.792  -0.215  0.00  0.00    -0.016 C 
ATOM     32  C   UNL     1       0.344   3.376   1.131  0.00  0.00    -0.071 C 
ATOM     33  C   UNL     1       0.203   4.894   1.007  0.00  0.00    -0.013 C 
ATOM     34  N   UNL     1      -0.967   2.802   1.504  0.00  0.00    +0.384 N 
ATOM     35  H   UNL     1      -1.637   2.983   0.748  0.00  0.00    -0.081 HD
ENDBRANCH  27  34
ENDBRANCH   9  27
TORSDOF 6
