REMARK  Name = ZINC22713952
REMARK  14 active torsions:
REMARK  status: ('A' for Active; 'I' for Inactive)
REMARK    1  A    between atoms: C_1  and  C_2
REMARK    2  A    between atoms: C_4  and  C_11
REMARK    3  A    between atoms: C_5  and  C_10
REMARK    4  A    between atoms: N_6  and  C_7
REMARK    5  A    between atoms: C_7  and  C_8
REMARK    6  A    between atoms: C_11  and  C_13
REMARK    7  A    between atoms: C_13  and  S_14
REMARK    8  A    between atoms: S_14  and  C_15
REMARK    9  A    between atoms: C_18  and  C_28
REMARK   10  A    between atoms: N_19  and  C_20
REMARK   11  A    between atoms: C_23  and  O_26
REMARK   12  A    between atoms: O_26  and  C_27
REMARK   13  A    between atoms: C_28  and  C_30
REMARK   14  A    between atoms: C_28  and  N_31
REMARK                            x       y       z     vdW  Elec       q    Type
REMARK                         _______ _______ _______ _____ _____    ______ ____
ROOT
ATOM      1  C   UNL     1      -2.007  -5.408  -7.589  0.00  0.00    +0.196 A 
ATOM      2  N   UNL     1      -1.454  -6.384  -6.907  0.00  0.00    -0.122 NA
ATOM      3  N   UNL     1      -1.319  -7.420  -7.655  0.00  0.00    -0.135 NA
ATOM      4  C   UNL     1      -1.775  -7.173  -8.850  0.00  0.00    +0.125 A 
ATOM      5  N   UNL     1      -2.236  -5.883  -8.851  0.00  0.00    -0.275 N 
ENDROOT
BRANCH   5   6
ATOM      6  C   UNL     1      -2.819  -5.191  -9.925  0.00  0.00    +0.050 A 
ATOM      7  C   UNL     1      -4.036  -5.612 -10.444  0.00  0.00    +0.030 A 
ATOM      8  C   UNL     1      -4.612  -4.928 -11.496  0.00  0.00    +0.047 A 
ATOM      9  C   UNL     1      -3.968  -3.828 -12.043  0.00  0.00    +0.120 A 
ATOM     10  C   UNL     1      -2.749  -3.410 -11.528  0.00  0.00    +0.047 A 
ATOM     11  C   UNL     1      -2.176  -4.090 -10.472  0.00  0.00    +0.030 A 
BRANCH   9  12
ATOM     12  O   UNL     1      -4.533  -3.158 -13.083  0.00  0.00    -0.495 OA
ATOM     13  C   UNL     1      -5.789  -3.643 -13.562  0.00  0.00    +0.277 C 
ENDBRANCH   9  12
ENDBRANCH   5   6
BRANCH   4  14
ATOM     14  C   UNL     1      -1.796  -8.130 -10.014  0.00  0.00    -0.002 C 
ATOM     15  C   UNL     1      -2.907  -9.161  -9.806  0.00  0.00    -0.005 C 
BRANCH  14  16
ATOM     16  N   UNL     1      -0.501  -8.817 -10.106  0.00  0.00    +0.386 N 
ATOM     17  C   UNL     1       0.601  -7.852 -10.206  0.00  0.00    -0.078 C 
ATOM     18  C   UNL     1       1.938  -8.595 -10.154  0.00  0.00    -0.019 C 
ATOM     19  C   UNL     1       2.005  -9.596 -11.310  0.00  0.00    -0.004 C 
ATOM     20  C   UNL     1       0.819 -10.560 -11.210  0.00  0.00    -0.019 C 
ATOM     21  C   UNL     1      -0.485  -9.760 -11.232  0.00  0.00    -0.078 C 
ATOM     22  H   UNL     1      -0.357  -9.396  -9.182  0.00  0.00    -0.081 HD
ENDBRANCH  14  16
ENDBRANCH   4  14
BRANCH   1  23
ATOM     23  S   UNL     1      -2.391  -3.796  -6.991  0.00  0.00    -0.078 S 
BRANCH  23  24
ATOM     24  C   UNL     1      -1.809  -3.948  -5.283  0.00  0.00    +0.157 C 
BRANCH  24  25
ATOM     25  C   UNL     1      -2.042  -2.649  -4.556  0.00  0.00    +0.175 C 
ATOM     26  O   UNL     1      -2.551  -1.712  -5.135  0.00  0.00    -0.291 OA
BRANCH  25  30
ATOM     27  C   UNL     1      -0.245  -3.664   0.103  0.00  0.00    +0.063 C 
ATOM     28  C   UNL     1      -0.855  -2.984  -1.095  0.00  0.00    +0.017 A 
ATOM     29  C   UNL     1      -1.031  -3.545  -2.304  0.00  0.00    +0.034 A 
ATOM     30  C   UNL     1      -1.654  -2.518  -3.150  0.00  0.00    +0.039 A 
ATOM     31  C   UNL     1      -1.805  -1.405  -2.344  0.00  0.00    +0.027 A 
ATOM     32  N   UNL     1      -1.318  -1.700  -1.126  0.00  0.00    -0.344 N 
ATOM     33  C   UNL     1      -2.407  -0.087  -2.761  0.00  0.00    +0.064 C 
BRANCH  32  34
ATOM     34  C   UNL     1      -1.293  -0.775   0.010  0.00  0.00    +0.148 C 
BRANCH  34  35
ATOM     35  C   UNL     1       0.002  -0.004   0.002  0.00  0.00    -0.013 C 
ATOM     36  C   UNL     1      -0.016   1.306   0.009  0.00  0.00    +0.005 C 
ENDBRANCH  34  35
ENDBRANCH  32  34
ENDBRANCH  25  30
ENDBRANCH  24  25
ENDBRANCH  23  24
ENDBRANCH   1  23
TORSDOF 10
