REMARK  Name = ZINC08695219
REMARK  18 active torsions:
REMARK  status: ('A' for Active; 'I' for Inactive)
REMARK    1  A    between atoms: C_1  and  C_2
REMARK    2  A    between atoms: C_2  and  C_3
REMARK    3  A    between atoms: C_3  and  C_4
REMARK    4  A    between atoms: C_4  and  N_75
REMARK    5  A    between atoms: C_5  and  C_6
REMARK    6  A    between atoms: C_5  and  N_75
REMARK    7  A    between atoms: C_6  and  C_7
REMARK    8  A    between atoms: C_7  and  C_8
REMARK    9  A    between atoms: C_9  and  C_10
REMARK   10  A    between atoms: C_9  and  N_75
REMARK   11  A    between atoms: C_10  and  C_11
REMARK   12  A    between atoms: C_11  and  N_12
REMARK   13  A    between atoms: C_13  and  C_28
REMARK   14  A    between atoms: C_15  and  C_20
REMARK   15  A    between atoms: C_16  and  O_19
REMARK   16  A    between atoms: C_20  and  C_22
REMARK   17  A    between atoms: C_31  and  C_34
REMARK   18  A    between atoms: C_34  and  C_35
REMARK                            x       y       z     vdW  Elec       q    Type
REMARK                         _______ _______ _______ _____ _____    ______ ____
ROOT
ATOM      1  N   UNL     1      -3.755   1.265  -0.321  0.00  0.00    -0.284 N 
ATOM      2  C   UNL     1      -3.200   0.522   0.816  0.00  0.00    +0.144 C 
ATOM      3  C   UNL     1      -4.354   0.272   1.759  0.00  0.00    +0.071 C 
ATOM      4  C   UNL     1      -5.449   0.829   1.192  0.00  0.00    +0.188 C 
ATOM      5  C   UNL     1      -5.070   1.443  -0.098  0.00  0.00    +0.282 C 
ATOM      6  O   UNL     1      -5.832   2.022  -0.846  0.00  0.00    -0.267 OA
ENDROOT
BRANCH   2   7
ATOM      7  C   UNL     1      -2.138   1.341   1.502  0.00  0.00    -0.022 A 
ATOM      8  C   UNL     1      -0.963   0.743   1.917  0.00  0.00    +0.006 A 
ATOM      9  C   UNL     1       0.014   1.496   2.541  0.00  0.00    +0.004 A 
ATOM     10  C   UNL     1      -0.186   2.846   2.755  0.00  0.00    -0.048 A 
ATOM     11  C   UNL     1      -1.363   3.444   2.345  0.00  0.00    +0.004 A 
ATOM     12  C   UNL     1      -2.340   2.691   1.722  0.00  0.00    +0.006 A 
BRANCH  10  13
ATOM     13  C   UNL     1       0.879   3.667   3.435  0.00  0.00    +0.032 C 
ATOM     14  C   UNL     1       1.833   4.237   2.384  0.00  0.00    +0.009 C 
ENDBRANCH  10  13
ENDBRANCH   2   7
BRANCH   4  15
ATOM     15  O   UNL     1      -6.694   0.825   1.722  0.00  0.00    -0.502 OA
ATOM     16  H   UNL     1      -7.321   1.302   1.105  0.00  0.00    +0.292 HD
ENDBRANCH   4  15
BRANCH   3  17
ATOM     17  C   UNL     1      -4.297  -0.436   3.042  0.00  0.00    +0.195 C 
ATOM     18  O   UNL     1      -4.536   0.158   4.076  0.00  0.00    -0.287 OA
BRANCH  17  19
ATOM     19  C   UNL     1      -3.950  -1.873   3.078  0.00  0.00    +0.022 A 
ATOM     20  C   UNL     1      -3.799  -2.588   1.887  0.00  0.00    +0.012 A 
ATOM     21  C   UNL     1      -3.470  -3.927   1.928  0.00  0.00    +0.001 A 
ATOM     22  C   UNL     1      -3.300  -4.564   3.145  0.00  0.00    +0.000 A 
ATOM     23  C   UNL     1      -3.454  -3.863   4.328  0.00  0.00    +0.001 A 
ATOM     24  C   UNL     1      -3.777  -2.522   4.302  0.00  0.00    +0.012 A 
ENDBRANCH  17  19
ENDBRANCH   3  17
BRANCH   1  25
ATOM     25  C   UNL     1      -3.009   1.730  -1.493  0.00  0.00    +0.107 C 
BRANCH  25  26
ATOM     26  C   UNL     1      -3.033   0.649  -2.575  0.00  0.00    +0.000 C 
BRANCH  26  27
ATOM     27  C   UNL     1      -2.254   1.135  -3.799  0.00  0.00    -0.077 C 
BRANCH  27  28
ATOM     28  N   UNL     1      -2.268   0.072  -4.826  0.00  0.00    +0.380 N 
ATOM     29  H   UNL     1      -1.956  -0.808  -4.400  0.00  0.00    -0.082 HD
BRANCH  28  30
ATOM     30  C   UNL     1      -3.639  -0.107  -5.349  0.00  0.00    -0.079 C 
BRANCH  30  31
ATOM     31  C   UNL     1      -4.157   1.200  -5.954  0.00  0.00    -0.019 C 
BRANCH  31  33
ATOM     32  C   UNL     1      -6.077   2.282  -7.132  0.00  0.00    +0.004 C 
ATOM     33  C   UNL     1      -5.558   0.976  -6.527  0.00  0.00    -0.005 C 
ENDBRANCH  31  33
ENDBRANCH  30  31
ENDBRANCH  28  30
BRANCH  28  34
ATOM     34  C   UNL     1      -1.349   0.423  -5.929  0.00  0.00    -0.079 C 
BRANCH  34  35
ATOM     35  C   UNL     1      -1.216  -0.781  -6.863  0.00  0.00    -0.019 C 
BRANCH  35  36
ATOM     36  C   UNL     1      -0.204  -0.463  -7.965  0.00  0.00    -0.005 C 
ATOM     37  C   UNL     1      -0.070  -1.667  -8.899  0.00  0.00    +0.004 C 
ENDBRANCH  35  36
ENDBRANCH  34  35
ENDBRANCH  28  34
ENDBRANCH  27  28
ENDBRANCH  26  27
ENDBRANCH  25  26
ENDBRANCH   1  25
TORSDOF 15
