REMARK  Name = ZINC24453530
REMARK  6 active torsions:
REMARK  status: ('A' for Active; 'I' for Inactive)
REMARK    1  A    between atoms: C_1  and  C_2
REMARK    2  A    between atoms: C_5  and  N_8
REMARK    3  A    between atoms: C_9  and  C_11
REMARK    4  A    between atoms: C_11  and  N_12
REMARK    5  A    between atoms: C_15  and  C_19
REMARK    6  A    between atoms: C_15  and  C_20
REMARK                            x       y       z     vdW  Elec       q    Type
REMARK                         _______ _______ _______ _____ _____    ______ ____
ROOT
ATOM      1  N   UNL     1       3.636  -6.647   1.393  0.00  0.00    -0.215 N 
ATOM      2  C   UNL     1       4.860  -6.875   0.878  0.00  0.00    +0.251 C 
ATOM      3  O   UNL     1       5.208  -6.730  -0.275  0.00  0.00    -0.272 OA
ATOM      4  C   UNL     1       5.712  -7.351   2.038  0.00  0.00    +0.135 C 
ATOM      5  N   UNL     1       4.782  -7.334   3.180  0.00  0.00    -0.281 N 
ATOM      6  C   UNL     1       3.598  -6.905   2.706  0.00  0.00    +0.310 C 
ATOM      7  O   UNL     1       2.604  -6.771   3.392  0.00  0.00    -0.252 OA
ATOM      8  C   UNL     1       6.226  -8.769   1.783  0.00  0.00    +0.047 C 
ATOM      9  H   UNL     1       4.984  -7.581   4.096  0.00  0.00    +0.152 HD
ENDROOT
BRANCH   4  10
ATOM     10  C   UNL     1       6.860  -6.404   2.276  0.00  0.00    -0.015 A 
ATOM     11  C   UNL     1       7.397  -5.689   1.221  0.00  0.00    +0.006 A 
ATOM     12  C   UNL     1       8.450  -4.823   1.441  0.00  0.00    +0.004 A 
ATOM     13  C   UNL     1       8.969  -4.666   2.715  0.00  0.00    -0.044 A 
ATOM     14  C   UNL     1       8.432  -5.381   3.770  0.00  0.00    -0.044 A 
ATOM     15  C   UNL     1       7.373  -6.245   3.548  0.00  0.00    +0.010 A 
ATOM     16  C   UNL     1       9.168  -5.038   5.047  0.00  0.00    +0.036 C 
ATOM     17  C   UNL     1      10.485  -4.375   4.590  0.00  0.00    +0.009 C 
ATOM     18  C   UNL     1      10.102  -3.794   3.212  0.00  0.00    +0.036 C 
ENDBRANCH   4  10
BRANCH   1  19
ATOM     19  C   UNL     1       2.491  -6.170   0.615  0.00  0.00    +0.213 C 
BRANCH  19  21
ATOM     20  N   UNL     1       1.499  -3.999  -0.034  0.00  0.00    -0.311 N 
ATOM     21  C   UNL     1       2.470  -4.663   0.623  0.00  0.00    +0.231 C 
ATOM     22  O   UNL     1       3.328  -4.049   1.220  0.00  0.00    -0.274 OA
ATOM     23  H   UNL     1       0.813  -4.491  -0.512  0.00  0.00    +0.149 HD
BRANCH  20  28
ATOM     24  C   UNL     1      -0.019   1.526   0.010  0.00  0.00    +0.007 C 
ATOM     25  C   UNL     1       0.002  -0.004   0.002  0.00  0.00    -0.014 C 
ATOM     26  C   UNL     1       0.718  -0.497  -1.257  0.00  0.00    +0.005 C 
ATOM     27  C   UNL     1       0.739  -2.027  -1.265  0.00  0.00    +0.022 C 
ATOM     28  C   UNL     1       1.479  -2.534  -0.026  0.00  0.00    +0.073 C 
ATOM     29  C   UNL     1       0.763  -2.041   1.233  0.00  0.00    +0.022 C 
ATOM     30  C   UNL     1       0.742  -0.511   1.242  0.00  0.00    +0.005 C 
ENDBRANCH  20  28
ENDBRANCH  19  21
ENDBRANCH   1  19
TORSDOF 4
