REMARK  Name = ZINC60015902
REMARK  15 active torsions:
REMARK  status: ('A' for Active; 'I' for Inactive)
REMARK    1  A    between atoms: C_1  and  C_2
REMARK    2  A    between atoms: C_2  and  N_3
REMARK    3  A    between atoms: N_3  and  C_4
REMARK    4  A    between atoms: N_3  and  S_6
REMARK    5  A    between atoms: C_4  and  C_5
REMARK    6  A    between atoms: S_6  and  C_9
REMARK    7  A    between atoms: C_11  and  C_17
REMARK    8  A    between atoms: C_14  and  O_15
REMARK    9  A    between atoms: O_15  and  C_16
REMARK   10  A    between atoms: N_19  and  C_20
REMARK   11  A    between atoms: C_20  and  C_22
REMARK   12  A    between atoms: C_20  and  C_23
REMARK   13  A    between atoms: C_23  and  N_24
REMARK   14  A    between atoms: C_26  and  C_33
REMARK   15  A    between atoms: C_29  and  C_32
REMARK                            x       y       z     vdW  Elec       q    Type
REMARK                         _______ _______ _______ _____ _____    ______ ____
ROOT
ATOM      1  C   UNL     1      -3.107   0.086   2.015  0.00  0.00    +0.148 A 
ATOM      2  C   UNL     1      -4.473   0.088   2.190  0.00  0.00    +0.045 A 
ATOM      3  C   UNL     1      -5.124   1.259   2.585  0.00  0.00    +0.039 A 
ATOM      4  C   UNL     1      -4.385   2.426   2.800  0.00  0.00    +0.017 A 
ATOM      5  C   UNL     1      -3.019   2.416   2.623  0.00  0.00    +0.048 A 
ATOM      6  C   UNL     1      -2.375   1.247   2.236  0.00  0.00    +0.146 A 
ENDROOT
BRANCH   3   7
ATOM      7  C   UNL     1      -6.588   1.266   2.773  0.00  0.00    +0.244 C 
ATOM      8  O   UNL     1      -7.229   0.250   2.585  0.00  0.00    -0.270 OA
ATOM      9  N   UNL     1      -7.213   2.397   3.154  0.00  0.00    -0.311 N 
ATOM     10  H   UNL     1      -6.702   3.207   3.304  0.00  0.00    +0.149 HD
BRANCH   9  11
ATOM     11  C   UNL     1      -8.666   2.403   3.341  0.00  0.00    +0.054 C 
ATOM     12  C   UNL     1      -8.999   1.945   4.763  0.00  0.00    +0.026 C 
BRANCH  11  13
ATOM     13  C   UNL     1      -9.203   3.819   3.122  0.00  0.00    -0.057 C 
BRANCH  13  14
ATOM     14  N   UNL     1      -8.841   4.277   1.774  0.00  0.00    +0.381 N 
ATOM     15  C   UNL     1      -9.206   5.691   1.625  0.00  0.00    -0.076 C 
ATOM     16  C   UNL     1      -8.758   6.195   0.251  0.00  0.00    -0.031 C 
ATOM     17  C   UNL     1      -9.447   5.370  -0.839  0.00  0.00    +0.003 C 
ATOM     18  C   UNL     1      -9.119   3.889  -0.629  0.00  0.00    -0.031 C 
ATOM     19  C   UNL     1      -9.554   3.470   0.777  0.00  0.00    -0.076 C 
ATOM     20  C   UNL     1      -9.865   3.048  -1.667  0.00  0.00    +0.005 C 
ATOM     21  C   UNL     1      -9.141   7.668   0.098  0.00  0.00    +0.005 C 
ATOM     22  H   UNL     1      -7.846   4.173   1.641  0.00  0.00    -0.082 HD
ENDBRANCH  13  14
ENDBRANCH  11  13
ENDBRANCH   9  11
ENDBRANCH   3   7
BRANCH   1  23
ATOM     23  S   UNL     1      -2.285  -1.391   1.517  0.00  0.00    +0.064 S 
ATOM     24  O   UNL     1      -3.254  -2.430   1.564  0.00  0.00    -0.153 OA
ATOM     25  O   UNL     1      -1.071  -1.448   2.253  0.00  0.00    -0.153 OA
BRANCH  23  26
ATOM     26  N   UNL     1      -1.867  -1.206  -0.074  0.00  0.00    -0.177 NA
BRANCH  26  28
ATOM     27  C   UNL     1      -0.529   0.580  -1.076  0.00  0.00    +0.022 C 
ATOM     28  C   UNL     1      -0.503  -0.808  -0.432  0.00  0.00    +0.106 C 
ENDBRANCH  26  28
BRANCH  26  29
ATOM     29  C   UNL     1      -2.861  -1.440  -1.125  0.00  0.00    +0.106 C 
ATOM     30  C   UNL     1      -2.732  -2.876  -1.637  0.00  0.00    +0.022 C 
ENDBRANCH  26  29
ENDBRANCH  23  26
ENDBRANCH   1  23
BRANCH   6  31
ATOM     31  O   UNL     1      -1.028   1.240   2.067  0.00  0.00    -0.493 OA
ATOM     32  C   UNL     1      -0.338   2.467   2.311  0.00  0.00    +0.277 C 
ENDBRANCH   6  31
TORSDOF 9
