REMARK  Name = ZINC09254182
REMARK  8 active torsions:
REMARK  status: ('A' for Active; 'I' for Inactive)
REMARK    1  A    between atoms: C_1  and  C_2
REMARK    2  A    between atoms: C_2  and  O_3
REMARK    3  A    between atoms: O_3  and  C_4
REMARK    4  A    between atoms: C_7  and  C_10
REMARK    5  A    between atoms: C_15  and  N_16
REMARK    6  A    between atoms: C_15  and  N_62
REMARK    7  A    between atoms: C_19  and  C_23
REMARK    8  A    between atoms: C_19  and  C_24
REMARK                            x       y       z     vdW  Elec       q    Type
REMARK                         _______ _______ _______ _____ _____    ______ ____
ROOT
ATOM      1  N   UNL     1       0.206   4.518   2.344  0.00  0.00    -0.241 N 
ATOM      2  C   UNL     1       0.863   5.525   1.736  0.00  0.00    +0.249 C 
ATOM      3  O   UNL     1       1.362   5.512   0.631  0.00  0.00    -0.272 OA
ATOM      4  C   UNL     1       0.848   6.678   2.720  0.00  0.00    +0.135 C 
ATOM      5  N   UNL     1       0.122   6.133   3.880  0.00  0.00    -0.281 N 
ATOM      6  C   UNL     1      -0.212   4.869   3.566  0.00  0.00    +0.308 C 
ATOM      7  O   UNL     1      -0.825   4.127   4.309  0.00  0.00    -0.252 OA
ATOM      8  C   UNL     1       2.274   7.069   3.112  0.00  0.00    +0.047 C 
ATOM      9  H   UNL     1      -0.077   6.596   4.709  0.00  0.00    +0.152 HD
ENDROOT
BRANCH   4  10
ATOM     10  C   UNL     1       0.115   7.862   2.144  0.00  0.00    -0.015 A 
ATOM     11  C   UNL     1       0.193   8.118   0.776  0.00  0.00    +0.007 A 
ATOM     12  C   UNL     1      -0.458   9.179   0.224  0.00  0.00    +0.009 A 
ATOM     13  C   UNL     1      -1.219  10.031   1.042  0.00  0.00    -0.018 A 
ATOM     14  C   UNL     1      -1.904  11.135   0.508  0.00  0.00    +0.008 A 
ATOM     15  C   UNL     1      -2.632  11.938   1.332  0.00  0.00    +0.001 A 
ATOM     16  C   UNL     1      -2.709  11.683   2.700  0.00  0.00    +0.001 A 
ATOM     17  C   UNL     1      -2.059  10.622   3.252  0.00  0.00    +0.008 A 
ATOM     18  C   UNL     1      -1.297   9.771   2.433  0.00  0.00    -0.018 A 
ATOM     19  C   UNL     1      -0.617   8.662   2.966  0.00  0.00    +0.014 A 
ENDBRANCH   4  10
BRANCH   1  20
ATOM     20  C   UNL     1      -0.018   3.200   1.744  0.00  0.00    +0.043 C 
BRANCH  20  25
ATOM     21  C   UNL     1      -1.322   2.129   0.002  0.00  0.00    -0.036 C 
ATOM     22  C   UNL     1      -1.584   2.787  -1.369  0.00  0.00    -0.012 C 
ATOM     23  C   UNL     1      -2.247   4.137  -0.987  0.00  0.00    -0.020 C 
ATOM     24  C   UNL     1      -1.492   4.500   0.316  0.00  0.00    -0.076 C 
ATOM     25  N   UNL     1      -1.307   3.207   1.004  0.00  0.00    +0.395 N 
ATOM     26  H   UNL     1      -2.076   3.063   1.669  0.00  0.00    -0.079 HD
BRANCH  21  30
ATOM     27  C   UNL     1       2.426   0.077  -0.070  0.00  0.00    +0.121 A 
ATOM     28  C   UNL     1       1.337  -0.487   0.580  0.00  0.00    +0.046 A 
ATOM     29  C   UNL     1       0.128   0.179   0.604  0.00  0.00    +0.005 A 
ATOM     30  C   UNL     1       0.001   1.407  -0.020  0.00  0.00    -0.061 A 
ATOM     31  C   UNL     1       1.084   1.971  -0.668  0.00  0.00    +0.005 A 
ATOM     32  C   UNL     1       2.296   1.309  -0.695  0.00  0.00    +0.046 A 
BRANCH  27  33
ATOM     33  O   UNL     1       3.617  -0.577  -0.096  0.00  0.00    -0.492 OA
BRANCH  33  35
ATOM     34  C   UNL     1       5.943  -0.817  -0.705  0.00  0.00    +0.048 C 
ATOM     35  C   UNL     1       4.694   0.063  -0.783  0.00  0.00    +0.225 C 
ENDBRANCH  33  35
ENDBRANCH  27  33
ENDBRANCH  21  30
ENDBRANCH  20  25
ENDBRANCH   1  20
TORSDOF 6
