REMARK  Name = ZINC44321268
REMARK  9 active torsions:
REMARK  status: ('A' for Active; 'I' for Inactive)
REMARK    1  A    between atoms: C_13  and  C_14
REMARK    2  A    between atoms: C_14  and  O_15
REMARK    3  A    between atoms: O_15  and  C_16
REMARK    4  A    between atoms: N_18  and  CA_19
REMARK    5  A    between atoms: CA_19  and  C_21
REMARK    6  A    between atoms: CA_19  and  C_37
REMARK    7  A    between atoms: C_21  and  C_22
REMARK    8  A    between atoms: C_27  and  O_28
REMARK    9  A    between atoms: O_28  and  C_29
REMARK                            x       y       z     vdW  Elec       q    Type
REMARK                         _______ _______ _______ _____ _____    ______ ____
ROOT
ATOM      1  CA  UNL     1       8.374  -2.191  -3.404  0.00  0.00    +0.193 C 
ENDROOT
BRANCH   1   4
ATOM      2  C   UNL     1       6.434  -1.344  -2.197  0.00  0.00    +0.401 C 
ATOM      3  O   UNL     1       6.249  -0.558  -3.105  0.00  0.00    -0.226 OA
ATOM      4  N   UNL     1       7.471  -2.204  -2.250  0.00  0.00    -0.267 N 
ATOM      5  H   UNL     1       7.619  -2.830  -1.525  0.00  0.00    +0.153 HD
BRANCH   2   6
ATOM      6  O   UNL     1       5.604  -1.355  -1.137  0.00  0.00    -0.449 OA
BRANCH   6   7
ATOM      7  C   UNL     1       4.527  -0.417  -1.147  0.00  0.00    +0.246 C 
BRANCH   7  20
ATOM      8  C   UNL     1       0.302   1.978   0.307  0.00  0.00    +0.001 A 
ATOM      9  C   UNL     1       1.532   2.610   0.289  0.00  0.00    +0.000 A 
ATOM     10  C   UNL     1       2.695   1.863   0.232  0.00  0.00    +0.005 A 
ATOM     11  C   UNL     1       2.630   0.486   0.194  0.00  0.00    -0.029 A 
ATOM     12  C   UNL     1       1.396  -0.159   0.212  0.00  0.00    -0.014 A 
ATOM     13  C   UNL     1       0.227   0.601   0.269  0.00  0.00    +0.009 A 
ATOM     14  C   UNL     1       1.606  -1.628   0.162  0.00  0.00    -0.014 A 
ATOM     15  C   UNL     1       0.696  -2.687   0.158  0.00  0.00    +0.009 A 
ATOM     16  C   UNL     1       1.152  -3.987   0.106  0.00  0.00    +0.001 A 
ATOM     17  C   UNL     1       2.510  -4.247   0.057  0.00  0.00    +0.000 A 
ATOM     18  C   UNL     1       3.417  -3.203   0.060  0.00  0.00    +0.005 A 
ATOM     19  C   UNL     1       2.970  -1.900   0.113  0.00  0.00    -0.029 A 
ATOM     20  C   UNL     1       3.698  -0.578   0.130  0.00  0.00    +0.088 C 
ENDBRANCH   7  20
ENDBRANCH   6   7
ENDBRANCH   2   6
ENDBRANCH   1   4
BRANCH   1  21
ATOM     21  C   UNL     1       7.796  -3.045  -4.503  0.00  0.00    +0.376 C 
ATOM     22  O   UNL     1       6.729  -3.611  -4.339  0.00  0.00    -0.244 OA
ATOM     23  OXT UNL     1       8.396  -3.169  -5.557  0.00  0.00    -0.244 OA
ENDBRANCH   1  21
BRANCH   1  24
ATOM     24  C   UNL     1       9.738  -2.747  -2.989  0.00  0.00    +0.073 C 
BRANCH  24  25
ATOM     25  C   UNL     1      10.370  -1.825  -1.978  0.00  0.00    -0.000 A 
ATOM     26  C   UNL     1      11.256  -0.849  -2.392  0.00  0.00    +0.045 A 
ATOM     27  C   UNL     1      11.837  -0.003  -1.463  0.00  0.00    +0.124 A 
ATOM     28  C   UNL     1      11.530  -0.132  -0.119  0.00  0.00    +0.042 A 
ATOM     29  C   UNL     1      10.645  -1.107   0.297  0.00  0.00    +0.049 A 
ATOM     30  C   UNL     1      10.058  -1.953  -0.633  0.00  0.00    +0.132 A 
ATOM     31  F   UNL     1      12.704   0.951  -1.868  0.00  0.00    -0.205 F 
BRANCH  30  32
ATOM     32  O   UNL     1       9.182  -2.909  -0.225  0.00  0.00    -0.456 OA
BRANCH  32  33
ATOM     33  C   UNL     1       8.970  -3.054   1.110  0.00  0.00    +0.129 A 
ATOM     34  C   UNL     1       8.133  -2.174   1.779  0.00  0.00    +0.049 A 
ATOM     35  C   UNL     1       7.918  -2.322   3.135  0.00  0.00    +0.042 A 
ATOM     36  C   UNL     1       8.539  -3.348   3.827  0.00  0.00    +0.124 A 
ATOM     37  C   UNL     1       9.375  -4.227   3.161  0.00  0.00    +0.042 A 
ATOM     38  C   UNL     1       9.587  -4.085   1.803  0.00  0.00    +0.049 A 
ATOM     39  F   UNL     1       8.328  -3.491   5.154  0.00  0.00    -0.205 F 
ENDBRANCH  32  33
ENDBRANCH  30  32
ENDBRANCH  24  25
ENDBRANCH   1  24
TORSDOF 9
