REMARK  Name = ZINC35384812
REMARK  14 active torsions:
REMARK  status: ('A' for Active; 'I' for Inactive)
REMARK    1  A    between atoms: C_1  and  N_2
REMARK    2  A    between atoms: N_2  and  C_3
REMARK    3  A    between atoms: N_2  and  C_4
REMARK    4  A    between atoms: C_4  and  C_5
REMARK    5  A    between atoms: C_5  and  N_6
REMARK    6  A    between atoms: N_6  and  C_7
REMARK    7  A    between atoms: C_7  and  C_8
REMARK    8  A    between atoms: C_14  and  C_16
REMARK    9  A    between atoms: C_16  and  C_17
REMARK   10  A    between atoms: C_17  and  N_18
REMARK   11  A    between atoms: N_18  and  C_19
REMARK   12  A    between atoms: C_19  and  C_20
REMARK   13  A    between atoms: C_27  and  C_30
REMARK   14  A    between atoms: C_30  and  C_31
REMARK                            x       y       z     vdW  Elec       q    Type
REMARK                         _______ _______ _______ _____ _____    ______ ____
ROOT
ATOM      1  N   UNL     1      -2.709  -3.034   4.771  0.00  0.00    -0.301 N 
ATOM      2  C   UNL     1      -1.949  -4.085   5.251  0.00  0.00    +0.181 A 
ATOM      3  N   UNL     1      -1.226  -4.148   6.357  0.00  0.00    -0.208 NA
ATOM      4  C   UNL     1      -0.583  -5.268   6.603  0.00  0.00    +0.145 A 
ATOM      5  N   UNL     1      -0.696  -6.250   5.744  0.00  0.00    -0.192 NA
ATOM      6  S   UNL     1      -1.717  -5.608   4.579  0.00  0.00    +0.049 S 
ENDROOT
BRANCH   1   7
ATOM      7  C   UNL     1      -3.447  -3.177   3.514  0.00  0.00    +0.117 C 
BRANCH   7   8
ATOM      8  C   UNL     1      -2.560  -2.731   2.349  0.00  0.00    +0.115 C 
BRANCH   8  10
ATOM      9  N   UNL     1      -2.733  -2.544  -0.111  0.00  0.00    -0.299 N 
ATOM     10  C   UNL     1      -3.319  -2.879   1.055  0.00  0.00    +0.217 C 
ATOM     11  O   UNL     1      -4.457  -3.298   1.064  0.00  0.00    -0.276 OA
BRANCH   9  12
ATOM     12  C   UNL     1      -1.358  -2.037  -0.122  0.00  0.00    +0.089 C 
BRANCH  12  13
ATOM     13  C   UNL     1      -1.376  -0.512   0.012  0.00  0.00    -0.060 C 
BRANCH  13  15
ATOM     14  C   UNL     1      -0.018   1.465   0.010  0.00  0.00    -0.097 C 
ATOM     15  N   UNL     1       0.002  -0.004   0.002  0.00  0.00    +0.377 N 
ATOM     16  C   UNL     1       0.713  -0.491   1.192  0.00  0.00    -0.097 C 
ATOM     17  H   UNL     1       0.474  -0.330  -0.828  0.00  0.00    -0.083 HD
ENDBRANCH  13  15
ENDBRANCH  12  13
ENDBRANCH   9  12
BRANCH   9  18
ATOM     18  C   UNL     1      -3.470  -2.687  -1.369  0.00  0.00    +0.142 C 
BRANCH  18  19
ATOM     19  C   UNL     1      -3.235  -4.063  -1.936  0.00  0.00    -0.030 A 
ATOM     20  C   UNL     1      -2.174  -4.284  -2.795  0.00  0.00    +0.005 A 
ATOM     21  C   UNL     1      -1.958  -5.547  -3.315  0.00  0.00    +0.000 A 
ATOM     22  C   UNL     1      -2.802  -6.588  -2.975  0.00  0.00    +0.000 A 
ATOM     23  C   UNL     1      -3.862  -6.367  -2.116  0.00  0.00    +0.000 A 
ATOM     24  C   UNL     1      -4.075  -5.105  -1.593  0.00  0.00    +0.005 A 
ENDBRANCH  18  19
ENDBRANCH   9  18
ENDBRANCH   8  10
ENDBRANCH   7   8
ENDBRANCH   1   7
BRANCH   1  25
ATOM     25  C   UNL     1      -2.777  -1.777   5.521  0.00  0.00    +0.181 C 
BRANCH  25  26
ATOM     26  C   UNL     1      -3.926  -1.834   6.495  0.00  0.00    +0.122 A 
ATOM     27  C   UNL     1      -3.861  -2.276   7.763  0.00  0.00    +0.046 A 
ATOM     28  C   UNL     1      -5.161  -2.153   8.306  0.00  0.00    +0.041 A 
ATOM     29  C   UNL     1      -5.942  -1.643   7.337  0.00  0.00    +0.195 A 
ATOM     30  O   UNL     1      -5.187  -1.447   6.244  0.00  0.00    -0.466 OA
ENDBRANCH  25  26
ENDBRANCH   1  25
BRANCH   4  31
ATOM     31  C   UNL     1       0.263  -5.418   7.842  0.00  0.00    +0.112 C 
BRANCH  31  32
ATOM     32  C   UNL     1      -0.584  -5.960   8.965  0.00  0.00    -0.040 A 
ATOM     33  C   UNL     1      -1.257  -5.091   9.804  0.00  0.00    +0.004 A 
ATOM     34  C   UNL     1      -2.033  -5.587  10.834  0.00  0.00    +0.000 A 
ATOM     35  C   UNL     1      -2.137  -6.952  11.025  0.00  0.00    +0.000 A 
ATOM     36  C   UNL     1      -1.464  -7.821  10.186  0.00  0.00    +0.000 A 
ATOM     37  C   UNL     1      -0.691  -7.325   9.153  0.00  0.00    +0.004 A 
ENDBRANCH  31  32
ENDBRANCH   4  31
TORSDOF 12
