REMARK  Name = ZINC36599968
REMARK  14 active torsions:
REMARK  status: ('A' for Active; 'I' for Inactive)
REMARK    1  A    between atoms: C_1  and  C_2
REMARK    2  A    between atoms: C_2  and  C_3
REMARK    3  A    between atoms: C_3  and  C_4
REMARK    4  A    between atoms: C_4  and  N_5
REMARK    5  A    between atoms: C_6  and  C_8
REMARK    6  A    between atoms: C_8  and  C_10
REMARK    7  A    between atoms: C_8  and  N_19
REMARK    8  A    between atoms: C_11  and  O_18
REMARK    9  A    between atoms: C_13  and  O_17
REMARK   10  A    between atoms: C_15  and  O_16
REMARK   11  A    between atoms: N_19  and  C_20
REMARK   12  A    between atoms: C_20  and  C_21
REMARK   13  A    between atoms: C_24  and  C_26
REMARK   14  A    between atoms: C_27  and  C_29
REMARK                            x       y       z     vdW  Elec       q    Type
REMARK                         _______ _______ _______ _____ _____    ______ ____
ROOT
ATOM      1  C   UNL     1       2.230  -4.315  -3.919  0.00  0.00    +0.200 C 
ENDROOT
BRANCH   1   2
ATOM      2  C   UNL     1       3.631  -3.772  -3.799  0.00  0.00    +0.065 A 
ATOM      3  C   UNL     1       4.545  -4.391  -2.960  0.00  0.00    +0.129 A 
ATOM      4  C   UNL     1       5.834  -3.890  -2.850  0.00  0.00    +0.091 A 
ATOM      5  C   UNL     1       6.208  -2.772  -3.579  0.00  0.00    +0.124 A 
ATOM      6  C   UNL     1       5.294  -2.153  -4.419  0.00  0.00    +0.091 A 
ATOM      7  C   UNL     1       4.006  -2.656  -4.532  0.00  0.00    +0.129 A 
BRANCH   7   8
ATOM      8  O   UNL     1       3.112  -2.053  -5.358  0.00  0.00    -0.506 OA
ATOM      9  H   UNL     1       2.593  -1.355  -4.934  0.00  0.00    +0.292 HD
ENDBRANCH   7   8
BRANCH   5  10
ATOM     10  O   UNL     1       7.471  -2.281  -3.471  0.00  0.00    -0.507 OA
ATOM     11  H   UNL     1       8.095  -2.659  -4.105  0.00  0.00    +0.292 HD
ENDBRANCH   5  10
BRANCH   3  12
ATOM     12  O   UNL     1       4.179  -5.487  -2.246  0.00  0.00    -0.506 OA
ATOM     13  H   UNL     1       4.271  -6.320  -2.728  0.00  0.00    +0.292 HD
ENDBRANCH   3  12
ENDBRANCH   1   2
BRANCH   1  15
ATOM     14  N   UNL     1       1.550  -2.789  -2.094  0.00  0.00    -0.313 N 
ATOM     15  C   UNL     1       1.464  -4.011  -2.657  0.00  0.00    +0.238 C 
ATOM     16  O   UNL     1       0.769  -4.865  -2.148  0.00  0.00    -0.273 OA
ATOM     17  H   UNL     1       2.105  -2.106  -2.501  0.00  0.00    +0.149 HD
BRANCH  14  18
ATOM     18  C   UNL     1       0.805  -2.493  -0.868  0.00  0.00    +0.104 C 
BRANCH  18  19
ATOM     19  C   UNL     1       1.076  -1.049  -0.443  0.00  0.00    +0.018 C 
BRANCH  19  21
ATOM     20  C   UNL     1       0.569   0.705   1.263  0.00  0.00    +0.004 C 
ATOM     21  C   UNL     1       0.298  -0.740   0.838  0.00  0.00    -0.002 C 
ENDBRANCH  19  21
ENDBRANCH  18  19
ENDBRANCH  14  18
ENDBRANCH   1  15
BRANCH   1  22
ATOM     22  N   UNL     1       2.284  -5.765  -4.119  0.00  0.00    -0.277 N 
ATOM     23  C   UNL     1       2.699  -6.267  -5.299  0.00  0.00    +0.231 C 
ATOM     24  O   UNL     1       2.660  -7.463  -5.497  0.00  0.00    -0.274 OA
BRANCH  23  25
ATOM     25  C   UNL     1       3.212  -5.343  -6.373  0.00  0.00    +0.204 C 
ATOM     26 CL   UNL     1       3.536  -6.287  -7.875  0.00  0.00    -0.116 Cl
ENDBRANCH  23  25
BRANCH  22  27
ATOM     27  C   UNL     1       1.888  -6.670  -3.037  0.00  0.00    +0.183 C 
BRANCH  27  28
ATOM     28  C   UNL     1       0.471  -7.131  -3.262  0.00  0.00    +0.122 A 
ATOM     29  C   UNL     1       0.101  -8.226  -3.950  0.00  0.00    +0.046 A 
ATOM     30  C   UNL     1      -1.312  -8.277  -3.909  0.00  0.00    +0.045 A 
ATOM     31  C   UNL     1      -1.720  -7.210  -3.198  0.00  0.00    +0.102 A 
ATOM     32  O   UNL     1      -0.635  -6.523  -2.804  0.00  0.00    -0.463 OA
ATOM     33  C   UNL     1      -3.150  -6.850  -2.892  0.00  0.00    +0.086 C 
ENDBRANCH  27  28
ENDBRANCH  22  27
ENDBRANCH   1  22
TORSDOF 12
