REMARK  Name = ZINC40186349
REMARK  11 active torsions:
REMARK  status: ('A' for Active; 'I' for Inactive)
REMARK    1  A    between atoms: C_1  and  C_2
REMARK    2  A    between atoms: C_2  and  C_4
REMARK    3  A    between atoms: C_2  and  N_27
REMARK    4  A    between atoms: N_12  and  C_13
REMARK    5  A    between atoms: C_13  and  C_14
REMARK    6  A    between atoms: N_16  and  C_17
REMARK    7  A    between atoms: N_16  and  C_24
REMARK    8  A    between atoms: C_17  and  C_18
REMARK    9  A    between atoms: C_24  and  C_25
REMARK   10  A    between atoms: C_24  and  C_26
REMARK   11  A    between atoms: C_28  and  C_30
REMARK                            x       y       z     vdW  Elec       q    Type
REMARK                         _______ _______ _______ _____ _____    ______ ____
ROOT
ATOM      1  C   UNL     1      -1.255  -0.585  -0.037  0.00  0.00    +0.131 A 
ATOM      2  N   UNL     1      -1.996  -0.606  -1.106  0.00  0.00    -0.230 NA
ATOM      3  C   UNL     1      -3.222  -1.104  -0.802  0.00  0.00    +0.089 A 
ATOM      4  C   UNL     1      -4.379  -1.341  -1.550  0.00  0.00    +0.030 A 
ATOM      5  C   UNL     1      -5.485  -1.865  -0.944  0.00  0.00    +0.002 A 
ATOM      6  C   UNL     1      -5.476  -2.164   0.411  0.00  0.00    +0.002 A 
ATOM      7  C   UNL     1      -4.346  -1.938   1.169  0.00  0.00    +0.028 A 
ATOM      8  C   UNL     1      -3.212  -1.407   0.570  0.00  0.00    +0.069 A 
ATOM      9  N   UNL     1      -1.951  -1.073   1.024  0.00  0.00    -0.317 N 
ENDROOT
BRANCH   1  11
ATOM     10  C   UNL     1       0.188   1.432  -0.036  0.00  0.00    +0.036 C 
ATOM     11  C   UNL     1       0.170  -0.097   0.016  0.00  0.00    +0.136 C 
BRANCH  11  12
ATOM     12  N   UNL     1       0.913  -0.633  -1.128  0.00  0.00    -0.302 N 
ATOM     13  C   UNL     1       2.251  -0.775  -1.056  0.00  0.00    +0.245 C 
ATOM     14  O   UNL     1       2.842  -0.459  -0.042  0.00  0.00    -0.270 OA
ATOM     15  H   UNL     1       0.441  -0.886  -1.937  0.00  0.00    +0.150 HD
BRANCH  13  16
ATOM     16  C   UNL     1       3.000  -1.316  -2.210  0.00  0.00    +0.037 A 
ATOM     17  C   UNL     1       2.325  -1.675  -3.377  0.00  0.00    +0.013 A 
ATOM     18  C   UNL     1       3.031  -2.178  -4.451  0.00  0.00    +0.001 A 
ATOM     19  C   UNL     1       4.404  -2.328  -4.372  0.00  0.00    +0.000 A 
ATOM     20  C   UNL     1       5.079  -1.975  -3.217  0.00  0.00    +0.001 A 
ATOM     21  C   UNL     1       4.386  -1.464  -2.138  0.00  0.00    +0.013 A 
ENDBRANCH  13  16
ENDBRANCH  11  12
ENDBRANCH   1  11
BRANCH   9  22
ATOM     22  C   UNL     1      -1.457  -1.216   2.396  0.00  0.00    +0.219 C 
BRANCH  22  23
ATOM     23  C   UNL     1      -1.747   0.046   3.168  0.00  0.00    +0.236 C 
ATOM     24  O   UNL     1      -2.311   0.973   2.625  0.00  0.00    -0.274 OA
ATOM     25  N   UNL     1      -1.379   0.145   4.461  0.00  0.00    -0.293 N 
BRANCH  25  26
ATOM     26  C   UNL     1      -0.698  -0.975   5.116  0.00  0.00    +0.070 C 
ATOM     27  C   UNL     1       0.614  -0.483   5.731  0.00  0.00    +0.028 C 
ATOM     28  C   UNL     1      -1.596  -1.544   6.216  0.00  0.00    +0.028 C 
ENDBRANCH  25  26
BRANCH  25  29
ATOM     29  C   UNL     1      -1.661   1.371   5.211  0.00  0.00    +0.143 C 
BRANCH  29  30
ATOM     30  C   UNL     1      -3.068   1.319   5.748  0.00  0.00    -0.030 A 
ATOM     31  C   UNL     1      -4.130   1.683   4.941  0.00  0.00    +0.005 A 
ATOM     32  C   UNL     1      -5.421   1.636   5.434  0.00  0.00    +0.000 A 
ATOM     33  C   UNL     1      -5.649   1.224   6.734  0.00  0.00    +0.000 A 
ATOM     34  C   UNL     1      -4.588   0.859   7.540  0.00  0.00    +0.000 A 
ATOM     35  C   UNL     1      -3.297   0.902   7.046  0.00  0.00    +0.005 A 
ENDBRANCH  29  30
ENDBRANCH  25  29
ENDBRANCH  22  23
ENDBRANCH   9  22
TORSDOF 8
