REMARK  Name = ZINC39325529
REMARK  11 active torsions:
REMARK  status: ('A' for Active; 'I' for Inactive)
REMARK    1  A    between atoms: C_1  and  C_2
REMARK    2  A    between atoms: C_2  and  C_4
REMARK    3  A    between atoms: C_7  and  S_10
REMARK    4  A    between atoms: S_10  and  N_13
REMARK    5  A    between atoms: N_13  and  C_14
REMARK    6  A    between atoms: N_13  and  C_22
REMARK    7  A    between atoms: C_14  and  C_15
REMARK    8  A    between atoms: C_15  and  C_16
REMARK    9  A    between atoms: C_22  and  C_23
REMARK   10  A    between atoms: C_28  and  O_35
REMARK   11  A    between atoms: O_35  and  C_36
REMARK                            x       y       z     vdW  Elec       q    Type
REMARK                         _______ _______ _______ _____ _____    ______ ____
ROOT
ATOM      1  N   UNL     1       1.690  -3.287  -5.703  0.00  0.00    -0.175 NA
ENDROOT
BRANCH   1   2
ATOM      2  S   UNL     1       0.381  -2.950  -4.746  0.00  0.00    +0.061 S 
ATOM      3  O   UNL     1      -0.266  -4.190  -4.493  0.00  0.00    -0.153 OA
ATOM      4  O   UNL     1      -0.289  -1.850  -5.345  0.00  0.00    -0.153 OA
BRANCH   2   8
ATOM      5  C   UNL     1       1.975  -1.485  -0.764  0.00  0.00    +0.017 A 
ATOM      6  C   UNL     1       1.717  -0.576  -1.796  0.00  0.00    +0.013 A 
ATOM      7  C   UNL     1       1.232  -1.030  -3.004  0.00  0.00    +0.029 A 
ATOM      8  C   UNL     1       1.001  -2.381  -3.198  0.00  0.00    +0.106 A 
ATOM      9  C   UNL     1       1.253  -3.286  -2.182  0.00  0.00    +0.029 A 
ATOM     10  C   UNL     1       1.744  -2.849  -0.970  0.00  0.00    +0.013 A 
BRANCH   5  12
ATOM     11  C   UNL     1       2.740   0.462   0.746  0.00  0.00    +0.091 C 
ATOM     12  C   UNL     1       2.493  -1.009   0.528  0.00  0.00    +0.160 C 
ATOM     13  O   UNL     1       2.720  -1.800   1.419  0.00  0.00    -0.292 OA
ENDBRANCH   5  12
ENDBRANCH   2   8
ENDBRANCH   1   2
BRANCH   1  14
ATOM     14  C   UNL     1       2.280  -4.627  -5.693  0.00  0.00    +0.114 C 
BRANCH  14  15
ATOM     15  C   UNL     1       1.661  -5.466  -6.813  0.00  0.00    +0.052 C 
BRANCH  15  16
ATOM     16  C   UNL     1       2.269  -6.845  -6.802  0.00  0.00    -0.046 A 
ATOM     17  C   UNL     1       3.406  -7.105  -7.543  0.00  0.00    +0.003 A 
ATOM     18  C   UNL     1       3.963  -8.370  -7.533  0.00  0.00    +0.000 A 
ATOM     19  C   UNL     1       3.383  -9.375  -6.781  0.00  0.00    +0.000 A 
ATOM     20  C   UNL     1       2.246  -9.115  -6.039  0.00  0.00    +0.000 A 
ATOM     21  C   UNL     1       1.692  -7.848  -6.046  0.00  0.00    +0.003 A 
ENDBRANCH  15  16
ENDBRANCH  14  15
ENDBRANCH   1  14
BRANCH   1  22
ATOM     22  C   UNL     1       2.257  -2.243  -6.561  0.00  0.00    +0.126 C 
BRANCH  22  23
ATOM     23  C   UNL     1       3.228  -1.386  -5.747  0.00  0.00    +0.114 C 
ATOM     24  C   UNL     1       3.574  -0.163  -6.573  0.00  0.00    -0.003 C 
ATOM     25  C   UNL     1       4.891   0.048  -6.857  0.00  0.00    -0.004 A 
ATOM     26  C   UNL     1       5.312   1.204  -7.649  0.00  0.00    +0.055 A 
ATOM     27  C   UNL     1       6.638   1.374  -7.909  0.00  0.00    +0.121 A 
ATOM     28  C   UNL     1       7.594   0.468  -7.432  0.00  0.00    +0.047 A 
ATOM     29  C   UNL     1       7.264  -0.622  -6.693  0.00  0.00    +0.027 A 
ATOM     30  C   UNL     1       5.920  -0.888  -6.370  0.00  0.00    +0.041 A 
ATOM     31  N   UNL     1       5.611  -1.961  -5.643  0.00  0.00    -0.284 N 
ATOM     32  C   UNL     1       4.371  -2.272  -5.305  0.00  0.00    +0.225 C 
ATOM     33  O   UNL     1       4.151  -3.266  -4.640  0.00  0.00    -0.275 OA
ATOM     34  H   UNL     1       6.329  -2.543  -5.349  0.00  0.00    +0.155 HD
BRANCH  27  35
ATOM     35  O   UNL     1       7.042   2.444  -8.644  0.00  0.00    -0.495 OA
ATOM     36  C   UNL     1       8.444   2.573  -8.885  0.00  0.00    +0.277 C 
ENDBRANCH  27  35
ENDBRANCH  22  23
ENDBRANCH   1  22
TORSDOF 9
