REMARK  Name = ZINC20089442
REMARK  5 active torsions:
REMARK  status: ('A' for Active; 'I' for Inactive)
REMARK    1  A    between atoms: C_1  and  C_2
REMARK    2  A    between atoms: C_5  and  N_8
REMARK    3  A    between atoms: N_8  and  C_9
REMARK    4  A    between atoms: C_9  and  C_11
REMARK    5  A    between atoms: C_9  and  C_12
REMARK                            x       y       z     vdW  Elec       q    Type
REMARK                         _______ _______ _______ _____ _____    ______ ____
ROOT
ATOM      1  C   UNL     1      -1.270   3.341   1.013  0.00  0.00    -0.044 C 
ATOM      2  C   UNL     1      -2.646   3.220   0.356  0.00  0.00    -0.009 C 
ENDROOT
BRANCH   1   3
ATOM      3  C   UNL     1      -1.406   4.038   2.342  0.00  0.00    -0.060 A 
ATOM      4  C   UNL     1      -1.841   3.333   3.449  0.00  0.00    +0.006 A 
ATOM      5  C   UNL     1      -1.963   3.964   4.674  0.00  0.00    +0.048 A 
ATOM      6  C   UNL     1      -1.660   5.309   4.789  0.00  0.00    +0.142 A 
ATOM      7  C   UNL     1      -1.228   6.021   3.672  0.00  0.00    +0.076 A 
ATOM      8  C   UNL     1      -1.101   5.382   2.449  0.00  0.00    +0.029 A 
ATOM      9  N   UNL     1      -0.925   7.385   3.802  0.00  0.00    -0.280 N 
ATOM     10  C   UNL     1      -0.752   7.901   5.038  0.00  0.00    +0.255 C 
ATOM     11  O   UNL     1      -0.520   9.083   5.177  0.00  0.00    -0.272 OA
ATOM     12  C   UNL     1      -0.849   7.002   6.245  0.00  0.00    +0.325 C 
ATOM     13  O   UNL     1      -1.778   5.946   5.984  0.00  0.00    -0.481 OA
ATOM     14  H   UNL     1      -0.833   8.016   2.906  0.00  0.00    +0.155 HD
ENDBRANCH   1   3
BRANCH   1  15
ATOM     15  N   UNL     1      -0.706   2.000   1.219  0.00  0.00    +0.385 N 
ATOM     16  H   UNL     1      -1.524   1.308   1.470  0.00  0.00    -0.085 HD
ATOM     17  H   UNL     1       0.008   2.042   2.054  0.00  0.00    -0.085 HD
BRANCH  15  22
ATOM     18  C   UNL     1       2.870  -0.461  -2.526  0.00  0.00    +0.007 C 
ATOM     19  C   UNL     1       2.154   0.032  -1.268  0.00  0.00    -0.014 C 
ATOM     20  C   UNL     1       0.718  -0.497  -1.257  0.00  0.00    +0.002 C 
ATOM     21  C   UNL     1       0.002  -0.004   0.002  0.00  0.00    -0.015 C 
ATOM     22  C   UNL     1      -0.019   1.526   0.010  0.00  0.00    -0.071 C 
ATOM     23  C   UNL     1       1.417   2.055  -0.000  0.00  0.00    -0.015 C 
ATOM     24  C   UNL     1       2.133   1.562  -1.259  0.00  0.00    +0.002 C 
ENDBRANCH  15  22
ENDBRANCH   1  15
TORSDOF 3
