REMARK  Name = ZINC59858696
REMARK  9 active torsions:
REMARK  status: ('A' for Active; 'I' for Inactive)
REMARK    1  A    between atoms: C_1  and  C_2
REMARK    2  A    between atoms: C_5  and  N_9
REMARK    3  A    between atoms: C_7  and  C_8
REMARK    4  A    between atoms: C_10  and  C_33
REMARK    5  A    between atoms: C_11  and  N_15
REMARK    6  A    between atoms: C_12  and  C_14
REMARK    7  A    between atoms: N_15  and  C_16
REMARK    8  A    between atoms: C_18  and  C_32
REMARK    9  A    between atoms: N_20  and  C_23
REMARK                            x       y       z     vdW  Elec       q    Type
REMARK                         _______ _______ _______ _____ _____    ______ ____
ROOT
ATOM      1  N   UNL     1      -0.459  -7.686  -2.044  0.00  0.00    -0.317 N 
ATOM      2  H   UNL     1      -1.185  -7.689  -2.687  0.00  0.00    +0.152 HD
ENDROOT
BRANCH   1   3
ATOM      3  C   UNL     1       0.256  -8.808  -1.829  0.00  0.00    +0.087 C 
ATOM      4  C   UNL     1      -0.124  -9.997  -2.431  0.00  0.00    +0.075 C 
ATOM      5  C   UNL     1      -1.322 -10.245  -3.247  0.00  0.00    +0.070 C 
ATOM      6  N   UNL     1      -1.294 -11.490  -3.615  0.00  0.00    -0.176 NA
ATOM      7  N   UNL     1      -0.164 -12.140  -3.119  0.00  0.00    -0.154 N 
ATOM      8  C   UNL     1       0.585 -11.282  -2.398  0.00  0.00    +0.273 C 
ATOM      9  O   UNL     1       1.638 -11.524  -1.831  0.00  0.00    -0.268 OA
ATOM     10  C   UNL     1      -2.388  -9.238  -3.591  0.00  0.00    +0.068 C 
BRANCH   7  11
ATOM     11  C   UNL     1       0.150 -13.488  -3.343  0.00  0.00    +0.097 A 
ATOM     12  C   UNL     1      -0.309 -14.464  -2.468  0.00  0.00    +0.067 A 
ATOM     13  C   UNL     1       0.002 -15.792  -2.692  0.00  0.00    +0.042 A 
ATOM     14  C   UNL     1       0.770 -16.150  -3.786  0.00  0.00    +0.044 A 
ATOM     15  C   UNL     1       1.229 -15.180  -4.659  0.00  0.00    +0.042 A 
ATOM     16  C   UNL     1       0.917 -13.850  -4.444  0.00  0.00    +0.067 A 
ATOM     17 CL   UNL     1       1.488 -12.634  -5.544  0.00  0.00    -0.081 Cl
ATOM     18 CL   UNL     1       1.159 -17.819  -4.063  0.00  0.00    -0.083 Cl
ATOM     19 CL   UNL     1      -1.273 -14.017  -1.095  0.00  0.00    -0.081 Cl
ENDBRANCH   7  11
ENDBRANCH   1   3
BRANCH   1  22
ATOM     20  N   UNL     1       0.026  -4.401  -0.767  0.00  0.00    -0.235 N 
ATOM     21  C   UNL     1      -0.435  -5.243  -1.731  0.00  0.00    +0.063 A 
ATOM     22  C   UNL     1      -0.152  -6.511  -1.337  0.00  0.00    +0.075 A 
ATOM     23  C   UNL     1       0.500  -6.440  -0.096  0.00  0.00    +0.082 A 
ATOM     24  N   UNL     1       0.611  -5.180   0.240  0.00  0.00    -0.170 NA
ATOM     25  C   UNL     1       0.995  -7.614   0.709  0.00  0.00    +0.069 C 
ATOM     26  C   UNL     1      -1.133  -4.840  -3.005  0.00  0.00    +0.068 C 
BRANCH  20  31
ATOM     27  C   UNL     1      -0.336   1.262  -0.823  0.00  0.00    +0.044 C 
ATOM     28  C   UNL     1      -0.239  -0.242  -0.808  0.00  0.00    -0.047 A 
ATOM     29  C   UNL     1      -0.051  -0.933  -1.991  0.00  0.00    +0.006 A 
ATOM     30  C   UNL     1       0.037  -2.311  -1.980  0.00  0.00    +0.028 A 
ATOM     31  C   UNL     1      -0.063  -3.003  -0.780  0.00  0.00    +0.066 A 
ATOM     32  C   UNL     1      -0.251  -2.306   0.405  0.00  0.00    +0.031 A 
ATOM     33  C   UNL     1      -0.334  -0.927   0.389  0.00  0.00    -0.046 A 
ATOM     34  C   UNL     1      -0.533  -0.170   1.677  0.00  0.00    +0.044 C 
ENDBRANCH  20  31
ENDBRANCH   1  22
TORSDOF 4
