REMARK  Name = ZINC41513755
REMARK  12 active torsions:
REMARK  status: ('A' for Active; 'I' for Inactive)
REMARK    1  A    between atoms: C_1  and  C_2
REMARK    2  A    between atoms: C_2  and  C_3
REMARK    3  A    between atoms: C_2  and  C_4
REMARK    4  A    between atoms: C_4  and  N_5
REMARK    5  A    between atoms: N_5  and  C_6
REMARK    6  A    between atoms: N_5  and  C_31
REMARK    7  A    between atoms: C_6  and  C_7
REMARK    8  A    between atoms: C_8  and  O_30
REMARK    9  A    between atoms: C_17  and  C_18
REMARK   10  A    between atoms: C_31  and  C_32
REMARK   11  A    between atoms: C_32  and  C_33
REMARK   12  A    between atoms: C_32  and  C_34
REMARK                            x       y       z     vdW  Elec       q    Type
REMARK                         _______ _______ _______ _____ _____    ______ ____
ROOT
ATOM      1  C   UNL     1      -1.947  -0.279   1.078  0.00  0.00    +0.020 A 
ATOM      2  C   UNL     1      -2.786   0.823   1.071  0.00  0.00    +0.122 A 
ATOM      3  C   UNL     1      -3.430   1.214  -0.100  0.00  0.00    +0.046 A 
ATOM      4  C   UNL     1      -3.244   0.513  -1.258  0.00  0.00    +0.016 A 
ATOM      5  C   UNL     1      -2.401  -0.600  -1.267  0.00  0.00    +0.026 A 
ATOM      6  C   UNL     1      -1.743  -0.997  -0.091  0.00  0.00    +0.144 A 
ATOM      7  O   UNL     1      -0.925  -2.071  -0.105  0.00  0.00    -0.422 OA
ATOM      8  C   UNL     1      -0.708  -2.785  -1.221  0.00  0.00    +0.338 A 
ATOM      9  O   UNL     1       0.041  -3.746  -1.173  0.00  0.00    -0.245 OA
ATOM     10  C   UNL     1      -1.319  -2.457  -2.440  0.00  0.00    +0.101 A 
ATOM     11  C   UNL     1      -2.182  -1.375  -2.501  0.00  0.00    +0.006 A 
ENDROOT
BRANCH  11  12
ATOM     12  C   UNL     1      -2.843  -0.998  -3.765  0.00  0.00    +0.068 A 
ATOM     13  C   UNL     1      -3.703  -1.870  -4.416  0.00  0.00    +0.027 A 
ATOM     14  C   UNL     1      -4.277  -1.449  -5.644  0.00  0.00    +0.020 A 
ATOM     15  C   UNL     1      -5.301  -2.197  -6.243  0.00  0.00    +0.031 A 
ATOM     16  C   UNL     1      -5.875  -1.752  -7.412  0.00  0.00    +0.042 A 
ATOM     17  C   UNL     1      -5.441  -0.572  -8.004  0.00  0.00    +0.023 A 
ATOM     18  C   UNL     1      -4.422   0.164  -7.437  0.00  0.00    +0.048 A 
ATOM     19  C   UNL     1      -3.824  -0.269  -6.262  0.00  0.00    +0.139 A 
ATOM     20  O   UNL     1      -2.793   0.426  -5.723  0.00  0.00    -0.422 OA
ATOM     21  C   UNL     1      -2.621   0.322  -4.383  0.00  0.00    +0.345 A 
ATOM     22  O   UNL     1      -2.291   1.283  -3.712  0.00  0.00    -0.245 OA
ATOM     23 CL   UNL     1      -7.150  -2.670  -8.151  0.00  0.00    -0.084 Cl
ENDBRANCH  11  12
BRANCH   2  24
ATOM     24  O   UNL     1      -2.981   1.528   2.215  0.00  0.00    -0.506 OA
ATOM     25  H   UNL     1      -2.353   2.252   2.343  0.00  0.00    +0.292 HD
ENDBRANCH   2  24
BRANCH   1  26
ATOM     26  C   UNL     1      -1.254  -0.694   2.350  0.00  0.00    -0.036 C 
BRANCH  26  27
ATOM     27  N   UNL     1       0.108  -0.144   2.368  0.00  0.00    +0.383 N 
ATOM     28  H   UNL     1       0.596  -0.429   1.532  0.00  0.00    -0.081 HD
BRANCH  27  29
ATOM     29  C   UNL     1       0.823  -0.646   3.548  0.00  0.00    -0.075 C 
BRANCH  29  31
ATOM     30  C   UNL     1       1.941  -2.456   2.239  0.00  0.00    +0.005 C 
ATOM     31  C   UNL     1       1.018  -2.158   3.422  0.00  0.00    -0.034 C 
ATOM     32  C   UNL     1       1.646  -2.701   4.708  0.00  0.00    +0.005 C 
ENDBRANCH  29  31
ENDBRANCH  27  29
BRANCH  27  33
ATOM     33  C   UNL     1       0.043   1.322   2.421  0.00  0.00    -0.075 C 
BRANCH  33  34
ATOM     34  C   UNL     1       1.456   1.899   2.313  0.00  0.00    -0.034 C 
ATOM     35  C   UNL     1       2.038   1.570   0.937  0.00  0.00    +0.005 C 
ATOM     36  C   UNL     1       1.402   3.418   2.494  0.00  0.00    +0.005 C 
ENDBRANCH  33  34
ENDBRANCH  27  33
ENDBRANCH  26  27
ENDBRANCH   1  26
TORSDOF 8
