REMARK  Name = ZINC39123914
REMARK  8 active torsions:
REMARK  status: ('A' for Active; 'I' for Inactive)
REMARK    1  A    between atoms: C_1  and  C_2
REMARK    2  A    between atoms: C_4  and  C_22
REMARK    3  A    between atoms: C_6  and  O_20
REMARK    4  A    between atoms: C_8  and  O_18
REMARK    5  A    between atoms: C_9  and  C_12
REMARK    6  A    between atoms: C_12  and  C_14
REMARK    7  A    between atoms: O_18  and  C_19
REMARK    8  A    between atoms: O_20  and  C_21
REMARK                            x       y       z     vdW  Elec       q    Type
REMARK                         _______ _______ _______ _____ _____    ______ ____
ROOT
ATOM      1  C   UNL     1      -0.383   1.498   0.275  0.00  0.00    +0.035 C 
ATOM      2  C   UNL     1      -0.254  -0.024   0.196  0.00  0.00    +0.108 C 
ATOM      3  C   UNL     1      -1.623  -0.666   0.229  0.00  0.00    -0.006 C 
ATOM      4  C   UNL     1      -1.634  -1.465   1.355  0.00  0.00    +0.046 A 
ATOM      5  C   UNL     1      -2.652  -2.338   1.942  0.00  0.00    +0.133 A 
ATOM      6  C   UNL     1      -2.380  -3.032   3.099  0.00  0.00    +0.092 A 
ATOM      7  C   UNL     1      -1.156  -2.938   3.748  0.00  0.00    +0.136 A 
ATOM      8  C   UNL     1      -0.119  -2.128   3.265  0.00  0.00    +0.087 A 
ATOM      9  C   UNL     1      -0.325  -1.350   2.029  0.00  0.00    +0.061 A 
ATOM     10  N   UNL     1       0.461  -0.533   1.372  0.00  0.00    -0.377 N 
ATOM     11  H   UNL     1       1.369  -0.300   1.622  0.00  0.00    +0.160 HD
ENDROOT
BRANCH   3  12
ATOM     12  C   UNL     1      -2.712  -0.478  -0.733  0.00  0.00    -0.019 A 
ATOM     13  C   UNL     1      -3.964  -0.020  -0.301  0.00  0.00    +0.009 A 
ATOM     14  C   UNL     1      -4.982   0.153  -1.212  0.00  0.00    +0.016 A 
ATOM     15  C   UNL     1      -4.771  -0.124  -2.554  0.00  0.00    +0.018 A 
ATOM     16  C   UNL     1      -3.536  -0.577  -2.990  0.00  0.00    +0.016 A 
ATOM     17  C   UNL     1      -2.505  -0.750  -2.093  0.00  0.00    +0.009 A 
ATOM     18 BR   UNL     1      -6.176   0.117  -3.796  0.00  0.00    -0.050 Br
ENDBRANCH   3  12
BRANCH   8  19
ATOM     19  C   UNL     1       1.108  -2.058   3.952  0.00  0.00    +0.219 C 
ATOM     20  O   UNL     1       1.259  -1.246   4.843  0.00  0.00    -0.287 OA
BRANCH  19  21
ATOM     21  C   UNL     1       2.233  -2.990   3.582  0.00  0.00    +0.253 C 
ATOM     22 CL   UNL     1       3.601  -2.768   4.736  0.00  0.00    -0.075 Cl
ATOM     23 CL   UNL     1       1.651  -4.694   3.659  0.00  0.00    -0.075 Cl
ATOM     24 CL   UNL     1       2.793  -2.621   1.908  0.00  0.00    -0.075 Cl
ENDBRANCH  19  21
ENDBRANCH   8  19
BRANCH   7  25
ATOM     25  O   UNL     1      -0.958  -3.649   4.882  0.00  0.00    -0.494 OA
ATOM     26  C   UNL     1      -2.043  -4.460   5.337  0.00  0.00    +0.277 C 
ENDBRANCH   7  25
BRANCH   5  27
ATOM     27  O   UNL     1      -3.860  -2.464   1.346  0.00  0.00    -0.494 OA
ATOM     28  C   UNL     1      -4.806  -3.333   1.974  0.00  0.00    +0.277 C 
ENDBRANCH   5  27
TORSDOF 5
