REMARK  Name = ZINC13121286
REMARK  9 active torsions:
REMARK  status: ('A' for Active; 'I' for Inactive)
REMARK    1  A    between atoms: C_1  and  C_2
REMARK    2  A    between atoms: C_2  and  C_3
REMARK    3  A    between atoms: C_3  and  C_5
REMARK    4  A    between atoms: C_3  and  C_6
REMARK    5  A    between atoms: C_9  and  C_12
REMARK    6  A    between atoms: C_12  and  C_14
REMARK    7  A    between atoms: C_12  and  N_19
REMARK    8  A    between atoms: C_20  and  C_22
REMARK    9  A    between atoms: N_31  and  C_33
REMARK                            x       y       z     vdW  Elec       q    Type
REMARK                         _______ _______ _______ _____ _____    ______ ____
ROOT
ATOM      1  C   UNL     1      -3.031   4.978   6.245  0.00  0.00    +0.140 C 
ENDROOT
BRANCH   1   5
ATOM      2  C   UNL     1      -1.345   3.596   2.571  0.00  0.00    -0.045 A 
ATOM      3  C   UNL     1      -2.638   3.248   2.912  0.00  0.00    +0.004 A 
ATOM      4  C   UNL     1      -3.182   3.690   4.104  0.00  0.00    +0.006 A 
ATOM      5  C   UNL     1      -2.436   4.491   4.949  0.00  0.00    -0.022 A 
ATOM      6  C   UNL     1      -1.145   4.844   4.605  0.00  0.00    +0.006 A 
ATOM      7  C   UNL     1      -0.599   4.396   3.416  0.00  0.00    +0.004 A 
BRANCH   2   8
ATOM      8  C   UNL     1      -0.750   3.109   1.275  0.00  0.00    +0.016 C 
ATOM      9  C   UNL     1      -1.595   3.614   0.104  0.00  0.00    +0.012 C 
BRANCH   8  11
ATOM     10  C   UNL     1      -0.013   1.086   0.008  0.00  0.00    +0.004 C 
ATOM     11  C   UNL     1      -0.729   1.579   1.267  0.00  0.00    +0.004 C 
ENDBRANCH   8  11
ENDBRANCH   2   8
ENDBRANCH   1   5
BRANCH   1  12
ATOM     12  C   UNL     1      -3.924   6.162   5.973  0.00  0.00    +0.014 A 
ATOM     13  C   UNL     1      -3.662   7.482   6.128  0.00  0.00    +0.013 A 
ATOM     14  C   UNL     1      -4.644   8.402   5.812  0.00  0.00    +0.008 A 
ATOM     15  C   UNL     1      -5.840   7.957   5.357  0.00  0.00    +0.045 A 
ATOM     16  S   UNL     1      -5.600   6.188   5.357  0.00  0.00    -0.099 S 
ENDBRANCH   1  12
BRANCH   1  17
ATOM     17  N   UNL     1      -3.817   3.904   6.856  0.00  0.00    -0.299 N 
ATOM     18  C   UNL     1      -4.020   3.892   8.188  0.00  0.00    +0.265 C 
ATOM     19  O   UNL     1      -3.551   4.773   8.883  0.00  0.00    -0.268 OA
ATOM     20  H   UNL     1      -4.191   3.200   6.302  0.00  0.00    +0.150 HD
BRANCH  18  21
ATOM     21  C   UNL     1      -4.812   2.808   8.805  0.00  0.00    +0.154 A 
ATOM     22  C   UNL     1      -5.034   2.783  10.259  0.00  0.00    +0.020 A 
ATOM     23  C   UNL     1      -4.533   3.759  11.115  0.00  0.00    +0.011 A 
ATOM     24  C   UNL     1      -4.789   3.670  12.467  0.00  0.00    +0.001 A 
ATOM     25  C   UNL     1      -5.542   2.622  12.980  0.00  0.00    +0.001 A 
ATOM     26  C   UNL     1      -6.052   1.647  12.149  0.00  0.00    +0.014 A 
ATOM     27  C   UNL     1      -5.805   1.720  10.782  0.00  0.00    +0.050 A 
ATOM     28  C   UNL     1      -6.310   0.724   9.826  0.00  0.00    +0.275 A 
ATOM     29  O   UNL     1      -6.977  -0.221  10.204  0.00  0.00    -0.266 OA
ATOM     30  N   UNL     1      -6.016   0.882   8.518  0.00  0.00    -0.231 N 
ATOM     31  N   UNL     1      -5.321   1.855   8.063  0.00  0.00    -0.163 NA
ATOM     32  C   UNL     1      -6.521  -0.113   7.569  0.00  0.00    +0.176 C 
ENDBRANCH  18  21
ENDBRANCH   1  17
TORSDOF 6
