REMARK  Name = ZINC01900951
REMARK  9 active torsions:
REMARK  status: ('A' for Active; 'I' for Inactive)
REMARK    1  A    between atoms: C_4  and  C_7
REMARK    2  A    between atoms: C_7  and  C_8
REMARK    3  A    between atoms: C_8  and  N_9
REMARK    4  A    between atoms: C_10  and  C_12
REMARK    5  A    between atoms: C_12  and  C_40
REMARK    6  A    between atoms: N_14  and  C_34
REMARK    7  A    between atoms: C_18  and  C_19
REMARK    8  A    between atoms: C_22  and  C_24
REMARK    9  A    between atoms: C_27  and  N_30
REMARK                            x       y       z     vdW  Elec       q    Type
REMARK                         _______ _______ _______ _____ _____    ______ ____
ROOT
ATOM      1  C   UNL     1       6.932  -3.636   2.693  0.00  0.00    +0.144 C 
ATOM      2  C   UNL     1       7.763  -3.507   3.801  0.00  0.00    +0.111 A 
ATOM      3  N   UNL     1       9.098  -3.818   3.904  0.00  0.00    -0.269 N 
ATOM      4  C   UNL     1       9.698  -3.613   5.068  0.00  0.00    +0.271 A 
ATOM      5  O   UNL     1      10.875  -3.864   5.233  0.00  0.00    -0.266 OA
ATOM      6  C   UNL     1       8.855  -3.060   6.160  0.00  0.00    +0.082 A 
ATOM      7  C   UNL     1       9.224  -2.747   7.478  0.00  0.00    +0.066 C 
ATOM      8  S   UNL     1       7.353  -2.893   5.423  0.00  0.00    -0.064 S 
ENDROOT
BRANCH   3   9
ATOM      9  C   UNL     1       9.803  -4.337   2.812  0.00  0.00    +0.051 A 
ATOM     10  C   UNL     1      10.416  -3.479   1.908  0.00  0.00    +0.026 A 
ATOM     11  C   UNL     1      11.110  -3.994   0.831  0.00  0.00    +0.002 A 
ATOM     12  C   UNL     1      11.196  -5.362   0.652  0.00  0.00    +0.000 A 
ATOM     13  C   UNL     1      10.586  -6.219   1.550  0.00  0.00    +0.002 A 
ATOM     14  C   UNL     1       9.895  -5.711   2.632  0.00  0.00    +0.026 A 
ENDBRANCH   3   9
BRANCH   7  15
ATOM     15  C   UNL     1       8.284  -2.234   8.358  0.00  0.00    +0.130 A 
ATOM     16  C   UNL     1       8.515  -1.856   9.754  0.00  0.00    +0.050 A 
ATOM     17  C   UNL     1       7.321  -1.405  10.230  0.00  0.00    +0.050 A 
ATOM     18  C   UNL     1       6.384  -1.495   9.184  0.00  0.00    +0.136 A 
ATOM     19  O   UNL     1       6.983  -1.984   8.085  0.00  0.00    -0.455 OA
BRANCH  18  20
ATOM     20  C   UNL     1       4.975  -1.109   9.276  0.00  0.00    +0.017 A 
ATOM     21  C   UNL     1       4.459  -0.596  10.478  0.00  0.00    +0.014 A 
ATOM     22  C   UNL     1       3.133  -0.236  10.554  0.00  0.00    +0.033 A 
ATOM     23  C   UNL     1       2.306  -0.378   9.450  0.00  0.00    +0.126 A 
ATOM     24  C   UNL     1       2.805  -0.883   8.260  0.00  0.00    +0.033 A 
ATOM     25  C   UNL     1       4.130  -1.244   8.161  0.00  0.00    +0.014 A 
BRANCH  23  26
ATOM     26  N   UNL     1       0.882   0.013   9.543  0.00  0.00    +0.056 N 
ATOM     27  O   UNL     1       0.403   0.493  10.672  0.00  0.00    -0.126 OA
ATOM     28  O   UNL     1       0.093  -0.120   8.497  0.00  0.00    -0.126 OA
ENDBRANCH  23  26
ENDBRANCH  18  20
ENDBRANCH   7  15
BRANCH   1  30
ATOM     29  N   UNL     1       4.748  -3.245   1.670  0.00  0.00    -0.310 N 
ATOM     30  C   UNL     1       5.553  -3.121   2.743  0.00  0.00    +0.257 C 
ATOM     31  O   UNL     1       5.141  -2.583   3.753  0.00  0.00    -0.269 OA
ATOM     32  H   UNL     1       5.077  -3.674   0.864  0.00  0.00    +0.149 HD
BRANCH  29  33
ATOM     33  C   UNL     1       3.376  -2.733   1.720  0.00  0.00    +0.109 C 
BRANCH  33  34
ATOM     34  C   UNL     1       2.683  -3.000   0.382  0.00  0.00    +0.054 C 
BRANCH  34  38
ATOM     35  C   UNL     1      -1.316  -1.507   0.525  0.00  0.00    +0.000 A 
ATOM     36  C   UNL     1      -0.288  -0.689   0.095  0.00  0.00    +0.000 A 
ATOM     37  C   UNL     1       1.006  -1.172   0.048  0.00  0.00    +0.004 A 
ATOM     38  C   UNL     1       1.272  -2.473   0.433  0.00  0.00    -0.046 A 
ATOM     39  C   UNL     1       0.245  -3.290   0.865  0.00  0.00    +0.004 A 
ATOM     40  C   UNL     1      -1.050  -2.808   0.910  0.00  0.00    +0.000 A 
ENDBRANCH  34  38
ENDBRANCH  33  34
ENDBRANCH  29  33
ENDBRANCH   1  30
BRANCH   1  41
ATOM     41  C   UNL     1       7.417  -4.269   1.504  0.00  0.00    +0.107 C 
ATOM     42  N   UNL     1       7.801  -4.771   0.560  0.00  0.00    -0.191 NA
ENDBRANCH   1  41
TORSDOF 9
