REMARK  Name = ZINC38670653
REMARK  12 active torsions:
REMARK  status: ('A' for Active; 'I' for Inactive)
REMARK    1  A    between atoms: C_1  and  C_2
REMARK    2  A    between atoms: C_3  and  C_34
REMARK    3  A    between atoms: C_4  and  C_33
REMARK    4  A    between atoms: C_5  and  S_10
REMARK    5  A    between atoms: C_6  and  C_9
REMARK    6  A    between atoms: C_7  and  C_8
REMARK    7  A    between atoms: S_10  and  N_13
REMARK    8  A    between atoms: N_13  and  C_14
REMARK    9  A    between atoms: C_14  and  C_15
REMARK   10  A    between atoms: C_15  and  C_17
REMARK   11  A    between atoms: C_15  and  N_28
REMARK   12  A    between atoms: N_26  and  C_27
REMARK                            x       y       z     vdW  Elec       q    Type
REMARK                         _______ _______ _______ _____ _____    ______ ____
ROOT
ATOM      1  C   UNL     1       3.164  -4.706  -0.594  0.00  0.00    -0.022 C 
ENDROOT
BRANCH   1   2
ATOM      2  C   UNL     1       4.244  -4.729   0.458  0.00  0.00    -0.059 A 
ATOM      3  C   UNL     1       4.230  -5.704   1.439  0.00  0.00    +0.004 A 
ATOM      4  C   UNL     1       5.218  -5.724   2.403  0.00  0.00    +0.023 A 
ATOM      5  C   UNL     1       6.226  -4.766   2.386  0.00  0.00    +0.033 A 
ATOM      6  C   UNL     1       6.241  -3.792   1.400  0.00  0.00    -0.026 A 
ATOM      7  C   UNL     1       5.248  -3.781   0.435  0.00  0.00    +0.007 A 
ATOM      8  C   UNL     1       7.323  -2.746   1.344  0.00  0.00    +0.038 C 
ATOM      9  C   UNL     1       8.003  -2.605   2.706  0.00  0.00    +0.024 C 
ATOM     10  C   UNL     1       8.431  -3.996   3.193  0.00  0.00    +0.105 C 
ATOM     11  N   UNL     1       7.216  -4.802   3.374  0.00  0.00    -0.333 N 
ATOM     12  C   UNL     1       7.043  -5.628   4.572  0.00  0.00    +0.129 C 
ENDBRANCH   1   2
BRANCH   1  13
ATOM     13  N   UNL     1       2.852  -6.081  -1.006  0.00  0.00    +0.385 N 
ATOM     14  C   UNL     1       1.900  -6.070  -2.146  0.00  0.00    -0.078 C 
ATOM     15  C   UNL     1       2.114  -7.458  -2.800  0.00  0.00    -0.020 C 
ATOM     16  C   UNL     1       3.638  -7.674  -2.661  0.00  0.00    -0.020 C 
ATOM     17  C   UNL     1       4.072  -6.752  -1.506  0.00  0.00    -0.078 C 
ATOM     18  H   UNL     1       2.464  -6.597  -0.231  0.00  0.00    -0.081 HD
ENDBRANCH   1  13
BRANCH   1  19
ATOM     19  C   UNL     1       1.907  -4.048  -0.020  0.00  0.00    +0.095 C 
BRANCH  19  20
ATOM     20  N   UNL     1       2.191  -2.646   0.296  0.00  0.00    -0.191 NA
ATOM     21  H   UNL     1       3.108  -2.333   0.333  0.00  0.00    +0.148 HD
BRANCH  20  22
ATOM     22  S   UNL     1       0.945  -1.595   0.590  0.00  0.00    +0.059 S 
ATOM     23  O   UNL     1       0.011  -1.767  -0.467  0.00  0.00    -0.153 OA
ATOM     24  O   UNL     1       1.536  -0.338   0.888  0.00  0.00    -0.153 OA
BRANCH  22  29
ATOM     25  C   UNL     1      -1.799  -3.451   5.633  0.00  0.00    +0.044 C 
ATOM     26  C   UNL     1      -1.113  -2.987   4.374  0.00  0.00    -0.044 A 
ATOM     27  C   UNL     1      -1.548  -3.442   3.143  0.00  0.00    -0.043 A 
ATOM     28  C   UNL     1      -0.920  -3.017   1.987  0.00  0.00    -0.021 A 
ATOM     29  C   UNL     1       0.143  -2.136   2.063  0.00  0.00    +0.112 A 
ATOM     30  C   UNL     1       0.577  -1.681   3.293  0.00  0.00    -0.021 A 
ATOM     31  C   UNL     1      -0.054  -2.103   4.449  0.00  0.00    -0.043 A 
ATOM     32  C   UNL     1       0.416  -1.602   5.790  0.00  0.00    +0.044 C 
ATOM     33  C   UNL     1       1.736  -0.722   3.376  0.00  0.00    +0.046 C 
ATOM     34  C   UNL     1      -1.393  -3.514   0.645  0.00  0.00    +0.046 C 
ATOM     35  C   UNL     1      -2.707  -4.402   3.061  0.00  0.00    +0.044 C 
ENDBRANCH  22  29
ENDBRANCH  20  22
ENDBRANCH  19  20
ENDBRANCH   1  19
TORSDOF 6
