REMARK  Name = ZINC63530483
REMARK  7 active torsions:
REMARK  status: ('A' for Active; 'I' for Inactive)
REMARK    1  A    between atoms: C_1  and  C_2
REMARK    2  A    between atoms: C_6  and  N_8
REMARK    3  A    between atoms: C_13  and  C_15
REMARK    4  A    between atoms: C_16  and  C_18
REMARK    5  A    between atoms: C_20  and  S_29
REMARK    6  A    between atoms: C_24  and  C_28
REMARK    7  A    between atoms: S_29  and  C_30
REMARK                            x       y       z     vdW  Elec       q    Type
REMARK                         _______ _______ _______ _____ _____    ______ ____
ROOT
ATOM      1  C   UNL     1       1.241  -4.201   6.527  0.00  0.00    +0.204 C 
ATOM      2  C   UNL     1       2.581  -4.050   7.212  0.00  0.00    +0.030 C 
ATOM      3  C   UNL     1       2.475  -4.756   8.406  0.00  0.00    +0.010 A 
ATOM      4  C   UNL     1       3.384  -4.983   9.463  0.00  0.00    +0.011 A 
ATOM      5  C   UNL     1       3.002  -5.729  10.531  0.00  0.00    +0.004 A 
ATOM      6  C   UNL     1       1.724  -6.285  10.614  0.00  0.00    -0.048 A 
ATOM      7  C   UNL     1       0.801  -6.107   9.636  0.00  0.00    +0.029 A 
ATOM      8  C   UNL     1       1.127  -5.339   8.491  0.00  0.00    +0.044 A 
ATOM      9  N   UNL     1       0.419  -5.024   7.420  0.00  0.00    -0.369 N 
ATOM     10  C   UNL     1       1.360  -7.105  11.825  0.00  0.00    +0.044 C 
ATOM     11  H   UNL     1      -0.497  -5.294   7.251  0.00  0.00    +0.161 HD
ENDROOT
BRANCH   1  19
ATOM     12  N   UNL     1       1.415  -2.667   1.885  0.00  0.00    -0.324 N 
ATOM     13  C   UNL     1       1.243  -2.008   3.187  0.00  0.00    +0.124 C 
ATOM     14  C   UNL     1       2.092  -2.748   4.228  0.00  0.00    +0.127 C 
ATOM     15  N   UNL     1       1.817  -4.188   4.121  0.00  0.00    -0.296 N 
ATOM     16  C   UNL     1       1.989  -4.847   2.819  0.00  0.00    +0.130 C 
ATOM     17  C   UNL     1       1.134  -4.106   1.777  0.00  0.00    +0.088 C 
ATOM     18  C   UNL     1       1.494  -4.595   0.372  0.00  0.00    +0.029 C 
ATOM     19  C   UNL     1       1.413  -4.891   5.198  0.00  0.00    +0.243 C 
ATOM     20  O   UNL     1       1.188  -6.078   5.097  0.00  0.00    -0.273 OA
BRANCH  12  26
ATOM     21  C   UNL     1       4.987  -0.309  -0.532  0.00  0.00    +0.044 C 
ATOM     22  C   UNL     1       3.559  -0.783  -0.429  0.00  0.00    -0.049 A 
ATOM     23  C   UNL     1       2.662  -0.495  -1.441  0.00  0.00    +0.003 A 
ATOM     24  C   UNL     1       1.352  -0.927  -1.351  0.00  0.00    +0.002 A 
ATOM     25  C   UNL     1       0.935  -1.648  -0.249  0.00  0.00    +0.023 A 
ATOM     26  C   UNL     1       1.834  -1.938   0.769  0.00  0.00    +0.030 A 
ATOM     27  C   UNL     1       3.151  -1.508   0.673  0.00  0.00    +0.026 A 
ENDBRANCH  12  26
ENDBRANCH   1  19
BRANCH   2  28
ATOM     28  S   UNL     1       3.903  -3.215   6.655  0.00  0.00    -0.091 S 
BRANCH  28  29
ATOM     29  C   UNL     1       3.426  -1.524   6.787  0.00  0.00    +0.013 A 
ATOM     30  C   UNL     1       2.226  -1.185   7.400  0.00  0.00    +0.016 A 
ATOM     31  C   UNL     1       1.855   0.141   7.502  0.00  0.00    +0.021 A 
ATOM     32  C   UNL     1       2.676   1.132   6.992  0.00  0.00    +0.041 A 
ATOM     33  C   UNL     1       3.872   0.798   6.380  0.00  0.00    +0.021 A 
ATOM     34  C   UNL     1       4.251  -0.526   6.282  0.00  0.00    +0.016 A 
ATOM     35 CL   UNL     1       2.206   2.798   7.121  0.00  0.00    -0.084 Cl
ENDBRANCH  28  29
ENDBRANCH   2  28
TORSDOF 4
