REMARK  Name = ZINC20681378
REMARK  6 active torsions:
REMARK  status: ('A' for Active; 'I' for Inactive)
REMARK    1  A    between atoms: C_3  and  C_9
REMARK    2  A    between atoms: C_4  and  O_8
REMARK    3  A    between atoms: C_6  and  O_7
REMARK    4  A    between atoms: C_20  and  S_25
REMARK    5  A    between atoms: S_25  and  N_28
REMARK    6  A    between atoms: N_28  and  C_29
REMARK                            x       y       z     vdW  Elec       q    Type
REMARK                         _______ _______ _______ _____ _____    ______ ____
ROOT
ATOM      1  C   UNL     1       1.235  -2.187  -0.021  0.00  0.00    +0.108 C 
ATOM      2  C   UNL     1       1.149  -2.705  -1.446  0.00  0.00    +0.029 C 
ATOM      3  C   UNL     1      -0.181  -2.491  -2.167  0.00  0.00    +0.033 C 
ATOM      4  C   UNL     1      -0.176  -3.669  -3.143  0.00  0.00    -0.030 C 
ATOM      5  C   UNL     1       0.559  -4.661  -2.653  0.00  0.00    -0.023 C 
ATOM      6  C   UNL     1       1.073  -4.256  -1.320  0.00  0.00    +0.049 C 
ATOM      7  C   UNL     1       2.370  -4.738  -0.799  0.00  0.00    -0.018 A 
ATOM      8  C   UNL     1       2.916  -5.947  -1.175  0.00  0.00    +0.034 A 
ATOM      9  C   UNL     1       4.113  -6.372  -0.630  0.00  0.00    +0.106 A 
ATOM     10  C   UNL     1       4.769  -5.582   0.297  0.00  0.00    +0.030 A 
ATOM     11  C   UNL     1       4.236  -4.367   0.673  0.00  0.00    +0.025 A 
ATOM     12  C   UNL     1       3.037  -3.927   0.126  0.00  0.00    +0.031 A 
ATOM     13  N   UNL     1       2.523  -2.683   0.511  0.00  0.00    -0.336 N 
ATOM     14  H   UNL     1       3.097  -2.070   1.222  0.00  0.00    +0.147 HD
ENDROOT
BRANCH   1  17
ATOM     15  C   UNL     1       2.385   1.408  -0.013  0.00  0.00    +0.046 A 
ATOM     16  C   UNL     1       2.401   0.026  -0.021  0.00  0.00    +0.012 A 
ATOM     17  C   UNL     1       1.214  -0.680  -0.013  0.00  0.00    +0.015 A 
ATOM     18  C   UNL     1       0.002  -0.004   0.002  0.00  0.00    +0.125 A 
ATOM     19  C   UNL     1      -0.017   1.382   0.010  0.00  0.00    +0.091 A 
ATOM     20  C   UNL     1       1.176   2.089   0.002  0.00  0.00    +0.120 A 
BRANCH  20  21
ATOM     21  O   UNL     1       1.161   3.448   0.009  0.00  0.00    -0.507 OA
ATOM     22  H   UNL     1       0.202   3.987   0.021  0.00  0.00    +0.292 HD
ENDBRANCH  20  21
BRANCH  18  23
ATOM     23  O   UNL     1      -1.165  -0.700   0.009  0.00  0.00    -0.506 OA
ATOM     24  H   UNL     1      -2.125  -0.164   0.021  0.00  0.00    +0.292 HD
ENDBRANCH  18  23
ENDBRANCH   1  17
BRANCH   9  25
ATOM     25  S   UNL     1       4.803  -7.919  -1.116  0.00  0.00    +0.059 S 
ATOM     26  O   UNL     1       5.652  -8.336  -0.055  0.00  0.00    -0.153 OA
ATOM     27  O   UNL     1       3.724  -8.715  -1.586  0.00  0.00    -0.153 OA
BRANCH  25  28
ATOM     28  N   UNL     1       5.782  -7.631  -2.420  0.00  0.00    -0.187 NA
ATOM     29  H   UNL     1       5.439  -7.921  -3.424  0.00  0.00    +0.148 HD
BRANCH  28  30
ATOM     30  C   UNL     1       6.984  -6.807  -2.266  0.00  0.00    +0.077 C 
ATOM     31  C   UNL     1       6.663  -5.361  -2.649  0.00  0.00    +0.020 C 
ATOM     32  C   UNL     1       7.918  -4.500  -2.489  0.00  0.00    +0.002 C 
ATOM     33  C   UNL     1       9.024  -5.036  -3.400  0.00  0.00    +0.000 C 
ATOM     34  C   UNL     1       9.345  -6.482  -3.016  0.00  0.00    +0.002 C 
ATOM     35  C   UNL     1       8.090  -7.342  -3.177  0.00  0.00    +0.020 C 
ENDBRANCH  28  30
ENDBRANCH  25  28
ENDBRANCH   9  25
TORSDOF 6
