REMARK  Name = ZINC19798586
REMARK  9 active torsions:
REMARK  status: ('A' for Active; 'I' for Inactive)
REMARK    1  A    between atoms: C_1  and  C_2
REMARK    2  A    between atoms: C_2  and  O_3
REMARK    3  A    between atoms: O_3  and  C_4
REMARK    4  A    between atoms: C_6  and  C_19
REMARK    5  A    between atoms: C_9  and  O_10
REMARK    6  A    between atoms: O_10  and  C_11
REMARK    7  A    between atoms: C_11  and  C_12
REMARK    8  A    between atoms: C_29  and  C_31
REMARK    9  A    between atoms: C_34  and  C_37
REMARK                            x       y       z     vdW  Elec       q    Type
REMARK                         _______ _______ _______ _____ _____    ______ ____
ROOT
ATOM      1  C   UNL     1      -0.205  -4.962   0.438  0.00  0.00    +0.024 C 
ATOM      2  C   UNL     1      -0.756  -6.161   0.044  0.00  0.00    +0.079 C 
ATOM      3  C   UNL     1      -1.442  -7.065   1.011  0.00  0.00    +0.132 C 
ATOM      4  N   UNL     1      -2.118  -6.633   2.042  0.00  0.00    -0.385 N 
ATOM      5  N   UNL     1      -1.288  -8.434   0.702  0.00  0.00    -0.153 N 
ATOM      6  C   UNL     1      -1.007  -8.764  -0.607  0.00  0.00    +0.181 C 
ATOM      7  N   UNL     1      -0.766  -7.947  -1.601  0.00  0.00    -0.152 NA
ATOM      8  C   UNL     1      -0.706  -6.619  -1.366  0.00  0.00    +0.273 C 
ATOM      9  O   UNL     1      -0.608  -5.820  -2.283  0.00  0.00    -0.268 OA
ATOM     10  S   UNL     1      -1.040 -10.536  -0.562  0.00  0.00    -0.033 S 
ATOM     11  C   UNL     1      -1.321 -10.723   1.193  0.00  0.00    +0.130 C 
ATOM     12  N   UNL     1      -1.406  -9.478   1.595  0.00  0.00    -0.164 NA
ATOM     13  H   UNL     1      -2.192  -5.681   2.208  0.00  0.00    +0.157 HD
ATOM     14  H   UNL     1      -2.545  -7.265   2.641  0.00  0.00    +0.157 HD
ENDROOT
BRANCH  11  15
ATOM     15  C   UNL     1      -1.430 -11.966   1.989  0.00  0.00    +0.009 A 
ATOM     16  C   UNL     1      -1.660 -11.899   3.364  0.00  0.00    +0.011 A 
ATOM     17  C   UNL     1      -1.761 -13.061   4.100  0.00  0.00    +0.004 A 
ATOM     18  C   UNL     1      -1.634 -14.291   3.479  0.00  0.00    -0.050 A 
ATOM     19  C   UNL     1      -1.406 -14.364   2.117  0.00  0.00    +0.004 A 
ATOM     20  C   UNL     1      -1.309 -13.209   1.368  0.00  0.00    +0.011 A 
ATOM     21  C   UNL     1      -1.745 -15.556   4.290  0.00  0.00    +0.044 C 
ENDBRANCH  11  15
BRANCH   1  24
ATOM     22  C   UNL     1       1.328  -2.069  -1.384  0.00  0.00    +0.162 A 
ATOM     23  C   UNL     1       0.552  -2.789  -0.499  0.00  0.00    +0.057 A 
ATOM     24  C   UNL     1       0.615  -4.190  -0.499  0.00  0.00    -0.021 A 
ATOM     25  C   UNL     1       1.465  -4.850  -1.398  0.00  0.00    +0.012 A 
ATOM     26  C   UNL     1       2.235  -4.121  -2.276  0.00  0.00    +0.050 A 
ATOM     27  C   UNL     1       2.167  -2.733  -2.279  0.00  0.00    +0.162 A 
BRANCH  22  28
ATOM     28  O   UNL     1       1.270  -0.710  -1.388  0.00  0.00    -0.489 OA
BRANCH  28  30
ATOM     29  C   UNL     1       0.459   1.425  -0.598  0.00  0.00    +0.048 C 
ATOM     30  C   UNL     1       0.389  -0.096  -0.445  0.00  0.00    +0.226 C 
ENDBRANCH  28  30
ENDBRANCH  22  28
BRANCH  27  31
ATOM     31  O   UNL     1       2.924  -2.021  -3.153  0.00  0.00    -0.484 OA
BRANCH  31  32
ATOM     32  C   UNL     1       3.761  -2.764  -4.041  0.00  0.00    +0.267 C 
BRANCH  32  33
ATOM     33  C   UNL     1       4.521  -1.812  -4.929  0.00  0.00    +0.025 A 
ATOM     34  C   UNL     1       4.343  -0.449  -4.793  0.00  0.00    +0.010 A 
ATOM     35  C   UNL     1       5.040   0.424  -5.607  0.00  0.00    +0.001 A 
ATOM     36  C   UNL     1       5.915  -0.065  -6.559  0.00  0.00    +0.003 A 
ATOM     37  C   UNL     1       6.095  -1.428  -6.697  0.00  0.00    +0.039 A 
ATOM     38  C   UNL     1       5.401  -2.304  -5.878  0.00  0.00    +0.130 A 
ATOM     39  F   UNL     1       5.579  -3.637  -6.009  0.00  0.00    -0.205 F 
ENDBRANCH  32  33
ENDBRANCH  31  32
ENDBRANCH  27  31
ENDBRANCH   1  24
TORSDOF 7
