REMARK  Name = ZINC43095230
REMARK  5 active torsions:
REMARK  status: ('A' for Active; 'I' for Inactive)
REMARK    1  A    between atoms: C_5  and  C_7
REMARK    2  A    between atoms: C_7  and  C_9
REMARK    3  A    between atoms: C_7  and  O_11
REMARK    4  A    between atoms: C_9  and  N_10
REMARK    5  A    between atoms: O_11  and  C_12
REMARK                            x       y       z     vdW  Elec       q    Type
REMARK                         _______ _______ _______ _____ _____    ______ ____
ROOT
ATOM      1  C   UNL     1       1.235  -2.175   0.002  0.00  0.00    +0.187 C 
ENDROOT
BRANCH   1   6
ATOM      2  C   UNL     1       0.122   1.410   0.397  0.00  0.00    +0.000 A 
ATOM      3  C   UNL     1       1.334   2.074   0.431  0.00  0.00    +0.001 A 
ATOM      4  C   UNL     1       2.515   1.363   0.326  0.00  0.00    +0.015 A 
ATOM      5  C   UNL     1       2.483  -0.013   0.187  0.00  0.00    +0.024 A 
ATOM      6  C   UNL     1       1.270  -0.676   0.153  0.00  0.00    +0.005 A 
ATOM      7  C   UNL     1       0.090   0.036   0.258  0.00  0.00    +0.008 A 
ATOM      8 BR   UNL     1       4.098  -0.986   0.043  0.00  0.00    -0.050 Br
ENDBRANCH   1   6
BRANCH   1   9
ATOM      9  C   UNL     1       1.310  -2.539  -1.482  0.00  0.00    -0.036 C 
BRANCH   9  10
ATOM     10  N   UNL     1       1.275  -4.001  -1.630  0.00  0.00    +0.381 N 
ATOM     11  H   UNL     1       1.324  -4.241  -2.609  0.00  0.00    -0.090 HD
ATOM     12  H   UNL     1       2.061  -4.406  -1.145  0.00  0.00    -0.090 HD
ATOM     13  H   UNL     1       0.417  -4.359  -1.239  0.00  0.00    -0.090 HD
ENDBRANCH   9  10
ENDBRANCH   1   9
BRANCH   1  14
ATOM     14  O   UNL     1       0.020  -2.682   0.556  0.00  0.00    -0.486 OA
BRANCH  14  15
ATOM     15  C   UNL     1       0.062  -3.925   1.104  0.00  0.00    +0.121 A 
ATOM     16  C   UNL     1       1.267  -4.608   1.183  0.00  0.00    +0.046 A 
ATOM     17  C   UNL     1       1.309  -5.872   1.741  0.00  0.00    +0.018 A 
ATOM     18  C   UNL     1       0.150  -6.455   2.220  0.00  0.00    +0.014 A 
ATOM     19  C   UNL     1      -1.053  -5.776   2.141  0.00  0.00    +0.018 A 
ATOM     20  C   UNL     1      -1.098  -4.511   1.589  0.00  0.00    +0.046 A 
ATOM     21  I   UNL     1       0.216  -8.372   3.064  0.00  0.00    -0.044 I 
ENDBRANCH  14  15
ENDBRANCH   1  14
TORSDOF 5
