REMARK  Name = ZINC36647931
REMARK  11 active torsions:
REMARK  status: ('A' for Active; 'I' for Inactive)
REMARK    1  A    between atoms: C_1  and  C_2
REMARK    2  A    between atoms: C_2  and  C_3
REMARK    3  A    between atoms: N_12  and  C_13
REMARK    4  A    between atoms: C_13  and  C_14
REMARK    5  A    between atoms: C_14  and  C_15
REMARK    6  A    between atoms: C_15  and  N_16
REMARK    7  A    between atoms: N_16  and  C_17
REMARK    8  A    between atoms: N_16  and  C_18
REMARK    9  A    between atoms: C_19  and  C_21
REMARK   10  A    between atoms: N_26  and  S_28
REMARK   11  A    between atoms: S_28  and  C_31
REMARK                            x       y       z     vdW  Elec       q    Type
REMARK                         _______ _______ _______ _____ _____    ______ ____
ROOT
ATOM      1  C   UNL     1      -1.044  -2.094  -0.071  0.00  0.00    -0.046 A 
ATOM      2  C   UNL     1      -1.631  -2.670   1.047  0.00  0.00    +0.006 A 
ATOM      3  C   UNL     1      -2.956  -3.017   1.062  0.00  0.00    +0.029 A 
ATOM      4  C   UNL     1      -3.774  -2.796  -0.070  0.00  0.00    +0.080 A 
ATOM      5  C   UNL     1      -3.143  -2.207  -1.190  0.00  0.00    +0.041 A 
ATOM      6  C   UNL     1      -1.816  -1.858  -1.194  0.00  0.00    +0.021 A 
ATOM      7  S   UNL     1      -4.474  -2.102  -2.362  0.00  0.00    -0.052 S 
ATOM      8  C   UNL     1      -5.742  -2.822  -1.327  0.00  0.00    +0.168 A 
ATOM      9  N   UNL     1      -5.087  -3.076  -0.219  0.00  0.00    -0.224 NA
ATOM     10  N   UNL     1      -7.076  -3.053  -1.621  0.00  0.00    -0.250 N 
ATOM     11  C   UNL     1      -7.536  -2.849  -2.871  0.00  0.00    +0.226 C 
ATOM     12  O   UNL     1      -8.722  -2.948  -3.105  0.00  0.00    -0.275 OA
ENDROOT
BRANCH  11  13
ATOM     13  C   UNL     1      -6.577  -2.497  -3.979  0.00  0.00    +0.091 C 
ATOM     14  C   UNL     1      -6.356  -0.983  -4.003  0.00  0.00    +0.015 C 
ATOM     15  C   UNL     1      -5.356  -0.628  -5.106  0.00  0.00    +0.018 C 
ATOM     16  C   UNL     1      -5.927  -1.055  -6.462  0.00  0.00    +0.109 C 
ATOM     17  N   UNL     1      -6.277  -2.480  -6.401  0.00  0.00    -0.175 NA
ATOM     18  C   UNL     1      -7.160  -2.946  -5.322  0.00  0.00    +0.122 C 
BRANCH  17  19
ATOM     19  S   UNL     1      -5.688  -3.543  -7.526  0.00  0.00    +0.067 S 
ATOM     20  O   UNL     1      -6.590  -4.641  -7.559  0.00  0.00    -0.152 OA
ATOM     21  O   UNL     1      -5.375  -2.779  -8.682  0.00  0.00    -0.152 OA
BRANCH  19  22
ATOM     22  C   UNL     1      -4.161  -4.165  -6.905  0.00  0.00    +0.143 A 
ATOM     23  C   UNL     1      -3.934  -5.257  -6.134  0.00  0.00    +0.036 A 
ATOM     24  C   UNL     1      -2.637  -5.558  -5.762  0.00  0.00    +0.010 A 
ATOM     25  C   UNL     1      -1.630  -4.752  -6.180  0.00  0.00    +0.047 A 
ATOM     26  S   UNL     1      -2.510  -3.526  -7.134  0.00  0.00    -0.077 S 
ENDBRANCH  19  22
ENDBRANCH  17  19
ENDBRANCH  11  13
BRANCH   1  28
ATOM     27  C   UNL     1       0.574  -0.289   0.451  0.00  0.00    +0.009 C 
ATOM     28  C   UNL     1       0.416  -1.723  -0.059  0.00  0.00    +0.032 C 
ENDBRANCH   1  28
BRANCH  10  29
ATOM     29  C   UNL     1      -7.987  -3.518  -0.572  0.00  0.00    +0.114 C 
BRANCH  29  30
ATOM     30  C   UNL     1      -8.540  -2.315   0.194  0.00  0.00    +0.001 C 
BRANCH  30  31
ATOM     31  C   UNL     1      -9.491  -2.802   1.289  0.00  0.00    -0.078 C 
BRANCH  31  32
ATOM     32  N   UNL     1     -10.023  -1.647   2.025  0.00  0.00    +0.376 N 
ATOM     33  C   UNL     1     -11.026  -2.104   2.996  0.00  0.00    -0.097 C 
ATOM     34  C   UNL     1      -8.928  -0.971   2.733  0.00  0.00    -0.097 C 
ATOM     35  H   UNL     1     -10.451  -1.003   1.376  0.00  0.00    -0.083 HD
ENDBRANCH  31  32
ENDBRANCH  30  31
ENDBRANCH  29  30
ENDBRANCH  10  29
TORSDOF 8
