REMARK  Name = ZINC15857464
REMARK  11 active torsions:
REMARK  status: ('A' for Active; 'I' for Inactive)
REMARK    1  A    between atoms: C_1  and  C_2
REMARK    2  A    between atoms: C_2  and  O_3
REMARK    3  A    between atoms: O_3  and  C_4
REMARK    4  A    between atoms: C_6  and  C_17
REMARK    5  A    between atoms: C_9  and  O_10
REMARK    6  A    between atoms: O_10  and  C_11
REMARK    7  A    between atoms: C_11  and  C_13
REMARK    8  A    between atoms: C_11  and  C_14
REMARK    9  A    between atoms: N_24  and  C_27
REMARK   10  A    between atoms: C_30  and  C_34
REMARK   11  A    between atoms: C_31  and  C_33
REMARK                            x       y       z     vdW  Elec       q    Type
REMARK                         _______ _______ _______ _____ _____    ______ ____
ROOT
ATOM      1  C   UNL     1       0.498  -7.130   2.307  0.00  0.00    +0.026 C 
ATOM      2  C   UNL     1       0.032  -6.491   1.174  0.00  0.00    +0.102 C 
ATOM      3  C   UNL     1       0.249  -7.054  -0.174  0.00  0.00    +0.274 C 
ATOM      4  O   UNL     1       0.848  -8.103  -0.324  0.00  0.00    -0.268 OA
ATOM      5  N   UNL     1      -0.235  -6.375  -1.234  0.00  0.00    -0.153 NA
ATOM      6  C   UNL     1      -0.900  -5.221  -1.082  0.00  0.00    +0.171 C 
ATOM      7  S   UNL     1      -1.483  -4.432  -2.485  0.00  0.00    -0.016 S 
ATOM      8  N   UNL     1      -1.129  -4.649   0.108  0.00  0.00    -0.216 N 
ATOM      9  C   UNL     1      -0.705  -5.214   1.256  0.00  0.00    +0.262 C 
ATOM     10  O   UNL     1      -0.923  -4.688   2.331  0.00  0.00    -0.269 OA
ENDROOT
BRANCH   8  11
ATOM     11  C   UNL     1      -1.831  -3.437   0.161  0.00  0.00    +0.044 A 
ATOM     12  C   UNL     1      -1.260  -2.280  -0.352  0.00  0.00    +0.024 A 
ATOM     13  C   UNL     1      -1.954  -1.087  -0.298  0.00  0.00    +0.005 A 
ATOM     14  C   UNL     1      -3.217  -1.045   0.265  0.00  0.00    -0.047 A 
ATOM     15  C   UNL     1      -3.785  -2.194   0.782  0.00  0.00    -0.046 A 
ATOM     16  C   UNL     1      -3.098  -3.392   0.726  0.00  0.00    +0.027 A 
ATOM     17  C   UNL     1      -5.158  -2.143   1.400  0.00  0.00    +0.044 C 
ATOM     18  C   UNL     1      -3.971   0.258   0.322  0.00  0.00    +0.044 C 
ENDBRANCH   8  11
BRANCH   1  21
ATOM     19  C   UNL     1      -0.044  -6.474   5.954  0.00  0.00    +0.162 A 
ATOM     20  C   UNL     1      -0.009  -7.123   4.738  0.00  0.00    +0.057 A 
ATOM     21  C   UNL     1       0.458  -6.448   3.600  0.00  0.00    -0.020 A 
ATOM     22  C   UNL     1       0.891  -5.118   3.708  0.00  0.00    +0.012 A 
ATOM     23  C   UNL     1       0.847  -4.478   4.925  0.00  0.00    +0.050 A 
ATOM     24  C   UNL     1       0.384  -5.149   6.051  0.00  0.00    +0.163 A 
BRANCH  19  25
ATOM     25  O   UNL     1      -0.496  -7.125   7.059  0.00  0.00    -0.489 OA
BRANCH  25  27
ATOM     26  C   UNL     1      -1.390  -9.041   8.230  0.00  0.00    +0.048 C 
ATOM     27  C   UNL     1      -0.919  -8.479   6.887  0.00  0.00    +0.226 C 
ENDBRANCH  25  27
ENDBRANCH  19  25
BRANCH  24  28
ATOM     28  O   UNL     1       0.349  -4.513   7.250  0.00  0.00    -0.474 OA
BRANCH  28  29
ATOM     29  C   UNL     1       0.876  -3.186   7.296  0.00  0.00    +0.283 C 
ATOM     30  C   UNL     1       2.397  -3.246   7.452  0.00  0.00    +0.064 C 
BRANCH  29  31
ATOM     31  C   UNL     1       0.280  -2.449   8.468  0.00  0.00    +0.395 C 
ATOM     32  O   UNL     1      -0.445  -3.029   9.241  0.00  0.00    -0.242 OA
ATOM     33  O   UNL     1       0.554  -1.148   8.652  0.00  0.00    -0.242 OA
ENDBRANCH  29  31
ENDBRANCH  28  29
ENDBRANCH  24  28
ENDBRANCH   1  21
TORSDOF 7
