REMARK  Name = ZINC00163106
REMARK  3 active torsions:
REMARK  status: ('A' for Active; 'I' for Inactive)
REMARK    1  A    between atoms: C_1  and  S_2
REMARK    2  A    between atoms: S_2  and  C_3
REMARK    3  A    between atoms: C_5  and  C_10
REMARK                            x       y       z     vdW  Elec       q    Type
REMARK                         _______ _______ _______ _____ _____    ______ ____
ROOT
ATOM      1  C   UNL     1       0.174   0.961   2.735  0.00  0.00    +0.193 A 
ATOM      2  N   UNL     1      -0.099   1.157   4.022  0.00  0.00    -0.202 NA
ATOM      3  C   UNL     1       0.678   0.617   4.956  0.00  0.00    +0.166 A 
ATOM      4  N   UNL     1       1.734  -0.109   4.604  0.00  0.00    -0.195 NA
ATOM      5  C   UNL     1       2.011  -0.300   3.317  0.00  0.00    +0.217 A 
ATOM      6  N   UNL     1       1.231   0.234   2.383  0.00  0.00    -0.189 NA
ATOM      7  N   UNL     1       3.107  -1.054   2.951  0.00  0.00    -0.327 N 
ATOM      8  H   UNL     1       3.309  -1.194   2.013  0.00  0.00    +0.145 HD
ATOM      9  H   UNL     1       3.677  -1.444   3.633  0.00  0.00    +0.145 HD
ENDROOT
BRANCH   3  10
ATOM     10  C   UNL     1       0.369   0.830   6.392  0.00  0.00    +0.025 A 
ATOM     11  C   UNL     1      -0.733   1.594   6.784  0.00  0.00    +0.051 A 
ATOM     12  C   UNL     1      -0.987   1.763   8.132  0.00  0.00    +0.132 A 
ATOM     13  N   UNL     1      -0.200   1.223   9.042  0.00  0.00    -0.224 NA
ATOM     14  C   UNL     1       0.853   0.499   8.714  0.00  0.00    +0.132 A 
ATOM     15  C   UNL     1       1.176   0.276   7.389  0.00  0.00    +0.051 A 
ATOM     16 CL   UNL     1       1.847  -0.183   9.964  0.00  0.00    -0.062 Cl
ATOM     17 CL   UNL     1      -2.356   2.706   8.633  0.00  0.00    -0.062 Cl
ENDBRANCH   3  10
BRANCH   1  19
ATOM     18  C   UNL     1      -0.013   1.086   0.008  0.00  0.00    +0.093 C 
ATOM     19  S   UNL     1      -0.860   1.669   1.497  0.00  0.00    -0.089 S 
ENDBRANCH   1  19
TORSDOF 2
