REMARK  Name = ZINC66444421
REMARK  10 active torsions:
REMARK  status: ('A' for Active; 'I' for Inactive)
REMARK    1  A    between atoms: C_1  and  C_2
REMARK    2  A    between atoms: C_5  and  C_8
REMARK    3  A    between atoms: N_13  and  C_14
REMARK    4  A    between atoms: C_14  and  C_15
REMARK    5  A    between atoms: N_17  and  C_18
REMARK    6  A    between atoms: C_18  and  C_20
REMARK    7  A    between atoms: C_18  and  C_21
REMARK    8  A    between atoms: C_21  and  C_22
REMARK    9  A    between atoms: C_25  and  C_29
REMARK   10  A    between atoms: C_27  and  C_28
REMARK                            x       y       z     vdW  Elec       q    Type
REMARK                         _______ _______ _______ _____ _____    ______ ____
ROOT
ATOM      1  C   UNL     1       0.132  -4.832   3.312  0.00  0.00    +0.233 C 
ATOM      2  O   UNL     1      -0.950  -5.128   2.851  0.00  0.00    -0.274 OA
ATOM      3  N   UNL     1       0.229  -4.409   4.588  0.00  0.00    -0.311 N 
ATOM      4  H   UNL     1       1.095  -4.173   4.956  0.00  0.00    +0.149 HD
ENDROOT
BRANCH   3   5
ATOM      5  C   UNL     1      -0.973  -4.307   5.419  0.00  0.00    +0.074 C 
ATOM      6  C   UNL     1      -1.667  -2.970   5.149  0.00  0.00    +0.028 C 
BRANCH   5   7
ATOM      7  C   UNL     1      -0.581  -4.388   6.895  0.00  0.00    +0.057 C 
BRANCH   7   8
ATOM      8  C   UNL     1       0.011  -5.744   7.184  0.00  0.00    -0.043 A 
ATOM      9  C   UNL     1       1.383  -5.907   7.214  0.00  0.00    +0.004 A 
ATOM     10  C   UNL     1       1.926  -7.151   7.478  0.00  0.00    +0.003 A 
ATOM     11  C   UNL     1       1.096  -8.231   7.713  0.00  0.00    -0.050 A 
ATOM     12  C   UNL     1      -0.276  -8.068   7.684  0.00  0.00    +0.007 A 
ATOM     13  C   UNL     1      -0.819  -6.823   7.424  0.00  0.00    -0.047 A 
ATOM     14  C   UNL     1      -2.315  -6.644   7.397  0.00  0.00    +0.044 C 
ATOM     15  C   UNL     1       1.687  -9.587   8.000  0.00  0.00    +0.044 C 
ENDBRANCH   7   8
ENDBRANCH   5   7
ENDBRANCH   3   5
BRANCH   1  16
ATOM     16  C   UNL     1       1.369  -4.938   2.457  0.00  0.00    +0.221 C 
BRANCH  16  22
ATOM     17  C   UNL     1       0.672  -4.652   0.026  0.00  0.00    +0.165 A 
ATOM     18  N   UNL     1       0.416  -5.481  -0.959  0.00  0.00    -0.128 NA
ATOM     19  N   UNL     1       0.556  -6.694  -0.558  0.00  0.00    -0.121 NA
ATOM     20  C   UNL     1       0.909  -6.714   0.707  0.00  0.00    +0.203 A 
ATOM     21  S   UNL     1       1.216  -8.148   1.685  0.00  0.00    -0.009 SA
ATOM     22  N   UNL     1       1.001  -5.417   1.122  0.00  0.00    -0.293 N 
BRANCH  17  27
ATOM     23  C   UNL     1       0.478   1.095  -0.202  0.00  0.00    +0.044 C 
ATOM     24  C   UNL     1       0.529  -0.410  -0.142  0.00  0.00    -0.050 A 
ATOM     25  C   UNL     1       0.608  -1.144  -1.313  0.00  0.00    +0.004 A 
ATOM     26  C   UNL     1       0.655  -2.522  -1.265  0.00  0.00    +0.012 A 
ATOM     27  C   UNL     1       0.623  -3.176  -0.032  0.00  0.00    +0.019 A 
ATOM     28  C   UNL     1       0.543  -2.430   1.145  0.00  0.00    +0.012 A 
ATOM     29  C   UNL     1       0.503  -1.052   1.083  0.00  0.00    +0.004 A 
ENDBRANCH  17  27
ENDBRANCH  16  22
ENDBRANCH   1  16
TORSDOF 6
