REMARK  Name = ZINC13342467
REMARK  9 active torsions:
REMARK  status: ('A' for Active; 'I' for Inactive)
REMARK    1  A    between atoms: C_2  and  C_3
REMARK    2  A    between atoms: C_3  and  N_4
REMARK    3  A    between atoms: C_5  and  C_24
REMARK    4  A    between atoms: C_8  and  S_9
REMARK    5  A    between atoms: S_9  and  C_10
REMARK    6  A    between atoms: C_10  and  C_11
REMARK    7  A    between atoms: N_13  and  C_14
REMARK    8  A    between atoms: C_16  and  C_22
REMARK    9  A    between atoms: C_18  and  C_20
REMARK                            x       y       z     vdW  Elec       q    Type
REMARK                         _______ _______ _______ _____ _____    ______ ____
ROOT
ATOM      1  N   UNL     1       7.330  -0.468  -0.648  0.00  0.00    -0.299 N 
ATOM      2  C   UNL     1       6.173  -0.362   0.073  0.00  0.00    +0.179 A 
ATOM      3  N   UNL     1       6.295  -1.133   1.117  0.00  0.00    -0.129 NA
ATOM      4  N   UNL     1       7.443  -1.711   1.107  0.00  0.00    -0.122 NA
ATOM      5  C   UNL     1       8.121  -1.336   0.047  0.00  0.00    +0.192 A 
ENDROOT
BRANCH   2   6
ATOM      6  C   UNL     1       4.976   0.484  -0.277  0.00  0.00    +0.278 C 
ATOM      7  C   UNL     1       4.931   1.719   0.634  0.00  0.00    +0.281 C 
ATOM      8  O   UNL     1       3.778   2.492   0.284  0.00  0.00    -0.484 OA
ATOM      9  C   UNL     1       2.610   1.811   0.128  0.00  0.00    +0.162 A 
ATOM     10  C   UNL     1       1.409   2.505   0.150  0.00  0.00    +0.049 A 
ATOM     11  C   UNL     1       0.215   1.828  -0.014  0.00  0.00    +0.004 A 
ATOM     12  C   UNL     1       0.214   0.458  -0.200  0.00  0.00    +0.004 A 
ATOM     13  C   UNL     1       1.407  -0.240  -0.221  0.00  0.00    +0.049 A 
ATOM     14  C   UNL     1       2.609   0.433  -0.056  0.00  0.00    +0.163 A 
ATOM     15  O   UNL     1       3.775  -0.268  -0.072  0.00  0.00    -0.474 OA
ENDBRANCH   2   6
BRANCH   1  16
ATOM     16  C   UNL     1       7.654   0.212  -1.905  0.00  0.00    +0.152 C 
BRANCH  16  18
ATOM     17  C   UNL     1       9.490   1.806  -2.124  0.00  0.00    +0.005 C 
ATOM     18  C   UNL     1       8.319   1.531  -1.605  0.00  0.00    -0.013 C 
ENDBRANCH  16  18
ENDBRANCH   1  16
BRANCH   5  19
ATOM     19  S   UNL     1       9.744  -1.860  -0.398  0.00  0.00    -0.077 S 
BRANCH  19  20
ATOM     20  C   UNL     1      10.101  -2.978   0.980  0.00  0.00    +0.173 C 
BRANCH  20  21
ATOM     21  C   UNL     1      11.480  -3.563   0.808  0.00  0.00    +0.227 C 
ATOM     22  O   UNL     1      12.154  -3.254  -0.152  0.00  0.00    -0.275 OA
ATOM     23  N   UNL     1      11.963  -4.429   1.721  0.00  0.00    -0.285 N 
ATOM     24  H   UNL     1      11.457  -4.617   2.527  0.00  0.00    +0.155 HD
BRANCH  23  25
ATOM     25  C   UNL     1      13.196  -5.056   1.506  0.00  0.00    +0.035 A 
ATOM     26  C   UNL     1      13.590  -5.383   0.217  0.00  0.00    +0.038 A 
ATOM     27  C   UNL     1      14.822  -6.005  -0.002  0.00  0.00    +0.066 A 
ATOM     28  C   UNL     1      15.650  -6.306   1.078  0.00  0.00    +0.030 A 
ATOM     29  C   UNL     1      15.248  -5.981   2.372  0.00  0.00    +0.066 A 
ATOM     30  C   UNL     1      14.018  -5.355   2.583  0.00  0.00    +0.038 A 
BRANCH  29  31
ATOM     31  C   UNL     1      16.122  -6.299   3.520  0.00  0.00    +0.387 C 
ATOM     32  O   UNL     1      15.771  -6.016   4.648  0.00  0.00    -0.241 OA
ATOM     33  O   UNL     1      17.308  -6.903   3.316  0.00  0.00    -0.241 OA
ENDBRANCH  29  31
BRANCH  27  34
ATOM     34  C   UNL     1      15.243  -6.348  -1.376  0.00  0.00    +0.387 C 
ATOM     35  O   UNL     1      14.521  -6.085  -2.316  0.00  0.00    -0.241 OA
ATOM     36  O   UNL     1      16.428  -6.953  -1.585  0.00  0.00    -0.241 OA
ENDBRANCH  27  34
ENDBRANCH  23  25
ENDBRANCH  20  21
ENDBRANCH  19  20
ENDBRANCH   5  19
TORSDOF 9
