REMARK  Name = ZINC19976871
REMARK  12 active torsions:
REMARK  status: ('A' for Active; 'I' for Inactive)
REMARK    1  A    between atoms: C_1  and  C_2
REMARK    2  A    between atoms: C_2  and  C_4
REMARK    3  A    between atoms: C_2  and  S_16
REMARK    4  A    between atoms: S_16  and  C_17
REMARK    5  A    between atoms: C_20  and  C_28
REMARK    6  A    between atoms: N_21  and  C_22
REMARK    7  A    between atoms: C_28  and  C_30
REMARK    8  A    between atoms: C_28  and  O_31
REMARK    9  A    between atoms: O_31  and  C_32
REMARK   10  A    between atoms: C_35  and  C_38
REMARK   11  A    between atoms: C_38  and  C_39
REMARK   12  A    between atoms: C_38  and  C_40
REMARK                            x       y       z     vdW  Elec       q    Type
REMARK                         _______ _______ _______ _____ _____    ______ ____
ROOT
ATOM      1  C   UNL     1       2.541  -0.262   0.890  0.00  0.00    +0.197 A 
ATOM      2  N   UNL     1       3.021   0.613   0.037  0.00  0.00    -0.122 NA
ATOM      3  N   UNL     1       4.248   0.872   0.318  0.00  0.00    -0.129 NA
ATOM      4  C   UNL     1       4.624   0.184   1.359  0.00  0.00    +0.179 A 
ATOM      5  N   UNL     1       3.549  -0.560   1.766  0.00  0.00    -0.271 N 
ENDROOT
BRANCH   5   6
ATOM      6  C   UNL     1       3.493  -1.445   2.853  0.00  0.00    +0.050 A 
ATOM      7  C   UNL     1       3.623  -0.964   4.148  0.00  0.00    +0.026 A 
ATOM      8  C   UNL     1       3.567  -1.838   5.216  0.00  0.00    +0.002 A 
ATOM      9  C   UNL     1       3.383  -3.191   4.996  0.00  0.00    +0.000 A 
ATOM     10  C   UNL     1       3.253  -3.672   3.707  0.00  0.00    +0.002 A 
ATOM     11  C   UNL     1       3.303  -2.803   2.635  0.00  0.00    +0.026 A 
ENDBRANCH   5   6
BRANCH   4  12
ATOM     12  C   UNL     1       5.988   0.207   1.999  0.00  0.00    +0.238 C 
ATOM     13  C   UNL     1       6.155   1.502   2.797  0.00  0.00    +0.060 C 
BRANCH  12  14
ATOM     14  O   UNL     1       6.992   0.141   0.984  0.00  0.00    -0.481 OA
BRANCH  14  15
ATOM     15  C   UNL     1       8.203  -0.359   1.346  0.00  0.00    +0.122 A 
ATOM     16  C   UNL     1       8.456  -0.676   2.673  0.00  0.00    +0.046 A 
ATOM     17  C   UNL     1       9.687  -1.184   3.038  0.00  0.00    +0.007 A 
ATOM     18  C   UNL     1      10.668  -1.377   2.082  0.00  0.00    -0.045 A 
ATOM     19  C   UNL     1      10.419  -1.061   0.759  0.00  0.00    +0.007 A 
ATOM     20  C   UNL     1       9.187  -0.559   0.388  0.00  0.00    +0.046 A 
BRANCH  18  21
ATOM     21  C   UNL     1      12.011  -1.931   2.483  0.00  0.00    +0.013 C 
ATOM     22  C   UNL     1      12.265  -3.242   1.736  0.00  0.00    +0.012 C 
ATOM     23  C   UNL     1      13.105  -0.922   2.130  0.00  0.00    +0.012 C 
ENDBRANCH  18  21
ENDBRANCH  14  15
ENDBRANCH  12  14
ENDBRANCH   4  12
BRANCH   1  24
ATOM     24  S   UNL     1       0.907  -0.921   0.908  0.00  0.00    -0.075 S 
BRANCH  24  26
ATOM     25  C   UNL     1      -0.005   1.384  -0.247  0.00  0.00    +0.027 C 
ATOM     26  C   UNL     1       0.095  -0.121  -0.503  0.00  0.00    +0.117 C 
BRANCH  26  27
ATOM     27  C   UNL     1      -1.288  -0.694  -0.677  0.00  0.00    +0.124 A 
ATOM     28  N   UNL     1      -1.904  -1.232   0.407  0.00  0.00    -0.309 N 
ATOM     29  H   UNL     1      -1.450  -1.238   1.264  0.00  0.00    +0.170 HD
ATOM     30  C   UNL     1      -3.147  -1.759   0.303  0.00  0.00    +0.259 A 
ATOM     31  O   UNL     1      -3.711  -2.243   1.266  0.00  0.00    -0.267 OA
ATOM     32  C   UNL     1      -3.788  -1.722  -1.020  0.00  0.00    +0.065 A 
ATOM     33  C   UNL     1      -5.065  -2.238  -1.234  0.00  0.00    +0.015 A 
ATOM     34  C   UNL     1      -5.618  -2.178  -2.495  0.00  0.00    +0.001 A 
ATOM     35  C   UNL     1      -4.915  -1.609  -3.549  0.00  0.00    +0.002 A 
ATOM     36  C   UNL     1      -3.652  -1.095  -3.358  0.00  0.00    +0.028 A 
ATOM     37  C   UNL     1      -3.070  -1.143  -2.090  0.00  0.00    +0.078 A 
ATOM     38  N   UNL     1      -1.831  -0.643  -1.856  0.00  0.00    -0.233 NA
ENDBRANCH  26  27
ENDBRANCH  24  26
ENDBRANCH   1  24
TORSDOF 8
