REMARK  Name = ZINC12280071
REMARK  6 active torsions:
REMARK  status: ('A' for Active; 'I' for Inactive)
REMARK    1  A    between atoms: C_4  and  C_7
REMARK    2  A    between atoms: C_7  and  C_8
REMARK    3  A    between atoms: C_8  and  N_9
REMARK    4  A    between atoms: C_10  and  C_12
REMARK    5  A    between atoms: C_15  and  N_28
REMARK    6  A    between atoms: C_18  and  N_63
REMARK                            x       y       z     vdW  Elec       q    Type
REMARK                         _______ _______ _______ _____ _____    ______ ____
ROOT
ATOM      1  C   UNL     1       1.153  -0.189   0.493  0.00  0.00    +0.022 C 
ATOM      2  C   UNL     1       0.035   0.494  -0.321  0.00  0.00    +0.019 C 
ATOM      3  C   UNL     1       0.141   1.979   0.117  0.00  0.00    +0.093 C 
ATOM      4  C   UNL     1       1.671   2.143   0.297  0.00  0.00    -0.050 C 
ATOM      5  N   UNL     1       2.112   0.860   0.877  0.00  0.00    +0.391 N 
ATOM      6  H   UNL     1       2.136   0.940   1.901  0.00  0.00    -0.080 HD
ENDROOT
BRANCH   5   7
ATOM      7  C   UNL     1       3.472   0.516   0.385  0.00  0.00    -0.061 C 
ATOM      8  C   UNL     1       4.034  -0.637   1.220  0.00  0.00    -0.024 C 
ATOM      9  C   UNL     1       5.436  -0.991   0.722  0.00  0.00    +0.005 C 
ATOM     10  C   UNL     1       6.349   0.229   0.858  0.00  0.00    -0.010 C 
ATOM     11  C   UNL     1       6.421   0.650   2.328  0.00  0.00    +0.007 C 
ATOM     12  C   UNL     1       5.018   1.004   2.826  0.00  0.00    -0.010 C 
ATOM     13  C   UNL     1       4.105  -0.216   2.689  0.00  0.00    +0.005 C 
ATOM     14  C   UNL     1       4.456   2.158   1.992  0.00  0.00    +0.005 C 
ATOM     15  C   UNL     1       4.385   1.736   0.522  0.00  0.00    -0.024 C 
ATOM     16  C   UNL     1       5.787   1.383   0.024  0.00  0.00    +0.005 C 
ENDBRANCH   5   7
BRANCH   3  17
ATOM     17  N   UNL     1      -0.364   2.872  -0.929  0.00  0.00    -0.231 N 
ATOM     18  C   UNL     1      -0.277   2.677  -2.257  0.00  0.00    +0.245 A 
ATOM     19  N   UNL     1      -0.850   3.708  -2.828  0.00  0.00    -0.117 NA
ATOM     20  N   UNL     1      -1.268   4.496  -1.898  0.00  0.00    -0.023 NA
ATOM     21  N   UNL     1      -0.981   3.991  -0.749  0.00  0.00    -0.044 NA
ENDBRANCH   3  17
BRANCH   1  23
ATOM     22  N   UNL     1       1.924  -2.508   0.107  0.00  0.00    -0.316 N 
ATOM     23  C   UNL     1       1.829  -1.242  -0.347  0.00  0.00    +0.200 C 
ATOM     24  O   UNL     1       2.287  -0.951  -1.432  0.00  0.00    -0.278 OA
ATOM     25  H   UNL     1       1.558  -2.741   0.975  0.00  0.00    +0.149 HD
BRANCH  22  26
ATOM     26  C   UNL     1       2.581  -3.532  -0.710  0.00  0.00    +0.109 C 
BRANCH  26  27
ATOM     27  C   UNL     1       2.554  -4.870   0.032  0.00  0.00    +0.054 C 
BRANCH  27  31
ATOM     28  C   UNL     1       4.468  -7.856  -2.349  0.00  0.00    +0.000 A 
ATOM     29  C   UNL     1       5.208  -7.109  -1.451  0.00  0.00    +0.000 A 
ATOM     30  C   UNL     1       4.588  -6.143  -0.681  0.00  0.00    +0.004 A 
ATOM     31  C   UNL     1       3.230  -5.923  -0.808  0.00  0.00    -0.046 A 
ATOM     32  C   UNL     1       2.489  -6.673  -1.703  0.00  0.00    +0.004 A 
ATOM     33  C   UNL     1       3.110  -7.636  -2.477  0.00  0.00    +0.000 A 
ENDBRANCH  27  31
ENDBRANCH  26  27
ENDBRANCH  22  26
ENDBRANCH   1  23
TORSDOF 6
