REMARK  Name = ZINC39530046
REMARK  9 active torsions:
REMARK  status: ('A' for Active; 'I' for Inactive)
REMARK    1  A    between atoms: C_1  and  C_2
REMARK    2  A    between atoms: C_2  and  N_3
REMARK    3  A    between atoms: N_3  and  C_4
REMARK    4  A    between atoms: N_3  and  C_21
REMARK    5  A    between atoms: C_4  and  C_5
REMARK    6  A    between atoms: C_5  and  C_6
REMARK    7  A    between atoms: N_8  and  C_9
REMARK    8  A    between atoms: C_10  and  C_19
REMARK    9  A    between atoms: C_21  and  C_22
REMARK                            x       y       z     vdW  Elec       q    Type
REMARK                         _______ _______ _______ _____ _____    ______ ____
ROOT
ATOM      1  C   UNL     1      -1.943   1.509  -1.141  0.00  0.00    +0.077 C 
ENDROOT
BRANCH   1   2
ATOM      2  C   UNL     1      -2.582   1.998  -2.415  0.00  0.00    +0.216 C 
ATOM      3  O   UNL     1      -3.047   1.204  -3.205  0.00  0.00    -0.276 OA
ATOM      4  N   UNL     1      -2.638   3.319  -2.677  0.00  0.00    -0.279 N 
ATOM      5  H   UNL     1      -2.266   3.955  -2.046  0.00  0.00    +0.155 HD
BRANCH   4   6
ATOM      6  C   UNL     1      -3.226   3.770  -3.850  0.00  0.00    +0.090 A 
ATOM      7  C   UNL     1      -3.367   5.076  -4.285  0.00  0.00    +0.084 A 
ATOM      8  C   UNL     1      -4.028   5.290  -5.564  0.00  0.00    -0.018 A 
ATOM      9  C   UNL     1      -4.431   4.152  -6.168  0.00  0.00    -0.004 A 
ATOM     10  S   UNL     1      -3.925   2.856  -5.072  0.00  0.00    -0.077 S 
ATOM     11  C   UNL     1      -5.153   4.016  -7.472  0.00  0.00    +0.043 C 
ATOM     12  C   UNL     1      -4.435   4.858  -8.535  0.00  0.00    +0.005 C 
ATOM     13  C   UNL     1      -5.024   6.266  -8.520  0.00  0.00    +0.001 C 
ATOM     14  C   UNL     1      -5.445   6.646  -7.102  0.00  0.00    +0.005 C 
ATOM     15  C   UNL     1      -4.235   6.669  -6.174  0.00  0.00    +0.037 C 
BRANCH   7  16
ATOM     16  C   UNL     1      -2.881   6.175  -3.505  0.00  0.00    +0.102 C 
ATOM     17  N   UNL     1      -2.496   7.047  -2.887  0.00  0.00    -0.191 NA
ENDBRANCH   7  16
ENDBRANCH   4   6
ENDBRANCH   1   2
BRANCH   1  18
ATOM     18  C   UNL     1      -2.011  -0.019  -1.091  0.00  0.00    -0.069 C 
BRANCH  18  19
ATOM     19  N   UNL     1      -1.274  -0.503   0.084  0.00  0.00    +0.383 N 
ATOM     20  H   UNL     1      -0.336  -0.133   0.069  0.00  0.00    -0.081 HD
BRANCH  19  22
ATOM     21  C   UNL     1      -0.391  -2.430  -1.143  0.00  0.00    -0.017 C 
ATOM     22  C   UNL     1      -1.222  -1.971   0.058  0.00  0.00    -0.082 C 
ENDBRANCH  19  22
BRANCH  19  23
ATOM     23  C   UNL     1      -1.956  -0.060   1.307  0.00  0.00    -0.043 C 
BRANCH  23  24
ATOM     24  C   UNL     1      -1.136  -0.451   2.509  0.00  0.00    -0.060 A 
ATOM     25  C   UNL     1      -1.338  -1.679   3.112  0.00  0.00    +0.005 A 
ATOM     26  C   UNL     1      -0.588  -2.042   4.215  0.00  0.00    +0.050 A 
ATOM     27  C   UNL     1       0.368  -1.175   4.719  0.00  0.00    +0.166 A 
ATOM     28  C   UNL     1       0.571   0.062   4.112  0.00  0.00    +0.166 A 
ATOM     29  C   UNL     1      -0.180   0.417   3.004  0.00  0.00    +0.051 A 
ATOM     30  O   UNL     1       1.555   0.723   4.788  0.00  0.00    -0.453 OA
ATOM     31  C   UNL     1       1.667   0.052   6.058  0.00  0.00    +0.466 C 
ATOM     32  O   UNL     1       1.225  -1.289   5.776  0.00  0.00    -0.453 OA
ENDBRANCH  23  24
ENDBRANCH  19  23
ENDBRANCH  18  19
ENDBRANCH   1  18
TORSDOF 8
