REMARK  Name = ZINC01675879
REMARK  6 active torsions:
REMARK  status: ('A' for Active; 'I' for Inactive)
REMARK    1  A    between atoms: C_4  and  C_7
REMARK    2  A    between atoms: C_9  and  C_19
REMARK    3  A    between atoms: C_9  and  N_22
REMARK    4  A    between atoms: C_11  and  C_12
REMARK    5  A    between atoms: C_11  and  O_18
REMARK    6  A    between atoms: N_22  and  C_23
REMARK                            x       y       z     vdW  Elec       q    Type
REMARK                         _______ _______ _______ _____ _____    ______ ____
ROOT
ATOM      1  C   UNL     1      -1.287   2.321   0.299  0.00  0.00    -0.006 C 
ATOM      2  C   UNL     1      -0.499   1.263   0.232  0.00  0.00    +0.015 C 
ATOM      3  C   UNL     1       0.944   1.677   0.058  0.00  0.00    +0.131 C 
ATOM      4  C   UNL     1       0.879   3.155  -0.390  0.00  0.00    +0.084 C 
ATOM      5  C   UNL     1      -0.485   3.597   0.189  0.00  0.00    +0.119 C 
ENDROOT
BRANCH   1   9
ATOM      6  C   UNL     1      -5.505   2.160   0.769  0.00  0.00    +0.000 A 
ATOM      7  C   UNL     1      -4.682   1.701   1.781  0.00  0.00    +0.001 A 
ATOM      8  C   UNL     1      -3.311   1.750   1.635  0.00  0.00    +0.008 A 
ATOM      9  C   UNL     1      -2.755   2.265   0.463  0.00  0.00    -0.019 A 
ATOM     10  C   UNL     1      -3.592   2.732  -0.552  0.00  0.00    +0.008 A 
ATOM     11  C   UNL     1      -4.961   2.672  -0.395  0.00  0.00    +0.001 A 
ENDBRANCH   1   9
BRANCH   5  12
ATOM     12  C   UNL     1      -1.164   4.563  -0.748  0.00  0.00    -0.012 A 
ATOM     13  C   UNL     1      -1.288   4.254  -2.089  0.00  0.00    +0.007 A 
ATOM     14  C   UNL     1      -1.915   5.138  -2.947  0.00  0.00    +0.000 A 
ATOM     15  C   UNL     1      -2.409   6.336  -2.466  0.00  0.00    +0.000 A 
ATOM     16  C   UNL     1      -2.280   6.648  -1.125  0.00  0.00    +0.000 A 
ATOM     17  C   UNL     1      -1.657   5.761  -0.266  0.00  0.00    +0.007 A 
ENDBRANCH   5  12
BRANCH   3  18
ATOM     18  C   UNL     1       1.685   1.557   1.365  0.00  0.00    +0.238 C 
ATOM     19  O   UNL     1       1.814   2.528   2.080  0.00  0.00    -0.273 OA
ATOM     20  N   UNL     1       2.205   0.371   1.738  0.00  0.00    -0.327 N 
ATOM     21  H   UNL     1       2.041  -0.420   1.202  0.00  0.00    +0.145 HD
ATOM     22  H   UNL     1       2.745   0.310   2.542  0.00  0.00    +0.145 HD
ENDBRANCH   3  18
BRANCH   5  23
ATOM     23  O   UNL     1      -0.310   4.193   1.476  0.00  0.00    -0.379 OA
ATOM     24  H   UNL     1      -1.133   4.489   1.887  0.00  0.00    +0.211 HD
ENDBRANCH   5  23
BRANCH   3  25
ATOM     25  N   UNL     1       1.589   0.860  -0.972  0.00  0.00    -0.327 N 
ATOM     26  H   UNL     1       1.091   0.153  -1.413  0.00  0.00    +0.147 HD
BRANCH  25  27
ATOM     27  C   UNL     1       2.921   1.098  -1.321  0.00  0.00    +0.028 A 
ATOM     28  C   UNL     1       3.642   2.093  -0.674  0.00  0.00    +0.024 A 
ATOM     29  C   UNL     1       4.960   2.322  -1.017  0.00  0.00    +0.017 A 
ATOM     30  C   UNL     1       5.559   1.569  -2.011  0.00  0.00    +0.018 A 
ATOM     31  C   UNL     1       4.840   0.582  -2.662  0.00  0.00    +0.017 A 
ATOM     32  C   UNL     1       3.524   0.344  -2.319  0.00  0.00    +0.024 A 
ATOM     33 BR   UNL     1       7.361   1.891  -2.483  0.00  0.00    -0.050 Br
ENDBRANCH  25  27
ENDBRANCH   3  25
TORSDOF 6
