REMARK  Name = ZINC35613640
REMARK  6 active torsions:
REMARK  status: ('A' for Active; 'I' for Inactive)
REMARK    1  A    between atoms: C_1  and  C_2
REMARK    2  A    between atoms: C_2  and  N_3
REMARK    3  A    between atoms: C_9  and  C_12
REMARK    4  A    between atoms: C_12  and  N_13
REMARK    5  A    between atoms: C_14  and  C_22
REMARK    6  A    between atoms: C_17  and  C_21
REMARK                            x       y       z     vdW  Elec       q    Type
REMARK                         _______ _______ _______ _____ _____    ______ ____
ROOT
ATOM      1  N   UNL     1       5.650  -4.654   4.429  0.00  0.00    -0.284 N 
ATOM      2  C   UNL     1       5.703  -4.989   5.865  0.00  0.00    +0.165 C 
ATOM      3  S   UNL     1       6.461  -6.670   5.816  0.00  0.00    -0.121 S 
ATOM      4  C   UNL     1       6.063  -7.025   4.049  0.00  0.00    +0.131 C 
ATOM      5  C   UNL     1       5.812  -5.617   3.532  0.00  0.00    +0.229 C 
ATOM      6  O   UNL     1       5.766  -5.384   2.343  0.00  0.00    -0.274 OA
ATOM      7  C   UNL     1       7.248  -7.679   3.335  0.00  0.00    +0.029 C 
ENDROOT
BRANCH   2   8
ATOM      8  C   UNL     1       6.581  -4.020   6.615  0.00  0.00    -0.013 A 
ATOM      9  C   UNL     1       7.646  -3.415   5.973  0.00  0.00    +0.010 A 
ATOM     10  C   UNL     1       8.454  -2.528   6.658  0.00  0.00    +0.050 A 
ATOM     11  C   UNL     1       8.198  -2.241   7.991  0.00  0.00    +0.162 A 
ATOM     12  C   UNL     1       7.126  -2.847   8.635  0.00  0.00    +0.162 A 
ATOM     13  C   UNL     1       6.317  -3.734   7.941  0.00  0.00    +0.055 A 
ATOM     14  O   UNL     1       6.853  -2.574   9.940  0.00  0.00    -0.485 OA
ATOM     15  C   UNL     1       7.900  -1.965  10.703  0.00  0.00    +0.270 C 
ATOM     16  C   UNL     1       8.495  -0.820   9.874  0.00  0.00    +0.270 C 
ATOM     17  O   UNL     1       9.005  -1.368   8.653  0.00  0.00    -0.485 OA
ENDBRANCH   2   8
BRANCH   1  18
ATOM     18  C   UNL     1       5.414  -3.273   3.999  0.00  0.00    +0.113 C 
BRANCH  18  25
ATOM     19  N   UNL     1       0.711  -0.489   1.188  0.00  0.00    -0.300 N 
ATOM     20  C   UNL     1       0.854  -1.814   1.394  0.00  0.00    +0.302 C 
ATOM     21  O   UNL     1       0.317  -2.606   0.644  0.00  0.00    -0.253 OA
ATOM     22  N   UNL     1       1.591  -2.260   2.430  0.00  0.00    -0.286 N 
ATOM     23  C   UNL     1       2.149  -1.319   3.411  0.00  0.00    +0.109 C 
ATOM     24  C   UNL     1       3.657  -1.561   3.524  0.00  0.00    +0.024 C 
ATOM     25  C   UNL     1       3.910  -3.035   3.852  0.00  0.00    +0.009 C 
ATOM     26  C   UNL     1       3.363  -3.911   2.723  0.00  0.00    +0.024 C 
ATOM     27  C   UNL     1       1.847  -3.696   2.604  0.00  0.00    +0.109 C 
ATOM     28  H   UNL     1       1.077   0.142   1.827  0.00  0.00    +0.150 HD
BRANCH  19  30
ATOM     29  C   UNL     1      -0.016   1.526   0.009  0.00  0.00    +0.024 C 
ATOM     30  C   UNL     1       0.004  -0.004   0.001  0.00  0.00    +0.102 C 
ENDBRANCH  19  30
ENDBRANCH  18  25
ENDBRANCH   1  18
TORSDOF 4
