REMARK  Name = ZINC36046933
REMARK  11 active torsions:
REMARK  status: ('A' for Active; 'I' for Inactive)
REMARK    1  A    between atoms: C_1  and  C_2
REMARK    2  A    between atoms: C_2  and  O_3
REMARK    3  A    between atoms: O_3  and  C_4
REMARK    4  A    between atoms: C_7  and  C_10
REMARK    5  A    between atoms: N_15  and  C_16
REMARK    6  A    between atoms: C_16  and  C_17
REMARK    7  A    between atoms: C_18  and  C_30
REMARK    8  A    between atoms: C_19  and  C_25
REMARK    9  A    between atoms: C_30  and  O_32
REMARK   10  A    between atoms: O_32  and  C_33
REMARK   11  A    between atoms: C_33  and  C_34
REMARK                            x       y       z     vdW  Elec       q    Type
REMARK                         _______ _______ _______ _____ _____    ______ ____
ROOT
ATOM      1  C   UNL     1      -3.674  -7.710   2.966  0.00  0.00    +0.008 C 
ATOM      2  C   UNL     1      -4.303  -8.904   2.920  0.00  0.00    +0.079 C 
ATOM      3  C   UNL     1      -5.493  -9.110   3.834  0.00  0.00    +0.179 C 
ATOM      4  N   UNL     1      -5.870  -7.983   4.703  0.00  0.00    -0.285 N 
ATOM      5  C   UNL     1      -5.144  -6.850   4.635  0.00  0.00    +0.304 C 
ATOM      6  O   UNL     1      -5.447  -5.914   5.349  0.00  0.00    -0.252 OA
ATOM      7  N   UNL     1      -4.095  -6.724   3.812  0.00  0.00    -0.274 N 
ATOM      8  H   UNL     1      -6.624  -8.054   5.310  0.00  0.00    +0.151 HD
ATOM      9  H   UNL     1      -3.611  -5.884   3.813  0.00  0.00    +0.156 HD
ENDROOT
BRANCH   3  10
ATOM     10  C   UNL     1      -6.684  -9.452   2.975  0.00  0.00    +0.130 A 
ATOM     11  C   UNL     1      -7.175 -10.687   2.767  0.00  0.00    +0.047 A 
ATOM     12  C   UNL     1      -8.286 -10.546   1.905  0.00  0.00    +0.041 A 
ATOM     13  C   UNL     1      -8.408  -9.233   1.638  0.00  0.00    +0.195 A 
ATOM     14  O   UNL     1      -7.439  -8.575   2.294  0.00  0.00    -0.466 OA
ENDBRANCH   3  10
BRANCH   2  15
ATOM     15  C   UNL     1      -3.864  -9.928   2.047  0.00  0.00    +0.339 C 
ATOM     16  O   UNL     1      -4.444 -10.120   0.995  0.00  0.00    -0.245 OA
BRANCH  15  17
ATOM     17  O   UNL     1      -2.803 -10.691   2.383  0.00  0.00    -0.462 OA
BRANCH  17  18
ATOM     18  C   UNL     1      -2.416 -11.707   1.455  0.00  0.00    +0.229 C 
ATOM     19  C   UNL     1      -1.204 -12.463   2.003  0.00  0.00    +0.048 C 
ENDBRANCH  17  18
ENDBRANCH  15  17
ENDBRANCH   2  15
BRANCH   1  20
ATOM     20  C   UNL     1      -2.485  -7.463   2.073  0.00  0.00    -0.026 C 
BRANCH  20  25
ATOM     21  C   UNL     1      -1.603  -6.059   0.329  0.00  0.00    -0.037 C 
ATOM     22  C   UNL     1      -1.940  -6.341  -1.150  0.00  0.00    -0.013 C 
ATOM     23  C   UNL     1      -3.117  -7.347  -1.054  0.00  0.00    -0.020 C 
ATOM     24  C   UNL     1      -3.869  -6.831   0.198  0.00  0.00    -0.078 C 
ATOM     25  N   UNL     1      -2.801  -6.386   1.124  0.00  0.00    +0.388 N 
ATOM     26  H   UNL     1      -3.107  -5.569   1.629  0.00  0.00    -0.080 HD
BRANCH  21  30
ATOM     27  C   UNL     1      -0.607  -1.934   0.833  0.00  0.00    +0.121 A 
ATOM     28  C   UNL     1       0.397  -2.889   0.779  0.00  0.00    +0.046 A 
ATOM     29  C   UNL     1       0.073  -4.222   0.616  0.00  0.00    +0.005 A 
ATOM     30  C   UNL     1      -1.252  -4.604   0.507  0.00  0.00    -0.061 A 
ATOM     31  C   UNL     1      -2.254  -3.654   0.560  0.00  0.00    +0.005 A 
ATOM     32  C   UNL     1      -1.935  -2.320   0.729  0.00  0.00    +0.046 A 
BRANCH  27  33
ATOM     33  O   UNL     1      -0.290  -0.622   0.993  0.00  0.00    -0.492 OA
BRANCH  33  35
ATOM     34  C   UNL     1       1.257   1.214   1.268  0.00  0.00    +0.048 C 
ATOM     35  C   UNL     1       1.098  -0.297   1.093  0.00  0.00    +0.225 C 
ENDBRANCH  33  35
ENDBRANCH  27  33
ENDBRANCH  21  30
ENDBRANCH  20  25
ENDBRANCH   1  20
TORSDOF 9
