REMARK  Name = ZINC08927540
REMARK  11 active torsions:
REMARK  status: ('A' for Active; 'I' for Inactive)
REMARK    1  A    between atoms: C_1  and  C_2
REMARK    2  A    between atoms: C_2  and  O_3
REMARK    3  A    between atoms: O_3  and  C_4
REMARK    4  A    between atoms: C_4  and  C_6
REMARK    5  A    between atoms: C_10  and  N_11
REMARK    6  A    between atoms: C_12  and  C_14
REMARK    7  A    between atoms: N_19  and  S_20
REMARK    8  A    between atoms: S_20  and  C_23
REMARK    9  A    between atoms: C_26  and  O_29
REMARK   10  A    between atoms: O_29  and  C_30
REMARK   11  A    between atoms: C_32  and  C_36
REMARK                            x       y       z     vdW  Elec       q    Type
REMARK                         _______ _______ _______ _____ _____    ______ ____
ROOT
ATOM      1  N   UNL     1      -0.876   4.322  -4.859  0.00  0.00    -0.278 N 
ATOM      2  C   UNL     1      -0.592   3.269  -5.651  0.00  0.00    +0.236 C 
ATOM      3  O   UNL     1      -0.063   2.283  -5.182  0.00  0.00    -0.274 OA
ATOM      4  H   UNL     1      -1.298   5.110  -5.234  0.00  0.00    +0.155 HD
ENDROOT
BRANCH   1   9
ATOM      5  C   UNL     1      -0.777   5.252  -2.542  0.00  0.00    +0.091 A 
ATOM      6  C   UNL     1      -0.354   4.953  -1.185  0.00  0.00    -0.021 A 
ATOM      7  C   UNL     1       0.210   3.738  -1.012  0.00  0.00    -0.004 A 
ATOM      8  S   UNL     1       0.184   2.994  -2.618  0.00  0.00    -0.077 S 
ATOM      9  C   UNL     1      -0.565   4.278  -3.509  0.00  0.00    +0.086 A 
ATOM     10  C   UNL     1       0.737   3.160   0.265  0.00  0.00    +0.046 C 
ATOM     11  C   UNL     1       0.886   4.297   1.286  0.00  0.00    -0.009 C 
ATOM     12  C   UNL     1      -0.402   5.127   1.291  0.00  0.00    +0.008 C 
ATOM     13  C   UNL     1      -0.519   5.915  -0.014  0.00  0.00    +0.037 C 
ATOM     14  C   UNL     1       1.124   3.709   2.679  0.00  0.00    +0.008 C 
BRANCH   5  15
ATOM     15  C   UNL     1      -1.404   6.532  -2.878  0.00  0.00    +0.342 C 
ATOM     16  O   UNL     1      -0.716   7.474  -3.223  0.00  0.00    -0.245 OA
BRANCH  15  17
ATOM     17  O   UNL     1      -2.744   6.666  -2.806  0.00  0.00    -0.461 OA
BRANCH  17  19
ATOM     18  C   UNL     1      -4.820   7.923  -3.012  0.00  0.00    +0.048 C 
ATOM     19  C   UNL     1      -3.297   7.963  -3.153  0.00  0.00    +0.229 C 
ENDBRANCH  17  19
ENDBRANCH  15  17
ENDBRANCH   5  15
ENDBRANCH   1   9
BRANCH   2  20
ATOM     20  C   UNL     1      -0.930   3.317  -7.119  0.00  0.00    +0.166 C 
ATOM     21  C   UNL     1      -2.238   2.534  -7.396  0.00  0.00    +0.031 C 
ATOM     22  C   UNL     1      -2.068   2.165  -8.894  0.00  0.00    +0.019 C 
ATOM     23  C   UNL     1      -0.551   1.911  -9.017  0.00  0.00    +0.110 C 
ATOM     24  N   UNL     1       0.102   2.618  -7.906  0.00  0.00    -0.165 NA
BRANCH  24  25
ATOM     25  S   UNL     1       1.728   2.630  -7.592  0.00  0.00    +0.062 S 
ATOM     26  O   UNL     1       1.880   3.082  -6.253  0.00  0.00    -0.153 OA
ATOM     27  O   UNL     1       2.236   1.380  -8.037  0.00  0.00    -0.153 OA
BRANCH  25  28
ATOM     28  C   UNL     1       2.449   3.862  -8.624  0.00  0.00    +0.106 A 
ATOM     29  C   UNL     1       3.006   3.506  -9.839  0.00  0.00    +0.032 A 
ATOM     30  C   UNL     1       3.567   4.471 -10.652  0.00  0.00    +0.047 A 
ATOM     31  C   UNL     1       3.582   5.797 -10.245  0.00  0.00    +0.120 A 
ATOM     32  C   UNL     1       3.028   6.151  -9.023  0.00  0.00    +0.047 A 
ATOM     33  C   UNL     1       2.463   5.183  -8.216  0.00  0.00    +0.032 A 
BRANCH  31  34
ATOM     34  O   UNL     1       4.139   6.748 -11.041  0.00  0.00    -0.495 OA
ATOM     35  C   UNL     1       4.691   6.311 -12.284  0.00  0.00    +0.277 C 
ENDBRANCH  31  34
ENDBRANCH  25  28
ENDBRANCH  24  25
ENDBRANCH   2  20
TORSDOF 8
