REMARK  Name = ZINC09934347
REMARK  8 active torsions:
REMARK  status: ('A' for Active; 'I' for Inactive)
REMARK    1  A    between atoms: C_1  and  C_2
REMARK    2  A    between atoms: C_2  and  C_3
REMARK    3  A    between atoms: C_15  and  C_17
REMARK    4  A    between atoms: C_20  and  O_23
REMARK    5  A    between atoms: O_23  and  C_24
REMARK    6  A    between atoms: C_28  and  C_31
REMARK    7  A    between atoms: C_34  and  O_37
REMARK    8  A    between atoms: O_37  and  C_38
REMARK                            x       y       z     vdW  Elec       q    Type
REMARK                         _______ _______ _______ _____ _____    ______ ____
ROOT
ATOM      1  C   UNL     1      -0.542  -1.304   1.964  0.00  0.00    +0.220 C 
ATOM      2  O   UNL     1       0.622  -1.641   2.026  0.00  0.00    -0.275 OA
ATOM      3  N   UNL     1      -0.953  -0.481   0.980  0.00  0.00    -0.258 N 
ATOM      4  C   UNL     1      -2.294  -0.100   0.917  0.00  0.00    +0.058 A 
ATOM      5  C   UNL     1      -2.877   0.669   1.911  0.00  0.00    +0.025 A 
ATOM      6  C   UNL     1      -4.197   1.062   1.781  0.00  0.00    +0.002 A 
ATOM      7  C   UNL     1      -4.931   0.695   0.667  0.00  0.00    +0.002 A 
ATOM      8  C   UNL     1      -4.357  -0.089  -0.320  0.00  0.00    +0.025 A 
ATOM      9  C   UNL     1      -3.043  -0.501  -0.179  0.00  0.00    +0.053 A 
ATOM     10  N   UNL     1      -2.442  -1.381  -1.071  0.00  0.00    -0.316 N 
ATOM     11  C   UNL     1      -1.367  -1.089  -1.846  0.00  0.00    +0.017 C 
ATOM     12  C   UNL     1      -0.253  -0.478  -1.408  0.00  0.00    +0.037 C 
ATOM     13  C   UNL     1       0.002  -0.004   0.002  0.00  0.00    +0.147 C 
ATOM     14  C   UNL     1       0.815  -0.222  -2.300  0.00  0.00    +0.163 C 
ATOM     15  O   UNL     1       1.819   0.315  -1.875  0.00  0.00    -0.292 OA
ATOM     16  C   UNL     1       0.753  -0.592  -3.752  0.00  0.00    +0.088 C 
ATOM     17  C   UNL     1      -0.714  -0.570  -4.198  0.00  0.00    +0.032 C 
ATOM     18  C   UNL     1      -1.487  -1.528  -3.295  0.00  0.00    +0.059 C 
ATOM     19  H   UNL     1      -2.837  -2.401  -1.188  0.00  0.00    +0.152 HD
ENDROOT
BRANCH  13  20
ATOM     20  C   UNL     1      -0.018   1.503   0.010  0.00  0.00    -0.022 A 
ATOM     21  C   UNL     1      -1.190   2.179  -0.276  0.00  0.00    +0.009 A 
ATOM     22  C   UNL     1      -1.213   3.560  -0.263  0.00  0.00    +0.046 A 
ATOM     23  C   UNL     1      -0.056   4.269   0.025  0.00  0.00    +0.120 A 
ATOM     24  C   UNL     1       1.120   3.588   0.307  0.00  0.00    +0.046 A 
ATOM     25  C   UNL     1       1.136   2.207   0.299  0.00  0.00    +0.009 A 
BRANCH  23  26
ATOM     26  O   UNL     1      -0.074   5.628   0.033  0.00  0.00    -0.495 OA
ATOM     27  C   UNL     1      -1.320   6.261  -0.265  0.00  0.00    +0.277 C 
ENDBRANCH  23  26
ENDBRANCH  13  20
BRANCH  17  28
ATOM     28  C   UNL     1      -0.819  -1.020  -5.632  0.00  0.00    -0.043 A 
ATOM     29  C   UNL     1      -0.378  -2.280  -5.994  0.00  0.00    +0.007 A 
ATOM     30  C   UNL     1      -0.479  -2.697  -7.307  0.00  0.00    +0.046 A 
ATOM     31  C   UNL     1      -1.012  -1.847  -8.265  0.00  0.00    +0.120 A 
ATOM     32  C   UNL     1      -1.448  -0.582  -7.901  0.00  0.00    +0.046 A 
ATOM     33  C   UNL     1      -1.350  -0.171  -6.585  0.00  0.00    +0.007 A 
BRANCH  31  34
ATOM     34  O   UNL     1      -1.107  -2.253  -9.559  0.00  0.00    -0.495 OA
ATOM     35  C   UNL     1      -0.638  -3.569  -9.861  0.00  0.00    +0.277 C 
ENDBRANCH  31  34
ENDBRANCH  17  28
BRANCH   1  37
ATOM     36  C   UNL     1      -0.808  -2.717   3.985  0.00  0.00    +0.013 C 
ATOM     37  C   UNL     1      -1.527  -1.807   2.987  0.00  0.00    +0.093 C 
ENDBRANCH   1  37
TORSDOF 5
