REMARK  Name = ZINC20713778
REMARK  6 active torsions:
REMARK  status: ('A' for Active; 'I' for Inactive)
REMARK    1  A    between atoms: C_1  and  C_2
REMARK    2  A    between atoms: C_2  and  N_3
REMARK    3  A    between atoms: N_3  and  C_4
REMARK    4  A    between atoms: C_10  and  C_12
REMARK    5  A    between atoms: C_25  and  C_28
REMARK    6  A    between atoms: C_33  and  N_34
REMARK                            x       y       z     vdW  Elec       q    Type
REMARK                         _______ _______ _______ _____ _____    ______ ____
ROOT
ATOM      1  C   UNL     1      -0.081   3.742  -0.904  0.00  0.00    +0.038 A 
ATOM      2  C   UNL     1       0.897   2.758  -1.076  0.00  0.00    +0.015 A 
ATOM      3  C   UNL     1       2.196   3.130  -1.333  0.00  0.00    +0.024 A 
ATOM      4  C   UNL     1       2.535   4.478  -1.420  0.00  0.00    +0.031 A 
ATOM      5  C   UNL     1       1.570   5.464  -1.252  0.00  0.00    -0.019 A 
ATOM      6  C   UNL     1       0.262   5.090  -1.000  0.00  0.00    +0.019 A 
ATOM      7  C   UNL     1       1.892   6.923  -1.341  0.00  0.00    +0.049 C 
ATOM      8  C   UNL     1       1.908   7.566   0.025  0.00  0.00    -0.023 C 
ATOM      9  C   UNL     1       2.849   8.476   0.088  0.00  0.00    -0.030 C 
ATOM     10  C   UNL     1       3.587   8.569  -1.233  0.00  0.00    +0.033 C 
ATOM     11  C   UNL     1       3.301   7.194  -1.904  0.00  0.00    +0.029 C 
ATOM     12  C   UNL     1       4.297   6.186  -1.324  0.00  0.00    +0.107 C 
ATOM     13  N   UNL     1       3.859   4.831  -1.672  0.00  0.00    -0.336 N 
ATOM     14  H   UNL     1       4.569   4.121  -2.122  0.00  0.00    +0.147 HD
ENDROOT
BRANCH  12  15
ATOM     15  C   UNL     1       4.346   6.331   0.175  0.00  0.00    +0.003 A 
ATOM     16  C   UNL     1       3.412   5.684   0.963  0.00  0.00    +0.008 A 
ATOM     17  C   UNL     1       3.457   5.816   2.338  0.00  0.00    +0.000 A 
ATOM     18  C   UNL     1       4.437   6.595   2.926  0.00  0.00    +0.002 A 
ATOM     19  C   UNL     1       5.371   7.241   2.139  0.00  0.00    +0.033 A 
ATOM     20  C   UNL     1       5.329   7.105   0.763  0.00  0.00    +0.131 A 
BRANCH  20  21
ATOM     21  N   UNL     1       6.332   7.793  -0.080  0.00  0.00    +0.057 N 
ATOM     22  O   UNL     1       7.216   8.450   0.440  0.00  0.00    -0.126 OA
ATOM     23  O   UNL     1       6.274   7.702  -1.293  0.00  0.00    -0.126 OA
ENDBRANCH  20  21
ENDBRANCH  12  15
BRANCH   1  25
ATOM     24  N   UNL     1      -1.940   2.160  -1.047  0.00  0.00    -0.268 N 
ATOM     25  C   UNL     1      -1.477   3.354  -0.628  0.00  0.00    +0.251 C 
ATOM     26  O   UNL     1      -2.211   4.113  -0.025  0.00  0.00    -0.270 OA
BRANCH  24  27
ATOM     27  C   UNL     1      -3.234   1.753  -0.707  0.00  0.00    +0.037 A 
ATOM     28  C   UNL     1      -3.771   0.599  -1.264  0.00  0.00    +0.023 A 
ATOM     29  C   UNL     1      -5.047   0.198  -0.922  0.00  0.00    +0.002 A 
ATOM     30  C   UNL     1      -5.795   0.948  -0.033  0.00  0.00    +0.000 A 
ATOM     31  C   UNL     1      -5.266   2.100   0.520  0.00  0.00    +0.002 A 
ATOM     32  C   UNL     1      -3.988   2.505   0.186  0.00  0.00    +0.023 A 
ENDBRANCH  24  27
BRANCH  24  34
ATOM     33  C   UNL     1      -0.611   0.107  -1.013  0.00  0.00    +0.025 C 
ATOM     34  C   UNL     1      -1.089   1.288  -1.860  0.00  0.00    +0.110 C 
ENDBRANCH  24  34
ENDBRANCH   1  25
TORSDOF 5
