REMARK  Name = ZINC40287111
REMARK  9 active torsions:
REMARK  status: ('A' for Active; 'I' for Inactive)
REMARK    1  A    between atoms: C_1  and  O_2
REMARK    2  A    between atoms: O_2  and  C_3
REMARK    3  A    between atoms: C_3  and  C_5
REMARK    4  A    between atoms: C_5  and  C_6
REMARK    5  A    between atoms: C_6  and  C_7
REMARK    6  A    between atoms: C_7  and  C_8
REMARK    7  A    between atoms: C_8  and  C_9
REMARK    8  A    between atoms: C_9  and  N_10
REMARK    9  A    between atoms: C_22  and  C_24
REMARK                            x       y       z     vdW  Elec       q    Type
REMARK                         _______ _______ _______ _____ _____    ______ ____
ROOT
ATOM      1  N   UNL     1       2.585  -8.774  -4.481  0.00  0.00    -0.299 N 
ATOM      2  C   UNL     1       3.055  -7.786  -5.267  0.00  0.00    +0.303 C 
ATOM      3  O   UNL     1       2.803  -6.626  -5.001  0.00  0.00    -0.253 OA
ATOM      4  N   UNL     1       3.804  -8.082  -6.347  0.00  0.00    -0.273 N 
ATOM      5  C   UNL     1       4.419  -7.016  -7.153  0.00  0.00    +0.116 C 
ATOM      6  C   UNL     1       3.812  -7.040  -8.562  0.00  0.00    +0.074 C 
ATOM      7  C   UNL     1       3.758  -8.466  -9.043  0.00  0.00    +0.040 A 
ATOM      8  C   UNL     1       3.848  -9.553  -8.248  0.00  0.00    +0.062 A 
ATOM      9  N   UNL     1       3.756 -10.640  -9.017  0.00  0.00    -0.348 N 
ATOM     10  C   UNL     1       3.615 -10.271 -10.264  0.00  0.00    +0.171 A 
ATOM     11  N   UNL     1       3.613  -8.919 -10.320  0.00  0.00    -0.349 N 
ATOM     12  H   UNL     1       3.525  -8.375 -11.118  0.00  0.00    +0.166 HD
ATOM     13  C   UNL     1       4.032  -9.483  -6.746  0.00  0.00    +0.159 C 
ATOM     14  H   UNL     1       2.724  -9.701  -4.732  0.00  0.00    +0.150 HD
ATOM     15  H   UNL     1       3.788 -11.556  -8.702  0.00  0.00    +0.167 HD
ENDROOT
BRANCH  13  16
ATOM     16  C   UNL     1       5.432  -9.900  -6.377  0.00  0.00    +0.014 A 
ATOM     17  C   UNL     1       6.408  -9.982  -7.353  0.00  0.00    +0.010 A 
ATOM     18  C   UNL     1       7.693 -10.364  -7.015  0.00  0.00    +0.020 A 
ATOM     19  C   UNL     1       8.003 -10.665  -5.700  0.00  0.00    +0.044 A 
ATOM     20  C   UNL     1       7.028 -10.583  -4.723  0.00  0.00    +0.058 A 
ATOM     21  C   UNL     1       5.742 -10.195  -5.061  0.00  0.00    +0.130 A 
ATOM     22  F   UNL     1       4.790 -10.110  -4.107  0.00  0.00    -0.205 F 
ATOM     23 CL   UNL     1       9.617 -11.145  -5.278  0.00  0.00    -0.083 Cl
ENDBRANCH  13  16
BRANCH   1  24
ATOM     24  C   UNL     1       1.865  -8.450  -3.247  0.00  0.00    +0.106 C 
BRANCH  24  25
ATOM     25  C   UNL     1       1.443  -9.743  -2.547  0.00  0.00    +0.019 C 
BRANCH  25  26
ATOM     26  C   UNL     1       0.691  -9.404  -1.258  0.00  0.00    +0.002 C 
BRANCH  26  27
ATOM     27  C   UNL     1       0.269 -10.697  -0.559  0.00  0.00    +0.011 C 
BRANCH  27  28
ATOM     28  C   UNL     1      -0.483 -10.358   0.730  0.00  0.00    +0.120 C 
BRANCH  28  29
ATOM     29  C   UNL     1      -0.899 -11.632   1.419  0.00  0.00    +0.307 C 
ATOM     30  O   UNL     1      -0.622 -12.702   0.930  0.00  0.00    -0.251 OA
BRANCH  29  32
ATOM     31  C   UNL     1      -1.939 -12.825   3.174  0.00  0.00    +0.280 C 
ATOM     32  O   UNL     1      -1.577 -11.579   2.576  0.00  0.00    -0.468 OA
ENDBRANCH  29  32
ENDBRANCH  28  29
ENDBRANCH  27  28
ENDBRANCH  26  27
ENDBRANCH  25  26
ENDBRANCH  24  25
ENDBRANCH   1  24
TORSDOF 8
