REMARK  Name = ZINC54652714
REMARK  5 active torsions:
REMARK  status: ('A' for Active; 'I' for Inactive)
REMARK    1  A    between atoms: C_1  and  O_2
REMARK    2  A    between atoms: O_2  and  C_3
REMARK    3  A    between atoms: C_6  and  N_9
REMARK    4  A    between atoms: C_27  and  C_37
REMARK    5  A    between atoms: C_40  and  O_43
REMARK                            x       y       z     vdW  Elec       q    Type
REMARK                         _______ _______ _______ _____ _____    ______ ____
ROOT
ATOM      1  N   UNL     1      -4.247  -3.309  -0.287  0.00  0.00    -0.210 N 
ATOM      2  C   UNL     1      -4.477  -4.635  -0.026  0.00  0.00    +0.230 C 
ATOM      3  O   UNL     1      -3.737  -5.411   0.539  0.00  0.00    -0.274 OA
ATOM      4  C   UNL     1      -5.844  -4.927  -0.592  0.00  0.00    +0.091 C 
ATOM      5  C   UNL     1      -6.821  -5.839   0.158  0.00  0.00    +0.007 C 
ATOM      6  C   UNL     1      -8.143  -5.172  -0.470  0.00  0.00    +0.010 C 
ATOM      7  C   UNL     1      -7.887  -3.720   0.116  0.00  0.00    +0.016 C 
ATOM      8  C   UNL     1      -6.429  -3.519  -0.193  0.00  0.00    +0.092 C 
ATOM      9  C   UNL     1      -5.400  -2.617  -0.616  0.00  0.00    +0.230 C 
ATOM     10  O   UNL     1      -5.511  -1.526  -1.133  0.00  0.00    -0.274 OA
ATOM     11  C   UNL     1      -7.748  -4.065   1.628  0.00  0.00    +0.061 C 
ATOM     12  C   UNL     1      -7.126  -5.495   1.578  0.00  0.00    +0.019 C 
ATOM     13  C   UNL     1      -6.452  -5.918   2.827  0.00  0.00    +0.063 C 
ATOM     14  C   UNL     1      -7.467  -5.821   3.942  0.00  0.00    +0.032 A 
ATOM     15  C   UNL     1      -8.665  -5.197   3.972  0.00  0.00    +0.087 A 
ATOM     16  N   UNL     1      -9.364  -5.343   5.145  0.00  0.00    -0.311 N 
ATOM     17  H   UNL     1     -10.245  -4.947   5.237  0.00  0.00    +0.170 HD
ATOM     18  C   UNL     1      -8.829  -6.038   6.166  0.00  0.00    +0.289 A 
ATOM     19  O   UNL     1      -9.307  -6.254   7.266  0.00  0.00    -0.260 OA
ATOM     20  S   UNL     1      -7.341  -6.536   5.560  0.00  0.00    -0.030 S 
ATOM     21  S   UNL     1      -9.287  -4.195   2.558  0.00  0.00    -0.103 S 
ENDROOT
BRANCH   1  25
ATOM     22  C   UNL     1      -0.474  -1.540  -0.087  0.00  0.00    +0.120 A 
ATOM     23  C   UNL     1      -1.581  -0.776  -0.427  0.00  0.00    +0.047 A 
ATOM     24  C   UNL     1      -2.830  -1.361  -0.493  0.00  0.00    +0.027 A 
ATOM     25  C   UNL     1      -2.978  -2.714  -0.220  0.00  0.00    +0.044 A 
ATOM     26  C   UNL     1      -1.870  -3.478   0.120  0.00  0.00    +0.027 A 
ATOM     27  C   UNL     1      -0.621  -2.894   0.181  0.00  0.00    +0.047 A 
BRANCH  22  29
ATOM     28  C   UNL     1       0.833   0.433  -0.310  0.00  0.00    +0.277 C 
ATOM     29  O   UNL     1       0.756  -0.964  -0.022  0.00  0.00    -0.495 OA
ENDBRANCH  22  29
ENDBRANCH   1  25
BRANCH  13  30
ATOM     30  C   UNL     1      -5.285  -5.009   3.113  0.00  0.00    -0.039 A 
ATOM     31  C   UNL     1      -5.508  -3.706   3.517  0.00  0.00    +0.008 A 
ATOM     32  C   UNL     1      -4.440  -2.871   3.780  0.00  0.00    +0.045 A 
ATOM     33  C   UNL     1      -3.142  -3.341   3.638  0.00  0.00    +0.117 A 
ATOM     34  C   UNL     1      -2.921  -4.649   3.233  0.00  0.00    +0.045 A 
ATOM     35  C   UNL     1      -3.993  -5.482   2.977  0.00  0.00    +0.008 A 
BRANCH  33  36
ATOM     36  O   UNL     1      -2.090  -2.521   3.896  0.00  0.00    -0.507 OA
ATOM     37  H   UNL     1      -1.787  -2.545   4.814  0.00  0.00    +0.292 HD
ENDBRANCH  33  36
ENDBRANCH  13  30
TORSDOF 4
