REMARK  Name = ZINC35032905
REMARK  12 active torsions:
REMARK  status: ('A' for Active; 'I' for Inactive)
REMARK    1  A    between atoms: C_1  and  C_2
REMARK    2  A    between atoms: C_2  and  N_3
REMARK    3  A    between atoms: C_13  and  C_14
REMARK    4  A    between atoms: C_14  and  C_16
REMARK    5  A    between atoms: C_14  and  N_17
REMARK    6  A    between atoms: N_17  and  C_18
REMARK    7  A    between atoms: N_17  and  S_23
REMARK    8  A    between atoms: C_18  and  C_19
REMARK    9  A    between atoms: C_19  and  N_20
REMARK   10  A    between atoms: N_20  and  C_21
REMARK   11  A    between atoms: N_20  and  C_22
REMARK   12  A    between atoms: S_23  and  C_26
REMARK                            x       y       z     vdW  Elec       q    Type
REMARK                         _______ _______ _______ _____ _____    ______ ____
ROOT
ATOM      1  N   UNL     1       3.961  -0.694   0.201  0.00  0.00    -0.168 NA
ENDROOT
BRANCH   1   2
ATOM      2  S   UNL     1       4.965  -1.802   0.915  0.00  0.00    +0.061 S 
ATOM      3  O   UNL     1       6.226  -1.165   1.070  0.00  0.00    -0.153 OA
ATOM      4  O   UNL     1       4.249  -2.352   2.011  0.00  0.00    -0.153 OA
BRANCH   2   5
ATOM      5  C   UNL     1       5.201  -3.111  -0.241  0.00  0.00    +0.106 A 
ATOM      6  C   UNL     1       4.340  -4.192  -0.245  0.00  0.00    +0.029 A 
ATOM      7  C   UNL     1       4.524  -5.219  -1.151  0.00  0.00    +0.017 A 
ATOM      8  C   UNL     1       5.571  -5.165  -2.054  0.00  0.00    +0.018 A 
ATOM      9  C   UNL     1       6.433  -4.083  -2.049  0.00  0.00    +0.017 A 
ATOM     10  C   UNL     1       6.244  -3.054  -1.146  0.00  0.00    +0.029 A 
ATOM     11 BR   UNL     1       5.824  -6.571  -3.294  0.00  0.00    -0.050 Br
ENDBRANCH   2   5
ENDBRANCH   1   2
BRANCH   1  12
ATOM     12  C   UNL     1       2.510  -0.809   0.365  0.00  0.00    +0.143 C 
ATOM     13  C   UNL     1       1.953   0.508   0.909  0.00  0.00    +0.034 C 
BRANCH  12  24
ATOM     14  N   UNL     1       1.254  -2.308  -1.130  0.00  0.00    -0.295 N 
ATOM     15  C   UNL     1       0.664  -2.624  -2.306  0.00  0.00    +0.262 A 
ATOM     16  O   UNL     1       0.099  -3.691  -2.463  0.00  0.00    -0.267 OA
ATOM     17  C   UNL     1       0.733  -1.629  -3.387  0.00  0.00    +0.065 A 
ATOM     18  C   UNL     1       0.158  -1.857  -4.636  0.00  0.00    +0.015 A 
ATOM     19  C   UNL     1       0.251  -0.889  -5.612  0.00  0.00    +0.001 A 
ATOM     20  C   UNL     1       0.913   0.306  -5.362  0.00  0.00    +0.002 A 
ATOM     21  C   UNL     1       1.488   0.550  -4.135  0.00  0.00    +0.028 A 
ATOM     22  C   UNL     1       1.406  -0.415  -3.128  0.00  0.00    +0.078 A 
ATOM     23  N   UNL     1       1.958  -0.216  -1.905  0.00  0.00    -0.232 NA
ATOM     24  C   UNL     1       1.876  -1.111  -0.968  0.00  0.00    +0.132 A 
BRANCH  14  26
ATOM     25  C   UNL     1       0.036  -2.932   0.897  0.00  0.00    +0.027 C 
ATOM     26  C   UNL     1       1.216  -3.262  -0.019  0.00  0.00    +0.123 C 
ENDBRANCH  14  26
ENDBRANCH  12  24
ENDBRANCH   1  12
BRANCH   1  27
ATOM     27  C   UNL     1       4.525   0.400  -0.593  0.00  0.00    +0.092 C 
BRANCH  27  28
ATOM     28  C   UNL     1       4.714   1.631   0.295  0.00  0.00    -0.062 C 
BRANCH  28  29
ATOM     29  N   UNL     1       5.309   2.718  -0.494  0.00  0.00    +0.377 N 
ATOM     30  C   UNL     1       4.366   3.135  -1.541  0.00  0.00    -0.097 C 
ATOM     31  C   UNL     1       5.600   3.858   0.385  0.00  0.00    -0.097 C 
ATOM     32  H   UNL     1       6.164   2.394  -0.920  0.00  0.00    -0.083 HD
ENDBRANCH  28  29
ENDBRANCH  27  28
ENDBRANCH   1  27
TORSDOF 8
