REMARK  Name = ZINC10462245
REMARK  14 active torsions:
REMARK  status: ('A' for Active; 'I' for Inactive)
REMARK    1  A    between atoms: C_1  and  C_2
REMARK    2  A    between atoms: C_2  and  C_3
REMARK    3  A    between atoms: C_3  and  C_4
REMARK    4  A    between atoms: C_4  and  N_5
REMARK    5  A    between atoms: C_7  and  C_12
REMARK    6  A    between atoms: N_14  and  C_15
REMARK    7  A    between atoms: C_18  and  C_21
REMARK    8  A    between atoms: N_23  and  C_24
REMARK    9  A    between atoms: C_27  and  S_30
REMARK   10  A    between atoms: S_30  and  N_33
REMARK   11  A    between atoms: N_33  and  C_34
REMARK   12  A    between atoms: C_34  and  C_36
REMARK   13  A    between atoms: C_34  and  C_37
REMARK   14  A    between atoms: C_37  and  C_38
REMARK                            x       y       z     vdW  Elec       q    Type
REMARK                         _______ _______ _______ _____ _____    ______ ____
ROOT
ATOM      1  C   UNL     1      -0.983   0.447   0.043  0.00  0.00    +0.033 A 
ATOM      2  C   UNL     1      -0.742   1.814   0.136  0.00  0.00    +0.024 A 
ATOM      3  C   UNL     1       0.550   2.289   0.124  0.00  0.00    +0.015 A 
ATOM      4  C   UNL     1       1.621   1.397   0.019  0.00  0.00    +0.037 A 
ATOM      5  C   UNL     1       1.375   0.024  -0.073  0.00  0.00    +0.015 A 
ATOM      6  C   UNL     1       0.081  -0.445  -0.061  0.00  0.00    +0.024 A 
ENDROOT
BRANCH   1   9
ATOM      7  C   UNL     1      -2.623  -1.110  -0.681  0.00  0.00    +0.222 C 
ATOM      8  O   UNL     1      -1.807  -1.608  -1.428  0.00  0.00    -0.275 OA
ATOM      9  N   UNL     1      -2.292  -0.031   0.056  0.00  0.00    -0.285 N 
ATOM     10  H   UNL     1      -2.966   0.413   0.594  0.00  0.00    +0.155 HD
BRANCH   7  13
ATOM     11  N   UNL     1      -4.989  -3.887  -0.600  0.00  0.00    -0.301 N 
ATOM     12  C   UNL     1      -4.111  -3.011  -1.385  0.00  0.00    +0.121 C 
ATOM     13  C   UNL     1      -4.006  -1.700  -0.576  0.00  0.00    +0.101 C 
ATOM     14  C   UNL     1      -4.290  -2.193   0.862  0.00  0.00    +0.110 C 
ATOM     15  C   UNL     1      -5.102  -3.454   0.668  0.00  0.00    +0.216 C 
ATOM     16  O   UNL     1      -5.760  -3.996   1.530  0.00  0.00    -0.276 OA
BRANCH  11  17
ATOM     17  C   UNL     1      -5.655  -5.079  -1.129  0.00  0.00    +0.108 C 
BRANCH  17  18
ATOM     18  C   UNL     1      -7.025  -4.691  -1.690  0.00  0.00    +0.019 C 
BRANCH  18  20
ATOM     19  C   UNL     1      -9.091  -5.548  -2.804  0.00  0.00    +0.004 C 
ATOM     20  C   UNL     1      -7.721  -5.936  -2.243  0.00  0.00    -0.002 C 
ENDBRANCH  18  20
ENDBRANCH  17  18
ENDBRANCH  11  17
ENDBRANCH   7  13
ENDBRANCH   1   9
BRANCH   4  21
ATOM     21  C   UNL     1       3.007   1.903   0.005  0.00  0.00    +0.248 C 
ATOM     22  O   UNL     1       3.937   1.125  -0.086  0.00  0.00    -0.270 OA
ATOM     23  N   UNL     1       3.242   3.227   0.094  0.00  0.00    -0.282 N 
ATOM     24  H   UNL     1       2.506   3.841   0.244  0.00  0.00    +0.155 HD
BRANCH  23  25
ATOM     25  C   UNL     1       4.546   3.715  -0.031  0.00  0.00    +0.034 A 
ATOM     26  C   UNL     1       4.949   4.822   0.707  0.00  0.00    +0.025 A 
ATOM     27  C   UNL     1       6.239   5.298   0.585  0.00  0.00    +0.030 A 
ATOM     28  C   UNL     1       7.127   4.682  -0.277  0.00  0.00    +0.105 A 
ATOM     29  C   UNL     1       6.728   3.583  -1.017  0.00  0.00    +0.030 A 
ATOM     30  C   UNL     1       5.441   3.099  -0.896  0.00  0.00    +0.025 A 
BRANCH  28  31
ATOM     31  S   UNL     1       8.771   5.297  -0.434  0.00  0.00    +0.059 S 
ATOM     32  O   UNL     1       9.059   5.996   0.768  0.00  0.00    -0.153 OA
ATOM     33  O   UNL     1       9.567   4.215  -0.896  0.00  0.00    -0.153 OA
BRANCH  31  34
ATOM     34  N   UNL     1       8.757   6.426  -1.646  0.00  0.00    -0.187 NA
ATOM     35  H   UNL     1       9.256   6.267  -2.463  0.00  0.00    +0.148 HD
BRANCH  34  36
ATOM     36  C   UNL     1       7.992   7.665  -1.485  0.00  0.00    +0.073 C 
ATOM     37  C   UNL     1       6.611   7.497  -2.122  0.00  0.00    +0.025 C 
BRANCH  36  38
ATOM     38  C   UNL     1       8.733   8.815  -2.169  0.00  0.00    +0.017 C 
ATOM     39  C   UNL     1      10.062   9.063  -1.451  0.00  0.00    +0.005 C 
ENDBRANCH  36  38
ENDBRANCH  34  36
ENDBRANCH  31  34
ENDBRANCH  28  31
ENDBRANCH  23  25
ENDBRANCH   4  21
TORSDOF 11
