REMARK  Name = ZINC13593252
REMARK  10 active torsions:
REMARK  status: ('A' for Active; 'I' for Inactive)
REMARK    1  A    between atoms: C_1  and  C_2
REMARK    2  A    between atoms: C_2  and  O_3
REMARK    3  A    between atoms: O_3  and  C_4
REMARK    4  A    between atoms: C_4  and  C_6
REMARK    5  A    between atoms: C_6  and  C_7
REMARK    6  A    between atoms: C_7  and  C_8
REMARK    7  A    between atoms: C_9  and  C_36
REMARK    8  A    between atoms: N_20  and  C_23
REMARK    9  A    between atoms: N_26  and  C_29
REMARK   10  A    between atoms: C_29  and  C_30
REMARK                            x       y       z     vdW  Elec       q    Type
REMARK                         _______ _______ _______ _____ _____    ______ ____
ROOT
ATOM      1  C   UNL     1       2.212  -4.481   3.619  0.00  0.00    +0.041 A 
ATOM      2  C   UNL     1       1.508  -4.857   4.718  0.00  0.00    -0.030 A 
ATOM      3  C   UNL     1       2.245  -5.410   5.856  0.00  0.00    +0.021 A 
ATOM      4  C   UNL     1       1.580  -5.818   7.018  0.00  0.00    +0.015 A 
ATOM      5  C   UNL     1       2.292  -6.329   8.062  0.00  0.00    +0.047 A 
ATOM      6  C   UNL     1       3.681  -6.451   7.983  0.00  0.00    +0.130 A 
ATOM      7  C   UNL     1       4.354  -6.054   6.841  0.00  0.00    +0.051 A 
ATOM      8  C   UNL     1       3.644  -5.529   5.769  0.00  0.00    +0.147 A 
ATOM      9  O   UNL     1       4.284  -5.135   4.647  0.00  0.00    -0.422 OA
ATOM     10  C   UNL     1       3.613  -4.634   3.598  0.00  0.00    +0.341 A 
ATOM     11  O   UNL     1       4.232  -4.300   2.603  0.00  0.00    -0.245 OA
ATOM     12  C   UNL     1       5.852  -6.187   6.740  0.00  0.00    +0.130 C 
ATOM     13  N   UNL     1       6.423  -6.362   8.083  0.00  0.00    -0.263 NA
ATOM     14  C   UNL     1       5.694  -7.414   8.811  0.00  0.00    +0.319 C 
ATOM     15  O   UNL     1       4.358  -6.963   9.044  0.00  0.00    -0.476 OA
ATOM     16  C   UNL     1       0.009  -4.709   4.766  0.00  0.00    +0.045 C 
ENDROOT
BRANCH  13  17
ATOM     17  C   UNL     1       7.857  -6.671   8.009  0.00  0.00    +0.057 C 
ATOM     18  C   UNL     1       8.054  -8.032   7.335  0.00  0.00    +0.000 C 
ATOM     19  C   UNL     1       9.543  -8.384   7.333  0.00  0.00    -0.077 C 
ATOM     20  N   UNL     1      10.038  -8.444   8.713  0.00  0.00    +0.382 N 
ATOM     21  C   UNL     1       9.918  -7.123   9.343  0.00  0.00    -0.077 C 
ATOM     22  C   UNL     1       8.444  -6.723   9.423  0.00  0.00    +0.000 C 
ATOM     23  H   UNL     1       9.494  -9.115   9.236  0.00  0.00    -0.081 HD
BRANCH  20  24
ATOM     24  C   UNL     1      11.447  -8.858   8.710  0.00  0.00    -0.043 C 
BRANCH  24  25
ATOM     25  C   UNL     1      11.921  -9.039  10.129  0.00  0.00    -0.064 A 
ATOM     26  C   UNL     1      12.471  -7.972  10.815  0.00  0.00    +0.002 A 
ATOM     27  C   UNL     1      12.906  -8.138  12.117  0.00  0.00    +0.000 A 
ATOM     28  C   UNL     1      12.791  -9.371  12.732  0.00  0.00    +0.000 A 
ATOM     29  C   UNL     1      12.241 -10.437  12.046  0.00  0.00    +0.000 A 
ATOM     30  C   UNL     1      11.802 -10.270  10.746  0.00  0.00    +0.002 A 
ENDBRANCH  24  25
ENDBRANCH  20  24
ENDBRANCH  13  17
BRANCH   1  31
ATOM     31  C   UNL     1       1.496  -3.909   2.423  0.00  0.00    +0.054 C 
BRANCH  31  32
ATOM     32  C   UNL     1       1.516  -2.381   2.500  0.00  0.00    +0.125 C 
BRANCH  32  33
ATOM     33  C   UNL     1       0.801  -1.808   1.304  0.00  0.00    +0.307 C 
ATOM     34  O   UNL     1       0.324  -2.546   0.475  0.00  0.00    -0.251 OA
BRANCH  33  35
ATOM     35  O   UNL     1       0.693  -0.477   1.160  0.00  0.00    -0.465 OA
BRANCH  35  37
ATOM     36  C   UNL     1      -0.019   1.526   0.010  0.00  0.00    +0.048 C 
ATOM     37  C   UNL     1       0.002  -0.004   0.002  0.00  0.00    +0.229 C 
ENDBRANCH  35  37
ENDBRANCH  33  35
ENDBRANCH  32  33
ENDBRANCH  31  32
ENDBRANCH   1  31
TORSDOF 8
