REMARK  Name = ZINC41659206
REMARK  6 active torsions:
REMARK  status: ('A' for Active; 'I' for Inactive)
REMARK    1  A    between atoms: C_1  and  C_2
REMARK    2  A    between atoms: C_2  and  C_3
REMARK    3  A    between atoms: C_2  and  C_4
REMARK    4  A    between atoms: C_2  and  C_5
REMARK    5  A    between atoms: C_8  and  C_11
REMARK    6  A    between atoms: N_23  and  C_26
REMARK                            x       y       z     vdW  Elec       q    Type
REMARK                         _______ _______ _______ _____ _____    ______ ____
ROOT
ATOM      1  C   UNL     1       2.692  -1.858  -4.726  0.00  0.00    +0.058 C 
ATOM      2  C   UNL     1       3.951  -1.435  -5.000  0.00  0.00    +0.176 C 
ATOM      3  C   UNL     1       4.723  -1.732  -6.218  0.00  0.00    +0.231 C 
ATOM      4  O   UNL     1       4.377  -2.399  -7.177  0.00  0.00    -0.283 OA
ATOM      5  C   UNL     1       6.010  -1.042  -6.016  0.00  0.00    +0.068 A 
ATOM      6  C   UNL     1       7.166  -0.930  -6.790  0.00  0.00    +0.019 A 
ATOM      7  C   UNL     1       8.226  -0.205  -6.327  0.00  0.00    +0.047 A 
ATOM      8  C   UNL     1       8.160   0.427  -5.085  0.00  0.00    +0.130 A 
ATOM      9  C   UNL     1       7.018   0.325  -4.309  0.00  0.00    +0.051 A 
ATOM     10  C   UNL     1       5.930  -0.411  -4.764  0.00  0.00    +0.147 A 
ATOM     11  O   UNL     1       4.724  -0.656  -4.207  0.00  0.00    -0.451 OA
ATOM     12  C   UNL     1       6.931   1.009  -2.968  0.00  0.00    +0.130 C 
ATOM     13  N   UNL     1       8.281   1.365  -2.508  0.00  0.00    -0.263 NA
ATOM     14  C   UNL     1       9.015   2.058  -3.579  0.00  0.00    +0.319 C 
ATOM     15  O   UNL     1       9.233   1.139  -4.651  0.00  0.00    -0.476 OA
ENDROOT
BRANCH   1  19
ATOM     16  C   UNL     1       0.702  -0.478  -1.246  0.00  0.00    -0.042 A 
ATOM     17  C   UNL     1       2.029  -0.146  -1.457  0.00  0.00    +0.005 A 
ATOM     18  C   UNL     1       2.683  -0.591  -2.586  0.00  0.00    +0.008 A 
ATOM     19  C   UNL     1       2.002  -1.380  -3.520  0.00  0.00    -0.021 A 
ATOM     20  C   UNL     1       0.661  -1.711  -3.299  0.00  0.00    +0.008 A 
ATOM     21  C   UNL     1       0.023  -1.263  -2.162  0.00  0.00    +0.005 A 
BRANCH  16  23
ATOM     22  C   UNL     1      -0.487  -1.186   0.812  0.00  0.00    +0.015 C 
ATOM     23  C   UNL     1      -0.005   0.012  -0.009  0.00  0.00    -0.013 C 
ATOM     24  C   UNL     1      -1.207   0.869  -0.414  0.00  0.00    +0.015 C 
ATOM     25  C   UNL     1       0.959   0.852   0.831  0.00  0.00    +0.015 C 
ENDBRANCH  16  23
ENDBRANCH   1  19
BRANCH  13  26
ATOM     26  C   UNL     1       8.223   2.187  -1.292  0.00  0.00    +0.060 C 
ATOM     27  C   UNL     1       7.619   3.569  -1.617  0.00  0.00    +0.019 C 
ATOM     28  C   UNL     1       8.419   4.552  -0.727  0.00  0.00    +0.002 C 
ATOM     29  C   UNL     1       9.854   3.970  -0.780  0.00  0.00    +0.002 C 
ATOM     30  C   UNL     1       9.644   2.442  -0.760  0.00  0.00    +0.019 C 
ENDBRANCH  13  26
TORSDOF 3
