REMARK  Name = ZINC21040949
REMARK  10 active torsions:
REMARK  status: ('A' for Active; 'I' for Inactive)
REMARK    1  A    between atoms: C_1  and  C_2
REMARK    2  A    between atoms: C_2  and  N_3
REMARK    3  A    between atoms: C_6  and  C_23
REMARK    4  A    between atoms: C_7  and  C_10
REMARK    5  A    between atoms: C_10  and  C_11
REMARK    6  A    between atoms: C_11  and  C_12
REMARK    7  A    between atoms: N_14  and  C_15
REMARK    8  A    between atoms: C_24  and  C_34
REMARK    9  A    between atoms: N_26  and  C_27
REMARK   10  A    between atoms: C_30  and  C_33
REMARK                            x       y       z     vdW  Elec       q    Type
REMARK                         _______ _______ _______ _____ _____    ______ ____
ROOT
ATOM      1  N   UNL     1      -1.621  -0.999   2.344  0.00  0.00    -0.293 N 
ATOM      2  C   UNL     1      -0.651  -0.972   1.379  0.00  0.00    +0.147 A 
ATOM      3  C   UNL     1      -0.462   0.181   0.613  0.00  0.00    +0.044 A 
ATOM      4  C   UNL     1      -1.274   1.314   0.847  0.00  0.00    -0.030 A 
ATOM      5  C   UNL     1      -2.231   1.254   1.810  0.00  0.00    +0.021 A 
ATOM      6  C   UNL     1      -2.398   0.079   2.564  0.00  0.00    +0.256 A 
ATOM      7  O   UNL     1      -3.256   0.035   3.430  0.00  0.00    -0.267 OA
ATOM      8  C   UNL     1      -1.087   2.568   0.033  0.00  0.00    +0.045 C 
ATOM      9  C   UNL     1       0.595  -0.087  -0.288  0.00  0.00    +0.070 A 
ATOM     10  N   UNL     1       1.010  -1.306  -0.082  0.00  0.00    -0.169 NA
ATOM     11  N   UNL     1       0.258  -1.885   0.947  0.00  0.00    -0.215 N 
ATOM     12  C   UNL     1       1.147   0.871  -1.312  0.00  0.00    +0.068 C 
ENDROOT
BRANCH  11  13
ATOM     13  C   UNL     1       0.416  -3.185   1.447  0.00  0.00    +0.068 A 
ATOM     14  C   UNL     1       1.553  -3.518   2.171  0.00  0.00    +0.028 A 
ATOM     15  C   UNL     1       1.704  -4.798   2.666  0.00  0.00    +0.005 A 
ATOM     16  C   UNL     1       0.728  -5.751   2.433  0.00  0.00    -0.050 A 
ATOM     17  C   UNL     1      -0.403  -5.423   1.708  0.00  0.00    +0.005 A 
ATOM     18  C   UNL     1      -0.562  -4.143   1.215  0.00  0.00    +0.028 A 
ATOM     19  C   UNL     1       0.899  -7.149   2.970  0.00  0.00    +0.044 C 
ENDBRANCH  11  13
BRANCH   1  21
ATOM     20  C   UNL     1      -0.910  -2.158   4.377  0.00  0.00    +0.027 C 
ATOM     21  C   UNL     1      -1.815  -2.210   3.144  0.00  0.00    +0.123 C 
ENDBRANCH   1  21
BRANCH   5  22
ATOM     22  C   UNL     1      -3.111   2.449   2.073  0.00  0.00    +0.050 C 
BRANCH  22  23
ATOM     23  C   UNL     1      -2.541   3.255   3.241  0.00  0.00    +0.101 C 
BRANCH  23  24
ATOM     24  C   UNL     1      -3.420   4.450   3.504  0.00  0.00    +0.218 C 
ATOM     25  O   UNL     1      -4.407   4.638   2.824  0.00  0.00    -0.275 OA
ATOM     26  N   UNL     1      -3.111   5.310   4.495  0.00  0.00    -0.284 N 
ATOM     27  H   UNL     1      -2.167   5.195   5.048  0.00  0.00    +0.155 HD
BRANCH  26  28
ATOM     28  C   UNL     1      -3.992   6.349   4.821  0.00  0.00    +0.052 A 
ATOM     29  C   UNL     1      -5.324   6.277   4.438  0.00  0.00    +0.027 A 
ATOM     30  C   UNL     1      -6.192   7.302   4.760  0.00  0.00    +0.040 A 
ATOM     31  C   UNL     1      -5.734   8.402   5.466  0.00  0.00    +0.125 A 
ATOM     32  C   UNL     1      -4.406   8.477   5.850  0.00  0.00    +0.060 A 
ATOM     33  C   UNL     1      -3.536   7.450   5.535  0.00  0.00    +0.065 A 
ATOM     34 CL   UNL     1      -1.872   7.540   6.023  0.00  0.00    -0.082 Cl
ATOM     35  F   UNL     1      -6.584   9.404   5.780  0.00  0.00    -0.205 F 
ENDBRANCH  26  28
ENDBRANCH  23  24
ENDBRANCH  22  23
ENDBRANCH   5  22
TORSDOF 6
