REMARK  Name = ZINC55389255
REMARK  6 active torsions:
REMARK  status: ('A' for Active; 'I' for Inactive)
REMARK    1  A    between atoms: C_1  and  C_2
REMARK    2  A    between atoms: C_2  and  N_3
REMARK    3  A    between atoms: N_3  and  C_4
REMARK    4  A    between atoms: N_3  and  C_11
REMARK    5  A    between atoms: C_9  and  C_10
REMARK    6  A    between atoms: C_16  and  N_17
REMARK                            x       y       z     vdW  Elec       q    Type
REMARK                         _______ _______ _______ _____ _____    ______ ____
ROOT
ATOM      1  C   UNL     1      -0.130  -1.215  -2.287  0.00  0.00    +0.057 A 
ATOM      2  C   UNL     1      -0.290  -0.528  -3.483  0.00  0.00    +0.074 A 
ATOM      3  C   UNL     1      -1.035  -1.088  -4.509  0.00  0.00    +0.164 A 
ATOM      4  C   UNL     1      -1.619  -2.338  -4.339  0.00  0.00    +0.164 A 
ATOM      5  C   UNL     1      -1.458  -3.020  -3.143  0.00  0.00    +0.072 A 
ATOM      6  C   UNL     1      -0.712  -2.464  -2.121  0.00  0.00    +0.034 A 
ATOM      7  O   UNL     1      -2.348  -2.908  -5.339  0.00  0.00    -0.485 OA
ATOM      8  C   UNL     1      -2.798  -2.038  -6.383  0.00  0.00    +0.270 C 
ATOM      9  C   UNL     1      -1.621  -1.153  -6.813  0.00  0.00    +0.270 C 
ATOM     10  O   UNL     1      -1.186  -0.401  -5.674  0.00  0.00    -0.485 OA
ENDROOT
BRANCH   6  11
ATOM     11  N   UNL     1      -0.547  -3.158  -0.918  0.00  0.00    -0.415 NA
ATOM     12  H   UNL     1      -1.246  -2.854  -0.257  0.00  0.00    +0.121 HD
ATOM     13  H   UNL     1      -0.649  -4.148  -1.085  0.00  0.00    +0.121 HD
ATOM     14  H   UNL     1       0.372  -2.972  -0.546  0.00  0.00    +0.121 HD
ENDBRANCH   6  11
BRANCH   1  15
ATOM     15  N   UNL     1       0.623  -0.650  -1.251  0.00  0.00    -0.299 N 
BRANCH  15  16
ATOM     16  C   UNL     1       2.015  -0.758  -1.260  0.00  0.00    +0.037 A 
ATOM     17  C   UNL     1       2.629  -1.896  -0.751  0.00  0.00    +0.024 A 
ATOM     18  C   UNL     1       4.006  -1.999  -0.763  0.00  0.00    +0.002 A 
ATOM     19  C   UNL     1       4.774  -0.971  -1.279  0.00  0.00    +0.000 A 
ATOM     20  C   UNL     1       4.167   0.163  -1.786  0.00  0.00    +0.005 A 
ATOM     21  C   UNL     1       2.790   0.270  -1.783  0.00  0.00    -0.029 A 
ATOM     22  C   UNL     1       2.128   1.504  -2.341  0.00  0.00    +0.045 C 
ENDBRANCH  15  16
BRANCH  15  24
ATOM     23  C   UNL     1      -0.194   1.535  -0.514  0.00  0.00    +0.024 C 
ATOM     24  C   UNL     1      -0.050   0.054  -0.156  0.00  0.00    +0.108 C 
ENDBRANCH  15  24
ENDBRANCH   1  15
TORSDOF 4
