REMARK  Name = ZINC04301299
REMARK  3 active torsions:
REMARK  status: ('A' for Active; 'I' for Inactive)
REMARK    1  A    between atoms: C_15  and  C_17
REMARK    2  A    between atoms: N_19  and  C_20
REMARK    3  A    between atoms: N_31  and  C_34
REMARK                            x       y       z     vdW  Elec       q    Type
REMARK                         _______ _______ _______ _____ _____    ______ ____
ROOT
ATOM      1  C   UNL     1      -1.931  -2.554  -6.684  0.00  0.00    +0.001 A 
ATOM      2  C   UNL     1      -2.979  -2.481  -5.784  0.00  0.00    +0.000 A 
ATOM      3  C   UNL     1      -3.569  -1.261  -5.498  0.00  0.00    +0.006 A 
ATOM      4  C   UNL     1      -3.113  -0.117  -6.111  0.00  0.00    -0.021 A 
ATOM      5  C   UNL     1      -2.057  -0.181  -7.027  0.00  0.00    -0.019 A 
ATOM      6  C   UNL     1      -1.466  -1.415  -7.307  0.00  0.00    +0.008 A 
ATOM      7  C   UNL     1      -1.571   1.045  -7.693  0.00  0.00    +0.022 C 
ATOM      8  C   UNL     1      -1.887   2.248  -7.175  0.00  0.00    +0.054 C 
ATOM      9  C   UNL     1      -3.730   1.226  -5.815  0.00  0.00    +0.100 C 
ATOM     10  C   UNL     1      -4.174   1.333  -4.357  0.00  0.00    +0.113 C 
ATOM     11  C   UNL     1      -3.779   2.784  -3.943  0.00  0.00    +0.117 C 
ATOM     12  C   UNL     1      -2.589   3.115  -4.866  0.00  0.00    +0.156 C 
ATOM     13  C   UNL     1      -3.236   2.558  -2.541  0.00  0.00    +0.228 C 
ATOM     14  O   UNL     1      -3.121   3.403  -1.680  0.00  0.00    -0.275 OA
ATOM     15  N   UNL     1      -2.907   1.262  -2.418  0.00  0.00    -0.238 N 
ATOM     16  C   UNL     1      -3.290   0.498  -3.454  0.00  0.00    +0.228 C 
ATOM     17  O   UNL     1      -2.984  -0.661  -3.632  0.00  0.00    -0.275 OA
ATOM     18  N   UNL     1      -2.973   2.413  -6.132  0.00  0.00    -0.383 NA
ATOM     19  H   UNL     1      -3.650   3.038  -6.584  0.00  0.00    +0.127 HD
ENDROOT
BRANCH  15  20
ATOM     20  C   UNL     1      -2.187   0.730  -1.259  0.00  0.00    +0.084 C 
ATOM     21  C   UNL     1      -0.885   1.511  -1.065  0.00  0.00    +0.023 C 
ATOM     22  C   UNL     1      -0.133   0.955   0.146  0.00  0.00    +0.002 C 
ATOM     23  C   UNL     1      -1.004   1.095   1.396  0.00  0.00    +0.000 C 
ATOM     24  C   UNL     1      -2.305   0.314   1.202  0.00  0.00    +0.002 C 
ATOM     25  C   UNL     1      -3.058   0.870  -0.009  0.00  0.00    +0.023 C 
ENDBRANCH  15  20
BRANCH  12  26
ATOM     26  C   UNL     1      -1.293   2.888  -4.131  0.00  0.00    +0.237 C 
ATOM     27  O   UNL     1      -0.734   1.814  -4.205  0.00  0.00    -0.273 OA
ATOM     28  N   UNL     1      -0.756   3.877  -3.390  0.00  0.00    -0.284 N 
ATOM     29  H   UNL     1      -1.236   4.713  -3.275  0.00  0.00    +0.155 HD
BRANCH  28  30
ATOM     30  C   UNL     1       0.495   3.700  -2.786  0.00  0.00    +0.037 A 
ATOM     31  C   UNL     1       0.772   4.311  -1.570  0.00  0.00    +0.027 A 
ATOM     32  C   UNL     1       2.003   4.132  -0.970  0.00  0.00    +0.051 A 
ATOM     33  C   UNL     1       2.970   3.353  -1.585  0.00  0.00    +0.166 A 
ATOM     34  C   UNL     1       2.698   2.744  -2.808  0.00  0.00    +0.168 A 
ATOM     35  C   UNL     1       1.461   2.919  -3.405  0.00  0.00    +0.072 A 
ATOM     36  O   UNL     1       3.799   2.040  -3.200  0.00  0.00    -0.453 OA
ATOM     37  C   UNL     1       4.602   1.890  -2.014  0.00  0.00    +0.466 C 
ATOM     38  O   UNL     1       4.244   3.031  -1.212  0.00  0.00    -0.453 OA
ENDBRANCH  28  30
ENDBRANCH  12  26
TORSDOF 3
