REMARK  Name = ZINC38785318
REMARK  9 active torsions:
REMARK  status: ('A' for Active; 'I' for Inactive)
REMARK    1  A    between atoms: C_1  and  C_2
REMARK    2  A    between atoms: C_2  and  C_3
REMARK    3  A    between atoms: C_2  and  C_4
REMARK    4  A    between atoms: C_7  and  C_10
REMARK    5  A    between atoms: C_14  and  S_18
REMARK    6  A    between atoms: S_18  and  C_19
REMARK    7  A    between atoms: C_19  and  C_20
REMARK    8  A    between atoms: N_22  and  C_23
REMARK    9  A    between atoms: C_28  and  C_29
REMARK                            x       y       z     vdW  Elec       q    Type
REMARK                         _______ _______ _______ _____ _____    ______ ____
ROOT
ATOM      1  C   UNL     1       2.714  -1.904  -4.688  0.00  0.00    -0.015 C 
ATOM      2  C   UNL     1       3.983  -1.491  -4.996  0.00  0.00    +0.075 C 
ATOM      3  C   UNL     1       4.585  -2.015  -6.234  0.00  0.00    +0.112 C 
ATOM      4  N   UNL     1       5.796  -1.662  -6.590  0.00  0.00    -0.217 NA
ATOM      5  C   UNL     1       6.517  -0.821  -5.850  0.00  0.00    +0.182 C 
ATOM      6  N   UNL     1       6.074  -0.292  -4.723  0.00  0.00    -0.151 NA
ATOM      7  C   UNL     1       4.864  -0.558  -4.231  0.00  0.00    +0.272 C 
ATOM      8  O   UNL     1       4.486  -0.052  -3.187  0.00  0.00    -0.268 OA
ATOM      9  S   UNL     1       3.346  -3.078  -6.931  0.00  0.00    -0.100 S 
ATOM     10  C   UNL     1       2.050  -2.866  -5.646  0.00  0.00    +0.112 C 
ENDROOT
BRANCH   1  14
ATOM     11  C   UNL     1       0.741  -0.557  -1.191  0.00  0.00    -0.045 A 
ATOM     12  C   UNL     1       0.242  -0.215  -2.437  0.00  0.00    +0.004 A 
ATOM     13  C   UNL     1       0.877  -0.649  -3.580  0.00  0.00    +0.008 A 
ATOM     14  C   UNL     1       2.032  -1.438  -3.479  0.00  0.00    -0.020 A 
ATOM     15  C   UNL     1       2.529  -1.778  -2.213  0.00  0.00    +0.008 A 
ATOM     16  C   UNL     1       1.883  -1.331  -1.081  0.00  0.00    +0.004 A 
BRANCH  11  18
ATOM     17  C   UNL     1       0.009   1.453   0.065  0.00  0.00    +0.012 C 
ATOM     18  C   UNL     1       0.039  -0.077   0.054  0.00  0.00    +0.013 C 
ATOM     19  C   UNL     1      -1.393  -0.615   0.071  0.00  0.00    +0.012 C 
ENDBRANCH  11  18
ENDBRANCH   1  14
BRANCH   5  20
ATOM     20  S   UNL     1       8.136  -0.396  -6.399  0.00  0.00    -0.079 S 
BRANCH  20  21
ATOM     21  C   UNL     1       8.747   0.742  -5.125  0.00  0.00    +0.173 C 
BRANCH  21  22
ATOM     22  C   UNL     1      10.142   1.188  -5.477  0.00  0.00    +0.227 C 
ATOM     23  O   UNL     1      10.673   0.779  -6.488  0.00  0.00    -0.275 OA
ATOM     24  N   UNL     1      10.801   2.043  -4.669  0.00  0.00    -0.284 N 
ATOM     25  H   UNL     1      10.349   2.433  -3.904  0.00  0.00    +0.155 HD
BRANCH  24  26
ATOM     26  C   UNL     1      12.136   2.367  -4.933  0.00  0.00    +0.045 A 
ATOM     27  C   UNL     1      12.937   1.489  -5.651  0.00  0.00    +0.024 A 
ATOM     28  C   UNL     1      14.254   1.812  -5.910  0.00  0.00    +0.002 A 
ATOM     29  C   UNL     1      14.777   3.008  -5.454  0.00  0.00    +0.001 A 
ATOM     30  C   UNL     1      13.982   3.885  -4.738  0.00  0.00    +0.014 A 
ATOM     31  C   UNL     1      12.662   3.570  -4.481  0.00  0.00    +0.076 A 
BRANCH  31  32
ATOM     32  C   UNL     1      11.795   4.529  -3.707  0.00  0.00    +0.419 C 
ATOM     33  F   UNL     1      12.543   5.661  -3.364  0.00  0.00    -0.166 F 
ATOM     34  F   UNL     1      10.704   4.912  -4.495  0.00  0.00    -0.166 F 
ATOM     35  F   UNL     1      11.333   3.905  -2.543  0.00  0.00    -0.166 F 
ENDBRANCH  31  32
ENDBRANCH  24  26
ENDBRANCH  21  22
ENDBRANCH  20  21
ENDBRANCH   5  20
TORSDOF 7
