REMARK  Name = ZINC39667134
REMARK  12 active torsions:
REMARK  status: ('A' for Active; 'I' for Inactive)
REMARK    1  A    between atoms: C_1  and  C_2
REMARK    2  A    between atoms: C_2  and  C_3
REMARK    3  A    between atoms: C_3  and  C_4
REMARK    4  A    between atoms: C_4  and  C_5
REMARK    5  A    between atoms: C_5  and  C_7
REMARK    6  A    between atoms: C_5  and  C_8
REMARK    7  A    between atoms: C_12  and  C_21
REMARK    8  A    between atoms: N_23  and  C_24
REMARK    9  A    between atoms: C_24  and  C_25
REMARK   10  A    between atoms: C_25  and  C_26
REMARK   11  A    between atoms: C_29  and  C_33
REMARK   12  A    between atoms: C_31  and  C_32
REMARK                            x       y       z     vdW  Elec       q    Type
REMARK                         _______ _______ _______ _____ _____    ______ ____
ROOT
ATOM      1  C   UNL     1      -2.990  -4.337   0.307  0.00  0.00    +0.218 C 
ATOM      2  O   UNL     1      -1.997  -4.999   0.522  0.00  0.00    -0.275 OA
ATOM      3  N   UNL     1      -4.179  -4.946   0.126  0.00  0.00    -0.300 N 
ATOM      4  C   UNL     1      -5.469  -4.323  -0.253  0.00  0.00    +0.121 C 
ATOM      5  C   UNL     1      -6.114  -5.327  -1.234  0.00  0.00    +0.100 C 
ATOM      6  C   UNL     1      -5.470  -6.680  -0.891  0.00  0.00    -0.004 C 
ATOM      7  C   UNL     1      -4.490  -6.389   0.255  0.00  0.00    +0.115 C 
ATOM      8  C   UNL     1      -4.713  -7.226  -2.098  0.00  0.00    -0.010 C 
ATOM      9  C   UNL     1      -4.129  -8.599  -1.750  0.00  0.00    -0.082 C 
ATOM     10  N   UNL     1      -5.215  -9.513  -1.373  0.00  0.00    +0.379 N 
ATOM     11  C   UNL     1      -5.878  -9.027  -0.157  0.00  0.00    -0.082 C 
ATOM     12  C   UNL     1      -6.535  -7.673  -0.437  0.00  0.00    -0.010 C 
ATOM     13  H   UNL     1      -5.886  -9.562  -2.124  0.00  0.00    -0.086 HD
ATOM     14  H   UNL     1      -4.835 -10.432  -1.204  0.00  0.00    -0.086 HD
ENDROOT
BRANCH   5  15
ATOM     15  C   UNL     1      -7.605  -5.384  -1.023  0.00  0.00    +0.218 C 
ATOM     16  O   UNL     1      -8.071  -5.159   0.074  0.00  0.00    -0.275 OA
ATOM     17  N   UNL     1      -8.421  -5.685  -2.053  0.00  0.00    -0.315 N 
ATOM     18  H   UNL     1      -8.048  -5.865  -2.930  0.00  0.00    +0.149 HD
BRANCH  17  19
ATOM     19  C   UNL     1      -9.870  -5.740  -1.847  0.00  0.00    +0.109 C 
BRANCH  19  20
ATOM     20  C   UNL     1     -10.559  -6.100  -3.165  0.00  0.00    +0.054 C 
BRANCH  20  21
ATOM     21  C   UNL     1     -12.050  -6.158  -2.953  0.00  0.00    -0.043 A 
ATOM     22  C   UNL     1     -12.663  -7.366  -2.678  0.00  0.00    +0.004 A 
ATOM     23  C   UNL     1     -14.031  -7.418  -2.484  0.00  0.00    +0.003 A 
ATOM     24  C   UNL     1     -14.785  -6.262  -2.564  0.00  0.00    -0.050 A 
ATOM     25  C   UNL     1     -14.172  -5.054  -2.838  0.00  0.00    +0.007 A 
ATOM     26  C   UNL     1     -12.803  -5.001  -3.028  0.00  0.00    -0.047 A 
ATOM     27  C   UNL     1     -12.134  -3.683  -3.321  0.00  0.00    +0.044 C 
ATOM     28  C   UNL     1     -16.276  -6.320  -2.353  0.00  0.00    +0.044 C 
ENDBRANCH  20  21
ENDBRANCH  19  20
ENDBRANCH  17  19
ENDBRANCH   5  15
BRANCH   1  29
ATOM     29  C   UNL     1      -2.894  -2.835   0.241  0.00  0.00    +0.072 C 
ATOM     30  C   UNL     1      -2.586  -2.406  -1.195  0.00  0.00    +0.017 C 
BRANCH  29  31
ATOM     31  C   UNL     1      -1.776  -2.354   1.168  0.00  0.00    +0.012 C 
BRANCH  31  32
ATOM     32  C   UNL     1      -1.760  -0.824   1.197  0.00  0.00    +0.000 C 
BRANCH  32  34
ATOM     33  C   UNL     1      -0.626   1.186   2.153  0.00  0.00    +0.004 C 
ATOM     34  C   UNL     1      -0.642  -0.344   2.124  0.00  0.00    -0.003 C 
ENDBRANCH  32  34
ENDBRANCH  31  32
ENDBRANCH  29  31
ENDBRANCH   1  29
TORSDOF 8
