REMARK  Name = ZINC11443323
REMARK  14 active torsions:
REMARK  status: ('A' for Active; 'I' for Inactive)
REMARK    1  A    between atoms: C_1  and  C_2
REMARK    2  A    between atoms: C_2  and  C_3
REMARK    3  A    between atoms: C_3  and  C_4
REMARK    4  A    between atoms: C_10  and  S_12
REMARK    5  A    between atoms: S_12  and  C_13
REMARK    6  A    between atoms: C_13  and  C_14
REMARK    7  A    between atoms: N_16  and  C_17
REMARK    8  A    between atoms: C_18  and  C_27
REMARK    9  A    between atoms: C_19  and  C_26
REMARK   10  A    between atoms: C_20  and  C_22
REMARK   11  A    between atoms: C_22  and  O_24
REMARK   12  A    between atoms: O_24  and  C_25
REMARK   13  A    between atoms: C_27  and  O_29
REMARK   14  A    between atoms: O_29  and  C_30
REMARK                            x       y       z     vdW  Elec       q    Type
REMARK                         _______ _______ _______ _____ _____    ______ ____
ROOT
ATOM      1  C   UNL     1      -0.945  -4.047  -5.335  0.00  0.00    +0.228 C 
ATOM      2  O   UNL     1      -0.916  -5.248  -5.498  0.00  0.00    -0.275 OA
ATOM      3  N   UNL     1      -0.868  -3.220  -6.397  0.00  0.00    -0.279 N 
ATOM      4  H   UNL     1      -0.891  -2.260  -6.267  0.00  0.00    +0.155 HD
ENDROOT
BRANCH   3   5
ATOM      5  C   UNL     1      -0.756  -3.742  -7.671  0.00  0.00    +0.087 A 
ATOM      6  C   UNL     1      -0.659  -3.049  -8.880  0.00  0.00    +0.091 A 
ATOM      7  C   UNL     1      -0.554  -3.797 -10.044  0.00  0.00    -0.014 A 
ATOM      8  C   UNL     1      -0.556  -5.159  -9.892  0.00  0.00    +0.102 A 
ATOM      9  S   UNL     1      -0.696  -5.357  -8.127  0.00  0.00    -0.066 S 
ATOM     10  C   UNL     1      -0.445  -3.148 -11.399  0.00  0.00    +0.046 C 
BRANCH   8  11
ATOM     11  C   UNL     1      -0.460  -6.192 -10.922  0.00  0.00    +0.346 C 
ATOM     12  O   UNL     1      -0.363  -5.877 -12.093  0.00  0.00    -0.244 OA
BRANCH  11  13
ATOM     13  O   UNL     1      -0.478  -7.496 -10.574  0.00  0.00    -0.464 OA
ATOM     14  C   UNL     1      -0.381  -8.451 -11.632  0.00  0.00    +0.280 C 
ENDBRANCH  11  13
ENDBRANCH   8  11
BRANCH   6  15
ATOM     15  C   UNL     1      -0.668  -1.582  -8.918  0.00  0.00    +0.342 C 
ATOM     16  O   UNL     1       0.377  -0.965  -8.845  0.00  0.00    -0.245 OA
BRANCH  15  17
ATOM     17  O   UNL     1      -1.836  -0.918  -9.034  0.00  0.00    -0.464 OA
ATOM     18  C   UNL     1      -1.771   0.509  -9.064  0.00  0.00    +0.280 C 
ENDBRANCH  15  17
ENDBRANCH   6  15
ENDBRANCH   3   5
BRANCH   1  19
ATOM     19  C   UNL     1      -1.068  -3.478  -3.945  0.00  0.00    +0.173 C 
BRANCH  19  20
ATOM     20  S   UNL     1      -1.150  -4.833  -2.742  0.00  0.00    -0.078 S 
BRANCH  20  27
ATOM     21  C   UNL     1      -1.413  -2.041   0.005  0.00  0.00    +0.049 A 
ATOM     22  C   UNL     1      -1.501  -2.729   1.180  0.00  0.00    +0.093 A 
ATOM     23  C   UNL     1      -1.480  -4.135   1.147  0.00  0.00    +0.252 A 
ATOM     24  O   UNL     1      -1.558  -4.782   2.179  0.00  0.00    -0.268 OA
ATOM     25  N   UNL     1      -1.374  -4.755  -0.047  0.00  0.00    -0.302 N 
ATOM     26  H   UNL     1      -1.358  -5.724  -0.093  0.00  0.00    +0.171 HD
ATOM     27  C   UNL     1      -1.289  -4.015  -1.188  0.00  0.00    +0.170 A 
ATOM     28  N   UNL     1      -1.314  -2.697  -1.149  0.00  0.00    -0.228 NA
BRANCH  21  29
ATOM     29  C   UNL     1      -1.433  -0.534   0.013  0.00  0.00    +0.055 C 
BRANCH  29  31
ATOM     30  C   UNL     1      -0.019   1.526   0.010  0.00  0.00    +0.004 C 
ATOM     31  C   UNL     1       0.002  -0.004   0.002  0.00  0.00    +0.003 C 
ENDBRANCH  29  31
ENDBRANCH  21  29
ENDBRANCH  20  27
ENDBRANCH  19  20
ENDBRANCH   1  19
TORSDOF 10
