REMARK  Name = ZINC41586634
REMARK  8 active torsions:
REMARK  status: ('A' for Active; 'I' for Inactive)
REMARK    1  A    between atoms: C_1  and  C_2
REMARK    2  A    between atoms: C_2  and  O_3
REMARK    3  A    between atoms: O_3  and  C_4
REMARK    4  A    between atoms: C_4  and  C_6
REMARK    5  A    between atoms: N_11  and  C_13
REMARK    6  A    between atoms: C_13  and  C_14
REMARK    7  A    between atoms: C_15  and  O_32
REMARK    8  A    between atoms: C_22  and  C_25
REMARK                            x       y       z     vdW  Elec       q    Type
REMARK                         _______ _______ _______ _____ _____    ______ ____
ROOT
ATOM      1  C   UNL     1      -5.406  -6.592   0.218  0.00  0.00    +0.020 A 
ATOM      2  C   UNL     1      -5.948  -6.799   1.476  0.00  0.00    +0.122 A 
ATOM      3  C   UNL     1      -7.221  -7.346   1.620  0.00  0.00    +0.046 A 
ATOM      4  C   UNL     1      -7.955  -7.683   0.517  0.00  0.00    +0.019 A 
ATOM      5  C   UNL     1      -7.423  -7.477  -0.755  0.00  0.00    +0.065 A 
ATOM      6  C   UNL     1      -6.138  -6.927  -0.913  0.00  0.00    +0.143 A 
ATOM      7  O   UNL     1      -5.624  -6.740  -2.144  0.00  0.00    -0.462 OA
ATOM      8  C   UNL     1      -6.389  -6.769  -3.237  0.00  0.00    +0.208 A 
ATOM      9  C   UNL     1      -7.649  -7.280  -3.240  0.00  0.00    +0.064 A 
ATOM     10  C   UNL     1      -8.185  -7.818  -1.972  0.00  0.00    +0.200 A 
ATOM     11  O   UNL     1      -9.200  -8.491  -1.932  0.00  0.00    -0.286 OA
ENDROOT
BRANCH   9  12
ATOM     12  C   UNL     1      -8.458  -7.307  -4.482  0.00  0.00    -0.011 A 
ATOM     13  C   UNL     1      -9.621  -6.546  -4.575  0.00  0.00    +0.010 A 
ATOM     14  C   UNL     1     -10.370  -6.573  -5.734  0.00  0.00    +0.016 A 
ATOM     15  C   UNL     1      -9.967  -7.355  -6.803  0.00  0.00    +0.018 A 
ATOM     16  C   UNL     1      -8.813  -8.114  -6.715  0.00  0.00    +0.016 A 
ATOM     17  C   UNL     1      -8.053  -8.089  -5.563  0.00  0.00    +0.010 A 
ATOM     18 BR   UNL     1     -10.998  -7.389  -8.388  0.00  0.00    -0.050 Br
ENDBRANCH   9  12
BRANCH   2  19
ATOM     19  O   UNL     1      -5.231  -6.466   2.579  0.00  0.00    -0.506 OA
ATOM     20  H   UNL     1      -5.373  -5.559   2.882  0.00  0.00    +0.292 HD
ENDBRANCH   2  19
BRANCH   1  21
ATOM     21  C   UNL     1      -4.028  -6.000   0.078  0.00  0.00    -0.036 C 
BRANCH  21  26
ATOM     22  C   UNL     1      -2.881  -2.427   0.017  0.00  0.00    +0.081 C 
ATOM     23  C   UNL     1      -3.647  -1.960  -1.225  0.00  0.00    +0.011 C 
ATOM     24  C   UNL     1      -5.023  -2.632  -1.246  0.00  0.00    -0.018 C 
ATOM     25  C   UNL     1      -4.844  -4.151  -1.211  0.00  0.00    -0.078 C 
ATOM     26  N   UNL     1      -4.129  -4.535   0.011  0.00  0.00    +0.383 N 
ATOM     27  C   UNL     1      -2.781  -3.954   0.005  0.00  0.00    -0.064 C 
ATOM     28  H   UNL     1      -4.635  -4.198   0.816  0.00  0.00    -0.081 HD
BRANCH  22  29
ATOM     29  C   UNL     1      -1.496  -1.832   0.006  0.00  0.00    +0.308 C 
ATOM     30  O   UNL     1      -0.528  -2.555  -0.007  0.00  0.00    -0.251 OA
BRANCH  29  31
ATOM     31  O   UNL     1      -1.339  -0.499   0.012  0.00  0.00    -0.465 OA
BRANCH  31  33
ATOM     32  C   UNL     1      -0.019   1.526   0.010  0.00  0.00    +0.048 C 
ATOM     33  C   UNL     1       0.002  -0.004   0.002  0.00  0.00    +0.229 C 
ENDBRANCH  31  33
ENDBRANCH  29  31
ENDBRANCH  22  29
ENDBRANCH  21  26
ENDBRANCH   1  21
TORSDOF 7
