REMARK  Name = ZINC35778745
REMARK  14 active torsions:
REMARK  status: ('A' for Active; 'I' for Inactive)
REMARK    1  A    between atoms: C_1  and  C_2
REMARK    2  A    between atoms: C_2  and  N_3
REMARK    3  A    between atoms: N_3  and  C_4
REMARK    4  A    between atoms: N_3  and  C_17
REMARK    5  A    between atoms: C_4  and  C_5
REMARK    6  A    between atoms: C_5  and  C_7
REMARK    7  A    between atoms: C_5  and  O_16
REMARK    8  A    between atoms: C_7  and  O_8
REMARK    9  A    between atoms: O_8  and  C_9
REMARK   10  A    between atoms: C_9  and  C_10
REMARK   11  A    between atoms: C_17  and  C_18
REMARK   12  A    between atoms: C_28  and  C_30
REMARK   13  A    between atoms: C_30  and  O_31
REMARK   14  A    between atoms: O_31  and  C_32
REMARK                            x       y       z     vdW  Elec       q    Type
REMARK                         _______ _______ _______ _____ _____    ______ ____
ROOT
ATOM      1  C   UNL     1      -0.052   1.493   2.253  0.00  0.00    +0.200 C 
ATOM      2  O   UNL     1       0.462   2.117   1.349  0.00  0.00    -0.278 OA
ATOM      3  N   UNL     1      -0.726   2.143   3.223  0.00  0.00    -0.292 N 
ATOM      4  C   UNL     1      -1.348   1.396   4.327  0.00  0.00    +0.113 C 
ATOM      5  C   UNL     1      -0.645   1.793   5.634  0.00  0.00    +0.061 C 
ATOM      6  C   UNL     1      -0.447   3.274   5.641  0.00  0.00    -0.004 A 
ATOM      7  C   UNL     1      -0.519   4.132   4.588  0.00  0.00    -0.014 A 
ATOM      8  C   UNL     1      -0.283   5.479   4.861  0.00  0.00    +0.013 A 
ATOM      9  C   UNL     1      -0.005   5.875   6.124  0.00  0.00    +0.046 A 
ATOM     10  S   UNL     1      -0.064   4.328   7.015  0.00  0.00    -0.101 S 
ATOM     11  C   UNL     1      -0.844   3.607   3.196  0.00  0.00    +0.144 C 
ENDROOT
BRANCH   1  12
ATOM     12  C   UNL     1       0.062  -0.009   2.292  0.00  0.00    +0.019 C 
BRANCH  12  13
ATOM     13  N   UNL     1       0.962  -0.460   1.222  0.00  0.00    +0.387 N 
ATOM     14  H   UNL     1       0.653  -0.077   0.340  0.00  0.00    -0.081 HD
BRANCH  13  16
ATOM     15  C   UNL     1      -0.449  -2.399   0.728  0.00  0.00    -0.017 C 
ATOM     16  C   UNL     1       0.943  -1.927   1.151  0.00  0.00    -0.081 C 
ENDBRANCH  13  16
BRANCH  13  17
ATOM     17  C   UNL     1       2.328  -0.000   1.504  0.00  0.00    -0.044 C 
BRANCH  17  18
ATOM     18  C   UNL     1       3.240  -0.361   0.330  0.00  0.00    +0.124 C 
BRANCH  18  19
ATOM     19  O   UNL     1       2.831   0.364  -0.832  0.00  0.00    -0.391 OA
ATOM     20  H   UNL     1       2.865   1.325  -0.728  0.00  0.00    +0.210 HD
ENDBRANCH  18  19
BRANCH  18  21
ATOM     21  C   UNL     1       4.685   0.005   0.676  0.00  0.00    +0.189 C 
BRANCH  21  22
ATOM     22  O   UNL     1       5.552  -0.437  -0.371  0.00  0.00    -0.373 OA
BRANCH  22  23
ATOM     23  C   UNL     1       6.932  -0.143  -0.145  0.00  0.00    +0.195 C 
BRANCH  23  24
ATOM     24  C   UNL     1       7.750  -0.651  -1.305  0.00  0.00    -0.022 A 
ATOM     25  C   UNL     1       8.254  -1.938  -1.284  0.00  0.00    +0.006 A 
ATOM     26  C   UNL     1       9.004  -2.404  -2.348  0.00  0.00    +0.000 A 
ATOM     27  C   UNL     1       9.249  -1.583  -3.432  0.00  0.00    +0.000 A 
ATOM     28  C   UNL     1       8.745  -0.296  -3.453  0.00  0.00    +0.000 A 
ATOM     29  C   UNL     1       7.991   0.169  -2.392  0.00  0.00    +0.006 A 
ENDBRANCH  23  24
ENDBRANCH  22  23
ENDBRANCH  21  22
ENDBRANCH  18  21
ENDBRANCH  17  18
ENDBRANCH  13  17
ENDBRANCH  12  13
ENDBRANCH   1  12
BRANCH  11  30
ATOM     30  C   UNL     1      -2.272   4.004   2.817  0.00  0.00    +0.256 C 
BRANCH  30  31
ATOM     31  O   UNL     1      -3.173   3.575   3.840  0.00  0.00    -0.490 OA
BRANCH  31  32
ATOM     32  C   UNL     1      -4.491   3.852   3.657  0.00  0.00    +0.123 A 
ATOM     33  C   UNL     1      -4.909   4.519   2.514  0.00  0.00    +0.046 A 
ATOM     34  C   UNL     1      -6.249   4.800   2.329  0.00  0.00    +0.006 A 
ATOM     35  C   UNL     1      -7.174   4.418   3.283  0.00  0.00    +0.038 A 
ATOM     36  C   UNL     1      -6.761   3.753   4.425  0.00  0.00    +0.127 A 
ATOM     37  C   UNL     1      -5.420   3.465   4.611  0.00  0.00    +0.084 A 
ATOM     38  F   UNL     1      -7.667   3.382   5.355  0.00  0.00    -0.205 F 
ENDBRANCH  31  32
ENDBRANCH  30  31
ENDBRANCH  11  30
TORSDOF 13
