REMARK  Name = ZINC13060090
REMARK  9 active torsions:
REMARK  status: ('A' for Active; 'I' for Inactive)
REMARK    1  A    between atoms: C_1  and  C_2
REMARK    2  A    between atoms: C_2  and  O_3
REMARK    3  A    between atoms: O_3  and  C_4
REMARK    4  A    between atoms: C_13  and  C_14
REMARK    5  A    between atoms: C_15  and  C_16
REMARK    6  A    between atoms: C_16  and  C_18
REMARK    7  A    between atoms: C_21  and  S_24
REMARK    8  A    between atoms: S_24  and  N_27
REMARK    9  A    between atoms: C_30  and  C_33
REMARK                            x       y       z     vdW  Elec       q    Type
REMARK                         _______ _______ _______ _____ _____    ______ ____
ROOT
ATOM      1  C   UNL     1      -5.831   3.826  -1.806  0.00  0.00    +0.022 A 
ATOM      2  C   UNL     1      -5.602   2.818  -2.745  0.00  0.00    +0.013 A 
ATOM      3  C   UNL     1      -6.591   2.482  -3.646  0.00  0.00    +0.029 A 
ATOM      4  C   UNL     1      -7.803   3.149  -3.629  0.00  0.00    +0.106 A 
ATOM      5  C   UNL     1      -8.034   4.153  -2.705  0.00  0.00    +0.029 A 
ATOM      6  C   UNL     1      -7.056   4.495  -1.794  0.00  0.00    +0.013 A 
ENDROOT
BRANCH   4   7
ATOM      7  S   UNL     1      -9.057   2.719  -4.789  0.00  0.00    +0.061 S 
ATOM      8  O   UNL     1      -8.798   1.381  -5.191  0.00  0.00    -0.153 OA
ATOM      9  O   UNL     1     -10.295   3.115  -4.214  0.00  0.00    -0.153 OA
BRANCH   7  10
ATOM     10  N   UNL     1      -8.832   3.668  -6.128  0.00  0.00    -0.177 NA
ATOM     11  C   UNL     1      -9.496   4.974  -6.240  0.00  0.00    +0.110 C 
ATOM     12  C   UNL     1     -10.267   5.029  -7.557  0.00  0.00    +0.032 C 
ATOM     13  C   UNL     1      -9.320   4.703  -8.714  0.00  0.00    +0.105 C 
ATOM     14  C   UNL     1      -8.764   3.288  -8.537  0.00  0.00    +0.032 C 
ATOM     15  C   UNL     1      -7.970   3.216  -7.229  0.00  0.00    +0.110 C 
BRANCH  13  16
ATOM     16  C   UNL     1     -10.073   4.787 -10.017  0.00  0.00    +0.359 C 
ATOM     17  O   UNL     1     -10.155   3.815 -10.731  0.00  0.00    -0.246 OA
ATOM     18  O   UNL     1     -10.651   5.941 -10.385  0.00  0.00    -0.246 OA
ENDBRANCH  13  16
ENDBRANCH   7  10
ENDBRANCH   4   7
BRANCH   1  19
ATOM     19  C   UNL     1      -4.778   4.187  -0.832  0.00  0.00    +0.186 C 
ATOM     20  O   UNL     1      -4.978   5.070  -0.018  0.00  0.00    -0.287 OA
BRANCH  19  22
ATOM     21  C   UNL     1      -2.571   3.839   0.046  0.00  0.00    +0.016 C 
ATOM     22  C   UNL     1      -3.538   3.507  -0.847  0.00  0.00    +0.052 C 
BRANCH  21  32
ATOM     23  C   UNL     1      -1.240   1.737   0.018  0.00  0.00    +0.128 A 
ATOM     24  C   UNL     1      -0.013   1.076   0.008  0.00  0.00    +0.047 A 
ATOM     25  C   UNL     1       1.166   1.753   0.000  0.00  0.00    +0.012 A 
ATOM     26  C   UNL     1       1.190   3.160   0.008  0.00  0.00    -0.017 A 
ATOM     27  C   UNL     1       2.404   3.867   0.000  0.00  0.00    +0.008 A 
ATOM     28  C   UNL     1       2.391   5.229   0.008  0.00  0.00    +0.001 A 
ATOM     29  C   UNL     1       1.191   5.934   0.024  0.00  0.00    +0.001 A 
ATOM     30  C   UNL     1      -0.005   5.278   0.031  0.00  0.00    +0.009 A 
ATOM     31  C   UNL     1      -0.028   3.880   0.023  0.00  0.00    -0.007 A 
ATOM     32  C   UNL     1      -1.290   3.136   0.031  0.00  0.00    +0.024 A 
BRANCH  23  33
ATOM     33  O   UNL     1      -2.392   1.022   0.019  0.00  0.00    -0.492 OA
BRANCH  33  35
ATOM     34  C   UNL     1      -3.665  -1.032   0.014  0.00  0.00    +0.048 C 
ATOM     35  C   UNL     1      -2.271  -0.402   0.011  0.00  0.00    +0.226 C 
ENDBRANCH  33  35
ENDBRANCH  23  33
ENDBRANCH  21  32
ENDBRANCH  19  22
ENDBRANCH   1  19
TORSDOF 8
