REMARK  Name = ZINC17112463
REMARK  15 active torsions:
REMARK  status: ('A' for Active; 'I' for Inactive)
REMARK    1  A    between atoms: CD1_1  and  CG1_2
REMARK    2  A    between atoms: CG1_2  and  CB_3
REMARK    3  A    between atoms: CB_3  and  CG2_5
REMARK    4  A    between atoms: CB_3  and  CA_6
REMARK    5  A    between atoms: CA_6  and  C_8
REMARK    6  A    between atoms: CA_6  and  N_10
REMARK    7  A    between atoms: C_11  and  CA_13
REMARK    8  A    between atoms: CA_13  and  CB_15
REMARK    9  A    between atoms: CA_13  and  N_18
REMARK   10  A    between atoms: CB_15  and  CG1_16
REMARK   11  A    between atoms: CB_15  and  CG2_17
REMARK   12  A    between atoms: C_29  and  O_35
REMARK   13  A    between atoms: C_30  and  C_32
REMARK   14  A    between atoms: C_32  and  C_33
REMARK   15  A    between atoms: C_32  and  C_34
REMARK                            x       y       z     vdW  Elec       q    Type
REMARK                         _______ _______ _______ _____ _____    ______ ____
ROOT
ATOM      1  N   VAL A   1      -4.525  -2.874   2.509  0.00  0.00    -0.287 N 
ATOM      2  C   UNK A   0      -4.745  -3.982   3.244  0.00  0.00    +0.308 C 
ATOM      3  O   UNK A   0      -3.829  -4.746   3.482  0.00  0.00    -0.252 OA
ATOM      4  N   UNK A   0      -5.980  -4.245   3.715  0.00  0.00    -0.241 N 
ATOM      5  C   UNK A   0      -6.224  -5.334   4.565  0.00  0.00    +0.064 A 
ATOM      6  C   UNK A   0      -5.447  -6.475   4.515  0.00  0.00    +0.026 A 
ATOM      7  C   UNK A   0      -5.723  -7.531   5.367  0.00  0.00    +0.002 A 
ATOM      8  C   UNK A   0      -6.772  -7.447   6.265  0.00  0.00    +0.002 A 
ATOM      9  C   UNK A   0      -7.554  -6.311   6.326  0.00  0.00    +0.030 A 
ATOM     10  C   UNK A   0      -7.285  -5.240   5.476  0.00  0.00    +0.089 A 
ATOM     11  N   UNK A   0      -8.037  -4.096   5.525  0.00  0.00    -0.214 NA
ATOM     12  C   UNK A   0      -7.998  -3.214   4.579  0.00  0.00    +0.209 C 
ATOM     13  C   UNK A   0      -7.132  -3.397   3.364  0.00  0.00    +0.171 C 
ATOM     14  H   VAL A   1      -5.236  -2.228   2.382  0.00  0.00    +0.151 HD
ENDROOT
BRANCH  13  15
ATOM     15  C   UNK A   0      -7.945  -4.070   2.257  0.00  0.00    +0.013 C 
ATOM     16  C   UNK A   0      -9.141  -3.187   1.894  0.00  0.00    +0.009 C 
ATOM     17  C   UNK A   0      -7.063  -4.266   1.022  0.00  0.00    +0.009 C 
ENDBRANCH  13  15
BRANCH  12  18
ATOM     18  O   UNK A   0      -8.750  -2.099   4.687  0.00  0.00    -0.494 OA
ATOM     19  H   UNK A   0      -9.275  -2.057   5.498  0.00  0.00    +0.293 HD
ENDBRANCH  12  18
BRANCH   1  20
ATOM     20  CA  VAL A   1      -3.211  -2.646   1.903  0.00  0.00    +0.163 C 
BRANCH  20  22
ATOM     21  N   VAL A   1      -1.761  -0.673   1.548  0.00  0.00    -0.300 N 
ATOM     22  C   VAL A   1      -3.007  -1.169   1.686  0.00  0.00    +0.234 C 
ATOM     23  O   VAL A   1      -3.964  -0.426   1.636  0.00  0.00    -0.274 OA
ATOM     24  H   VAL A   1      -0.993  -1.256   1.655  0.00  0.00    +0.150 HD
BRANCH  21  25
ATOM     25  CA  VAL A   1      -1.567   0.745   1.236  0.00  0.00    +0.189 C 
BRANCH  25  26
ATOM     26  C   VAL A   1      -1.658   0.948  -0.255  0.00  0.00    +0.376 C 
ATOM     27  O   VAL A   1      -1.864   0.005  -0.982  0.00  0.00    -0.244 OA
ATOM     28  OXT VAL A   1      -1.511   2.177  -0.775  0.00  0.00    -0.244 OA
ENDBRANCH  25  26
BRANCH  25  29
ATOM     29  CB  VAL A   1      -0.190   1.192   1.728  0.00  0.00    +0.017 C 
ATOM     30  CG2 VAL A   1       0.897   0.453   0.944  0.00  0.00    +0.010 C 
BRANCH  29  32
ATOM     31  CD1 VAL A   1       1.289   3.167   2.120  0.00  0.00    +0.004 C 
ATOM     32  CG1 VAL A   1      -0.036   2.699   1.515  0.00  0.00    +0.002 C 
ENDBRANCH  29  32
ENDBRANCH  25  29
ENDBRANCH  21  25
ENDBRANCH  20  22
BRANCH  20  33
ATOM     33  CB  VAL A   1      -3.135  -3.374   0.559  0.00  0.00    +0.012 C 
ATOM     34  CG1 VAL A   1      -1.759  -3.145  -0.068  0.00  0.00    +0.009 C 
ATOM     35  CG2 VAL A   1      -3.353  -4.872   0.778  0.00  0.00    +0.009 C 
ENDBRANCH  20  33
ENDBRANCH   1  20
TORSDOF 9
