REMARK  Name = ZINC12498386
REMARK  8 active torsions:
REMARK  status: ('A' for Active; 'I' for Inactive)
REMARK    1  A    between atoms: C_1  and  C_2
REMARK    2  A    between atoms: C_2  and  O_3
REMARK    3  A    between atoms: O_3  and  C_4
REMARK    4  A    between atoms: C_4  and  C_6
REMARK    5  A    between atoms: C_6  and  C_34
REMARK    6  A    between atoms: C_11  and  C_13
REMARK    7  A    between atoms: C_18  and  C_19
REMARK    8  A    between atoms: N_22  and  C_25
REMARK                            x       y       z     vdW  Elec       q    Type
REMARK                         _______ _______ _______ _____ _____    ______ ____
ROOT
ATOM      1  C   UNL     1      -3.420  -1.590   0.816  0.00  0.00    +0.070 C 
ATOM      2  C   UNL     1      -4.457  -0.663   1.447  0.00  0.00    +0.090 C 
ATOM      3  C   UNL     1      -3.501   0.571   1.708  0.00  0.00    +0.078 C 
ATOM      4  C   UNL     1      -2.865   0.728   0.385  0.00  0.00    -0.026 C 
ATOM      5  C   UNL     1      -4.292   1.341   2.641  0.00  0.00    +0.229 C 
ATOM      6  O   UNL     1      -4.375   2.548   2.722  0.00  0.00    -0.275 OA
ATOM      7  N   UNL     1      -4.927   0.403   3.416  0.00  0.00    -0.210 N 
ATOM      8  C   UNL     1      -4.855  -0.855   2.885  0.00  0.00    +0.229 C 
ATOM      9  O   UNL     1      -5.068  -1.905   3.454  0.00  0.00    -0.275 OA
ATOM     10  N   UNL     1      -2.522  -0.689   0.046  0.00  0.00    +0.398 N 
ATOM     11  H   UNL     1      -2.654  -0.847  -0.960  0.00  0.00    -0.083 HD
ATOM     12  H   UNL     1      -1.544  -0.878   0.297  0.00  0.00    -0.083 HD
ENDROOT
BRANCH   7  13
ATOM     13  C   UNL     1      -5.580   0.702   4.621  0.00  0.00    +0.048 A 
ATOM     14  C   UNL     1      -6.199  -0.308   5.344  0.00  0.00    +0.028 A 
ATOM     15  C   UNL     1      -6.842  -0.015   6.532  0.00  0.00    +0.051 A 
ATOM     16  C   UNL     1      -6.870   1.287   7.004  0.00  0.00    +0.166 A 
ATOM     17  C   UNL     1      -6.250   2.303   6.280  0.00  0.00    +0.168 A 
ATOM     18  C   UNL     1      -5.601   2.007   5.093  0.00  0.00    +0.073 A 
ATOM     19  O   UNL     1      -6.418   3.480   6.950  0.00  0.00    -0.453 OA
ATOM     20  C   UNL     1      -6.791   3.111   8.290  0.00  0.00    +0.466 C 
ATOM     21  O   UNL     1      -7.426   1.829   8.128  0.00  0.00    -0.453 OA
ENDBRANCH   7  13
BRANCH   4  22
ATOM     22  C   UNL     1      -1.627   1.581   0.480  0.00  0.00    -0.058 A 
ATOM     23  C   UNL     1      -1.056   1.836   1.713  0.00  0.00    +0.002 A 
ATOM     24  C   UNL     1       0.083   2.614   1.800  0.00  0.00    +0.000 A 
ATOM     25  C   UNL     1       0.648   3.143   0.654  0.00  0.00    +0.000 A 
ATOM     26  C   UNL     1       0.073   2.893  -0.578  0.00  0.00    +0.003 A 
ATOM     27  C   UNL     1      -1.066   2.115  -0.665  0.00  0.00    -0.049 A 
ATOM     28  C   UNL     1      -1.692   1.843  -2.008  0.00  0.00    +0.044 C 
ENDBRANCH   4  22
BRANCH   1  29
ATOM     29  C   UNL     1      -4.092  -2.579  -0.100  0.00  0.00    -0.047 A 
ATOM     30  C   UNL     1      -5.383  -2.999   0.163  0.00  0.00    +0.003 A 
ATOM     31  C   UNL     1      -6.001  -3.903  -0.680  0.00  0.00    +0.000 A 
ATOM     32  C   UNL     1      -5.325  -4.395  -1.781  0.00  0.00    +0.000 A 
ATOM     33  C   UNL     1      -4.033  -3.979  -2.042  0.00  0.00    +0.000 A 
ATOM     34  C   UNL     1      -3.416  -3.071  -1.201  0.00  0.00    +0.003 A 
ENDBRANCH   1  29
BRANCH   1  35
ATOM     35  C   UNL     1      -2.646  -2.314   1.888  0.00  0.00    +0.301 C 
ATOM     36  O   UNL     1      -3.003  -3.407   2.257  0.00  0.00    -0.252 OA
BRANCH  35  37
ATOM     37  O   UNL     1      -1.559  -1.744   2.432  0.00  0.00    -0.466 OA
BRANCH  37  39
ATOM     38  C   UNL     1       0.340  -1.694   3.955  0.00  0.00    +0.048 C 
ATOM     39  C   UNL     1      -0.863  -2.498   3.458  0.00  0.00    +0.228 C 
ENDBRANCH  37  39
ENDBRANCH  35  37
ENDBRANCH   1  35
TORSDOF 6
