REMARK  Name = ZINC39486563
REMARK  8 active torsions:
REMARK  status: ('A' for Active; 'I' for Inactive)
REMARK    1  A    between atoms: C_1  and  C_2
REMARK    2  A    between atoms: C_2  and  C_3
REMARK    3  A    between atoms: C_3  and  C_4
REMARK    4  A    between atoms: C_8  and  C_10
REMARK    5  A    between atoms: C_16  and  O_36
REMARK    6  A    between atoms: N_26  and  C_28
REMARK    7  A    between atoms: C_33  and  O_34
REMARK    8  A    between atoms: O_34  and  C_35
REMARK                            x       y       z     vdW  Elec       q    Type
REMARK                         _______ _______ _______ _____ _____    ______ ____
ROOT
ATOM      1  C   UNL     1       2.961  -4.808  -0.045  0.00  0.00    +0.062 C 
ATOM      2  C   UNL     1       2.406  -5.611  -1.180  0.00  0.00    -0.022 A 
ATOM      3  C   UNL     1       1.316  -5.111  -1.859  0.00  0.00    +0.054 A 
ATOM      4  C   UNL     1       0.802  -5.856  -2.917  0.00  0.00    +0.170 A 
ATOM      5  C   UNL     1       1.371  -7.082  -3.295  0.00  0.00    +0.208 A 
ATOM      6  C   UNL     1       2.471  -7.596  -2.619  0.00  0.00    +0.173 A 
ATOM      7  C   UNL     1       2.977  -6.834  -1.543  0.00  0.00    +0.067 A 
ATOM      8  C   UNL     1       4.119  -7.345  -0.787  0.00  0.00    +0.172 C 
ATOM      9  O   UNL     1       4.694  -8.332  -1.194  0.00  0.00    -0.292 OA
ATOM     10  C   UNL     1       4.602  -6.702   0.459  0.00  0.00    +0.091 C 
ATOM     11  C   UNL     1       3.687  -5.611   1.010  0.00  0.00    +0.099 C 
ATOM     12  C   UNL     1       4.656  -4.684   1.732  0.00  0.00    +0.225 C 
ATOM     13  O   UNL     1       4.351  -3.887   2.594  0.00  0.00    -0.275 OA
ATOM     14  N   UNL     1       5.904  -4.886   1.268  0.00  0.00    -0.267 N 
ATOM     15  C   UNL     1       5.929  -5.949   0.253  0.00  0.00    +0.126 C 
ATOM     16  O   UNL     1       0.677  -7.583  -4.343  0.00  0.00    -0.449 OA
ATOM     17  C   UNL     1      -0.567  -6.851  -4.363  0.00  0.00    +0.467 C 
ATOM     18  O   UNL     1      -0.244  -5.595  -3.731  0.00  0.00    -0.452 OA
ENDROOT
BRANCH   1  23
ATOM     19  C   UNL     1       0.762  -2.018   1.233  0.00  0.00    -0.047 A 
ATOM     20  C   UNL     1      -0.262  -2.726   1.833  0.00  0.00    +0.003 A 
ATOM     21  C   UNL     1      -0.243  -4.108   1.825  0.00  0.00    +0.001 A 
ATOM     22  C   UNL     1       0.800  -4.782   1.218  0.00  0.00    +0.004 A 
ATOM     23  C   UNL     1       1.824  -4.074   0.617  0.00  0.00    -0.039 A 
ATOM     24  C   UNL     1       1.803  -2.691   0.621  0.00  0.00    +0.008 A 
BRANCH  19  25
ATOM     25  C   UNL     1       0.742  -0.511   1.242  0.00  0.00    +0.035 C 
BRANCH  25  27
ATOM     26  C   UNL     1      -0.019   1.526   0.010  0.00  0.00    +0.004 C 
ATOM     27  C   UNL     1       0.002  -0.004   0.002  0.00  0.00    +0.001 C 
ENDBRANCH  25  27
ENDBRANCH  19  25
ENDBRANCH   1  23
BRANCH  14  28
ATOM     28  C   UNL     1       7.032  -4.172   1.692  0.00  0.00    +0.078 A 
ATOM     29  C   UNL     1       7.785  -4.634   2.762  0.00  0.00    +0.027 A 
ATOM     30  C   UNL     1       8.898  -3.929   3.179  0.00  0.00    +0.002 A 
ATOM     31  C   UNL     1       9.263  -2.762   2.533  0.00  0.00    +0.004 A 
ATOM     32  C   UNL     1       8.517  -2.295   1.466  0.00  0.00    +0.047 A 
ATOM     33  C   UNL     1       7.404  -3.000   1.038  0.00  0.00    +0.141 A 
BRANCH  33  34
ATOM     34  O   UNL     1       6.672  -2.545  -0.014  0.00  0.00    -0.493 OA
ATOM     35  C   UNL     1       7.113  -1.337  -0.636  0.00  0.00    +0.277 C 
ENDBRANCH  33  34
ENDBRANCH  14  28
BRANCH   6  36
ATOM     36  O   UNL     1       3.033  -8.778  -2.977  0.00  0.00    -0.503 OA
ATOM     37  H   UNL     1       3.736  -8.696  -3.636  0.00  0.00    +0.292 HD
ENDBRANCH   6  36
TORSDOF 6
