REMARK  Name = ZINC45119314
REMARK  5 active torsions:
REMARK  status: ('A' for Active; 'I' for Inactive)
REMARK    1  A    between atoms: C_1  and  C_2
REMARK    2  A    between atoms: C_2  and  C_20
REMARK    3  A    between atoms: C_4  and  N_6
REMARK    4  A    between atoms: C_7  and  C_9
REMARK    5  A    between atoms: C_15  and  C_17
REMARK                            x       y       z     vdW  Elec       q    Type
REMARK                         _______ _______ _______ _____ _____    ______ ____
ROOT
ATOM      1  N   UNL     1       1.300   0.135   2.205  0.00  0.00    -0.312 N 
ATOM      2  C   UNL     1       2.320  -0.335   2.950  0.00  0.00    +0.217 C 
ATOM      3  O   UNL     1       2.743  -1.456   2.760  0.00  0.00    -0.275 OA
ATOM      4  H   UNL     1       0.962   1.032   2.357  0.00  0.00    +0.149 HD
ENDROOT
BRANCH   2   5
ATOM      5  C   UNL     1       2.936   0.532   4.018  0.00  0.00    +0.089 C 
ATOM      6  C   UNL     1       3.499   1.804   3.380  0.00  0.00    +0.013 C 
ATOM      7  C   UNL     1       4.566   1.428   2.350  0.00  0.00    +0.001 C 
ATOM      8  C   UNL     1       5.695   0.661   3.042  0.00  0.00    +0.001 C 
ATOM      9  C   UNL     1       5.132  -0.610   3.679  0.00  0.00    +0.015 C 
ATOM     10  C   UNL     1       4.064  -0.235   4.709  0.00  0.00    +0.114 C 
BRANCH  10  11
ATOM     11  C   UNL     1       3.510  -1.488   5.337  0.00  0.00    +0.360 C 
ATOM     12  O   UNL     1       4.213  -2.477   5.448  0.00  0.00    -0.246 OA
ATOM     13  O   UNL     1       2.357  -1.511   5.734  0.00  0.00    -0.246 OA
ENDBRANCH  10  11
ENDBRANCH   2   5
BRANCH   1  17
ATOM     14  C   UNL     1      -0.019   1.526   0.010  0.00  0.00    +0.013 C 
ATOM     15  C   UNL     1       0.002  -0.004   0.002  0.00  0.00    -0.015 C 
ATOM     16  C   UNL     1      -0.825  -0.728   1.066  0.00  0.00    +0.031 C 
ATOM     17  C   UNL     1       0.701  -0.708   1.167  0.00  0.00    +0.079 C 
ATOM     18  C   UNL     1       0.102  -0.655  -1.379  0.00  0.00    +0.013 C 
ENDBRANCH   1  17
TORSDOF 3
