REMARK  Name = ZINC01337564
REMARK  12 active torsions:
REMARK  status: ('A' for Active; 'I' for Inactive)
REMARK    1  A    between atoms: C_1  and  C_2
REMARK    2  A    between atoms: C_2  and  O_3
REMARK    3  A    between atoms: O_3  and  C_4
REMARK    4  A    between atoms: C_9  and  N_10
REMARK    5  A    between atoms: N_10  and  C_11
REMARK    6  A    between atoms: C_11  and  C_13
REMARK    7  A    between atoms: C_11  and  C_19
REMARK    8  A    between atoms: C_16  and  C_18
REMARK    9  A    between atoms: N_21  and  C_22
REMARK   10  A    between atoms: C_25  and  C_27
REMARK   11  A    between atoms: C_27  and  N_28
REMARK   12  A    between atoms: C_30  and  C_33
REMARK                            x       y       z     vdW  Elec       q    Type
REMARK                         _______ _______ _______ _____ _____    ______ ____
ROOT
ATOM      1  N   UNL     1       2.170   4.871   1.674  0.00  0.00    -0.247 N 
ATOM      2  C   UNL     1       1.786   3.603   1.425  0.00  0.00    +0.244 C 
ATOM      3  O   UNL     1       1.568   2.844   2.345  0.00  0.00    -0.273 OA
ENDROOT
BRANCH   1   9
ATOM      4  C   UNL     1       1.238   5.883   3.665  0.00  0.00    +0.142 A 
ATOM      5  C   UNL     1       1.388   6.313   4.974  0.00  0.00    +0.047 A 
ATOM      6  C   UNL     1       2.609   6.183   5.609  0.00  0.00    +0.004 A 
ATOM      7  C   UNL     1       3.682   5.620   4.943  0.00  0.00    +0.002 A 
ATOM      8  C   UNL     1       3.539   5.184   3.639  0.00  0.00    +0.027 A 
ATOM      9  C   UNL     1       2.317   5.311   2.996  0.00  0.00    +0.079 A 
BRANCH   4  10
ATOM     10  O   UNL     1       0.039   6.016   3.038  0.00  0.00    -0.490 OA
BRANCH  10  12
ATOM     11  C   UNL     1      -2.283   6.675   2.921  0.00  0.00    +0.048 C 
ATOM     12  C   UNL     1      -1.023   6.611   3.786  0.00  0.00    +0.226 C 
ENDBRANCH  10  12
ENDBRANCH   4  10
ENDBRANCH   1   9
BRANCH   1  13
ATOM     13  C   UNL     1       2.434   5.788   0.562  0.00  0.00    +0.233 C 
BRANCH  13  14
ATOM     14  C   UNL     1       1.506   6.971   0.657  0.00  0.00    +0.135 A 
ATOM     15  C   UNL     1       0.895   7.577  -0.378  0.00  0.00    +0.047 A 
ATOM     16  C   UNL     1       0.123   8.631   0.163  0.00  0.00    +0.045 A 
ATOM     17  C   UNL     1       0.315   8.612   1.494  0.00  0.00    +0.102 A 
ATOM     18  O   UNL     1       1.154   7.605   1.787  0.00  0.00    -0.462 OA
ATOM     19  C   UNL     1      -0.305   9.560   2.487  0.00  0.00    +0.086 C 
ENDBRANCH  13  14
BRANCH  13  20
ATOM     20  C   UNL     1       3.862   6.263   0.631  0.00  0.00    +0.242 C 
ATOM     21  O   UNL     1       4.478   6.185   1.673  0.00  0.00    -0.273 OA
ATOM     22  N   UNL     1       4.457   6.773  -0.466  0.00  0.00    -0.311 N 
ATOM     23  H   UNL     1       3.965   6.835  -1.300  0.00  0.00    +0.149 HD
BRANCH  22  24
ATOM     24  C   UNL     1       5.845   7.234  -0.399  0.00  0.00    +0.073 C 
ATOM     25  C   UNL     1       6.181   8.564  -1.078  0.00  0.00    +0.024 C 
ATOM     26  C   UNL     1       6.649   7.247  -1.701  0.00  0.00    +0.024 C 
ENDBRANCH  22  24
ENDBRANCH  13  20
ENDBRANCH   1  13
BRANCH   2  27
ATOM     27  C   UNL     1       1.628   3.129   0.003  0.00  0.00    +0.264 C 
BRANCH  27  28
ATOM     28  N   UNL     1       1.206   1.726  -0.000  0.00  0.00    -0.154 N 
ATOM     29  N   UNL     1      -0.016   1.316   0.009  0.00  0.00    -0.129 NA
ATOM     30  C   UNL     1       0.002  -0.004   0.002  0.00  0.00    +0.211 A 
ATOM     31  N   UNL     1       1.293  -0.370  -0.012  0.00  0.00    -0.107 NA
ATOM     32  N   UNL     1       1.997   0.711  -0.013  0.00  0.00    -0.045 NA
BRANCH  30  33
ATOM     33  C   UNL     1      -1.172  -0.904   0.008  0.00  0.00    +0.060 A 
ATOM     34  C   UNL     1      -1.210  -2.272  -0.005  0.00  0.00    +0.019 A 
ATOM     35  C   UNL     1      -2.435  -2.901   0.008  0.00  0.00    +0.008 A 
ATOM     36  C   UNL     1      -3.565  -2.148   0.022  0.00  0.00    +0.046 A 
ATOM     37  S   UNL     1      -2.908  -0.489   0.025  0.00  0.00    -0.093 S 
ENDBRANCH  30  33
ENDBRANCH  27  28
ENDBRANCH   2  27
TORSDOF 10
