REMARK  Name = ZINC38958904
REMARK  10 active torsions:
REMARK  status: ('A' for Active; 'I' for Inactive)
REMARK    1  A    between atoms: C_1  and  C_2
REMARK    2  A    between atoms: C_8  and  C_25
REMARK    3  A    between atoms: C_10  and  C_24
REMARK    4  A    between atoms: N_12  and  C_13
REMARK    5  A    between atoms: C_13  and  C_14
REMARK    6  A    between atoms: C_14  and  O_15
REMARK    7  A    between atoms: O_15  and  C_16
REMARK    8  A    between atoms: C_20  and  O_22
REMARK    9  A    between atoms: O_22  and  C_23
REMARK   10  A    between atoms: N_26  and  N_27
REMARK                            x       y       z     vdW  Elec       q    Type
REMARK                         _______ _______ _______ _____ _____    ______ ____
ROOT
ATOM      1  C   UNL     1       0.888   1.504  -0.414  0.00  0.00    +0.044 C 
ATOM      2  C   UNL     1       0.678   0.014  -0.330  0.00  0.00    -0.050 A 
ATOM      3  C   UNL     1       0.742  -0.760  -1.474  0.00  0.00    +0.005 A 
ATOM      4  C   UNL     1       0.550  -2.123  -1.400  0.00  0.00    +0.024 A 
ATOM      5  C   UNL     1       0.291  -2.733  -0.171  0.00  0.00    +0.034 A 
ATOM      6  C   UNL     1       0.230  -1.947   0.970  0.00  0.00    -0.016 A 
ATOM      7  C   UNL     1       0.428  -0.582   0.892  0.00  0.00    +0.009 A 
ATOM      8  C   UNL     1      -0.061  -2.841   2.154  0.00  0.00    +0.084 C 
ATOM      9  C   UNL     1      -0.161  -4.254   1.556  0.00  0.00    +0.083 C 
ATOM     10  N   UNL     1       0.070  -4.080   0.120  0.00  0.00    -0.323 N 
ATOM     11  C   UNL     1       0.910  -5.164   2.162  0.00  0.00    +0.029 C 
ENDROOT
BRANCH   8  12
ATOM     12  C   UNL     1      -1.363  -2.449   2.803  0.00  0.00    +0.117 C 
ATOM     13  N   UNL     1      -1.386  -2.099   4.049  0.00  0.00    -0.159 NA
BRANCH  13  14
ATOM     14  N   UNL     1      -2.596  -1.734   4.653  0.00  0.00    -0.124 NA
ATOM     15  C   UNL     1      -2.619  -1.378   5.923  0.00  0.00    +0.193 A 
ATOM     16  N   UNL     1      -3.690  -0.997   6.689  0.00  0.00    -0.332 N 
ATOM     17  H   UNL     1      -4.578  -0.965   6.299  0.00  0.00    +0.168 HD
ATOM     18  C   UNL     1      -3.506  -0.657   8.018  0.00  0.00    +0.055 A 
ATOM     19  C   UNL     1      -4.486  -0.247   8.939  0.00  0.00    +0.027 A 
ATOM     20  C   UNL     1      -4.151   0.060  10.236  0.00  0.00    +0.002 A 
ATOM     21  C   UNL     1      -2.842  -0.024  10.679  0.00  0.00    +0.001 A 
ATOM     22  C   UNL     1      -1.856  -0.425   9.794  0.00  0.00    +0.017 A 
ATOM     23  C   UNL     1      -2.191  -0.733   8.497  0.00  0.00    +0.039 A 
ATOM     24  S   UNL     1      -1.265  -1.278   7.082  0.00  0.00    -0.048 S 
ENDBRANCH  13  14
ENDBRANCH   8  12
BRANCH  10  25
ATOM     25  C   UNL     1       0.070  -5.162  -0.868  0.00  0.00    +0.146 C 
BRANCH  25  26
ATOM     26  C   UNL     1      -1.366  -5.440  -1.319  0.00  0.00    +0.248 C 
BRANCH  26  27
ATOM     27  O   UNL     1      -1.875  -4.302  -2.017  0.00  0.00    -0.490 OA
BRANCH  27  28
ATOM     28  C   UNL     1      -3.147  -4.385  -2.487  0.00  0.00    +0.124 A 
ATOM     29  C   UNL     1      -3.892  -5.537  -2.276  0.00  0.00    +0.046 A 
ATOM     30  C   UNL     1      -5.185  -5.622  -2.754  0.00  0.00    +0.007 A 
ATOM     31  C   UNL     1      -5.740  -4.561  -3.444  0.00  0.00    +0.046 A 
ATOM     32  C   UNL     1      -5.000  -3.407  -3.658  0.00  0.00    +0.124 A 
ATOM     33  C   UNL     1      -3.704  -3.317  -3.173  0.00  0.00    +0.091 A 
BRANCH  32  34
ATOM     34  O   UNL     1      -5.546  -2.364  -4.336  0.00  0.00    -0.495 OA
ATOM     35  C   UNL     1      -6.888  -2.524  -4.801  0.00  0.00    +0.277 C 
ENDBRANCH  32  34
ENDBRANCH  27  28
ENDBRANCH  26  27
ENDBRANCH  25  26
ENDBRANCH  10  25
TORSDOF 7
