REMARK  Name = ZINC00262600
REMARK  8 active torsions:
REMARK  status: ('A' for Active; 'I' for Inactive)
REMARK    1  A    between atoms: C_1  and  C_2
REMARK    2  A    between atoms: C_2  and  C_3
REMARK    3  A    between atoms: C_3  and  N_4
REMARK    4  A    between atoms: N_7  and  C_15
REMARK    5  A    between atoms: C_8  and  C_13
REMARK    6  A    between atoms: C_8  and  O_14
REMARK    7  A    between atoms: C_10  and  C_11
REMARK    8  A    between atoms: C_10  and  C_12
REMARK                            x       y       z     vdW  Elec       q    Type
REMARK                         _______ _______ _______ _____ _____    ______ ____
ROOT
ATOM      1  N   UNL     1       0.181   5.415  -0.119  0.00  0.00    -0.280 N 
ATOM      2  C   UNL     1       0.497   4.126  -0.317  0.00  0.00    +0.312 C 
ATOM      3  O   UNL     1      -0.398   3.330  -0.518  0.00  0.00    -0.252 OA
ATOM      4  N   UNL     1       1.763   3.682  -0.300  0.00  0.00    -0.227 N 
ATOM      5  C   UNL     1       2.885   4.587  -0.044  0.00  0.00    +0.140 C 
ATOM      6  C   UNL     1       2.516   5.992  -0.541  0.00  0.00    +0.080 C 
ATOM      7  C   UNL     1       1.212   6.421   0.141  0.00  0.00    +0.037 C 
ATOM      8  C   UNL     1       0.762   7.771  -0.419  0.00  0.00    +0.031 C 
ATOM      9  C   UNL     1       1.439   6.543   1.649  0.00  0.00    +0.031 C 
ATOM     10  C   UNL     1       4.123   4.090  -0.792  0.00  0.00    +0.064 C 
ENDROOT
BRANCH   4  11
ATOM     11  C   UNL     1       2.016   2.324  -0.525  0.00  0.00    +0.040 A 
ATOM     12  C   UNL     1       2.151   1.454   0.548  0.00  0.00    +0.023 A 
ATOM     13  C   UNL     1       2.401   0.115   0.322  0.00  0.00    +0.002 A 
ATOM     14  C   UNL     1       2.517  -0.360  -0.972  0.00  0.00    +0.000 A 
ATOM     15  C   UNL     1       2.382   0.504  -2.043  0.00  0.00    +0.002 A 
ATOM     16  C   UNL     1       2.132   1.845  -1.823  0.00  0.00    +0.023 A 
ENDBRANCH   4  11
BRANCH   5  17
ATOM     17  O   UNL     1       3.156   4.628   1.358  0.00  0.00    -0.371 OA
ATOM     18  H   UNL     1       3.390   3.770   1.738  0.00  0.00    +0.212 HD
ENDBRANCH   5  17
BRANCH   1  19
ATOM     19  C   UNL     1      -1.225   5.824  -0.166  0.00  0.00    +0.109 C 
BRANCH  19  21
ATOM     20  C   UNL     1      -3.301   6.148   1.186  0.00  0.00    +0.005 C 
ATOM     21  C   UNL     1      -1.833   5.720   1.234  0.00  0.00    +0.016 C 
ENDBRANCH  19  21
ENDBRANCH   1  19
TORSDOF 4
