REMARK  Name = ZINC43746296
REMARK  4 active torsions:
REMARK  status: ('A' for Active; 'I' for Inactive)
REMARK    1  A    between atoms: C_1  and  O_2
REMARK    2  A    between atoms: O_2  and  C_3
REMARK    3  A    between atoms: C_8  and  C_9
REMARK    4  A    between atoms: C_9  and  C_11
REMARK                            x       y       z     vdW  Elec       q    Type
REMARK                         _______ _______ _______ _____ _____    ______ ____
ROOT
ATOM      1  C   UNL     1       0.145  -4.321  -0.265  0.00  0.00    +0.066 C 
ATOM      2  C   UNL     1      -1.034  -4.813  -1.122  0.00  0.00    -0.055 C 
ATOM      3  C   UNL     1      -0.607  -4.940  -2.591  0.00  0.00    -0.016 C 
ATOM      4  C   UNL     1      -0.812  -6.431  -2.940  0.00  0.00    -0.020 C 
ATOM      5  C   UNL     1      -0.726  -7.124  -1.559  0.00  0.00    -0.076 C 
ATOM      6  N   UNL     1      -1.397  -6.158  -0.621  0.00  0.00    +0.395 N 
ATOM      7  C   UNL     1      -0.819  -6.325   0.722  0.00  0.00    +0.060 C 
ATOM      8  C   UNL     1      -0.049  -5.055   1.071  0.00  0.00    +0.085 C 
ATOM      9  C   UNL     1      -0.790  -4.199   2.059  0.00  0.00    -0.011 A 
ATOM     10  C   UNL     1      -2.033  -3.604   2.053  0.00  0.00    +0.006 A 
ATOM     11  C   UNL     1      -2.446  -2.853   3.139  0.00  0.00    +0.000 A 
ATOM     12  C   UNL     1      -1.608  -2.701   4.229  0.00  0.00    +0.002 A 
ATOM     13  C   UNL     1      -0.363  -3.294   4.239  0.00  0.00    +0.023 A 
ATOM     14  C   UNL     1       0.061  -4.052   3.150  0.00  0.00    +0.038 A 
ATOM     15  N   UNL     1       1.256  -4.739   2.925  0.00  0.00    -0.285 N 
ATOM     16  C   UNL     1       1.272  -5.354   1.727  0.00  0.00    +0.228 C 
ATOM     17  O   UNL     1       2.175  -6.019   1.266  0.00  0.00    -0.275 OA
ATOM     18  C   UNL     1       0.078  -7.535   0.770  0.00  0.00    -0.025 A 
ATOM     19  C   UNL     1       1.225  -7.884   0.094  0.00  0.00    +0.024 A 
ATOM     20  C   UNL     1       1.842  -9.095   0.358  0.00  0.00    +0.041 A 
ATOM     21  C   UNL     1       1.302  -9.950   1.304  0.00  0.00    +0.022 A 
ATOM     22  C   UNL     1       0.153  -9.602   1.982  0.00  0.00    +0.025 A 
ATOM     23  C   UNL     1      -0.473  -8.385   1.722  0.00  0.00    +0.036 A 
ATOM     24  N   UNL     1      -1.625  -7.816   2.268  0.00  0.00    -0.286 N 
ATOM     25  C   UNL     1      -1.897  -6.610   1.737  0.00  0.00    +0.212 C 
ATOM     26  O   UNL     1      -2.830  -5.889   2.022  0.00  0.00    -0.277 OA
ATOM     27 CL   UNL     1       3.288  -9.540  -0.493  0.00  0.00    -0.084 Cl
ATOM     28  H   UNL     1       1.990  -4.770   3.559  0.00  0.00    +0.155 HD
ATOM     29  H   UNL     1      -2.167  -8.241   2.951  0.00  0.00    +0.155 HD
ATOM     30  H   UNL     1      -2.399  -6.284  -0.616  0.00  0.00    -0.079 HD
ENDROOT
BRANCH   1  31
ATOM     31  C   UNL     1       0.071  -2.829  -0.066  0.00  0.00    +0.169 C 
ATOM     32  O   UNL     1      -0.987  -2.251  -0.205  0.00  0.00    -0.292 OA
BRANCH  31  38
ATOM     33  C   UNL     1       1.193  -0.705   0.591  0.00  0.00    +0.131 A 
ATOM     34  C   UNL     1       2.340  -0.006   0.937  0.00  0.00    +0.046 A 
ATOM     35  C   UNL     1       3.558  -0.653   0.986  0.00  0.00    +0.004 A 
ATOM     36  C   UNL     1       3.647  -2.005   0.690  0.00  0.00    +0.001 A 
ATOM     37  C   UNL     1       2.521  -2.717   0.344  0.00  0.00    +0.015 A 
ATOM     38  C   UNL     1       1.277  -2.075   0.296  0.00  0.00    +0.059 A 
BRANCH  33  40
ATOM     39  C   UNL     1      -0.011   1.325   0.854  0.00  0.00    +0.277 C 
ATOM     40  O   UNL     1      -0.004  -0.070   0.542  0.00  0.00    -0.494 OA
ENDBRANCH  33  40
ENDBRANCH  31  38
ENDBRANCH   1  31
TORSDOF 3
