REMARK  Name = ZINC36305057
REMARK  15 active torsions:
REMARK  status: ('A' for Active; 'I' for Inactive)
REMARK    1  A    between atoms: C_1  and  N_2
REMARK    2  A    between atoms: C_3  and  O_28
REMARK    3  A    between atoms: C_4  and  C_13
REMARK    4  A    between atoms: C_5  and  C_7
REMARK    5  A    between atoms: C_13  and  N_14
REMARK    6  A    between atoms: N_14  and  C_15
REMARK    7  A    between atoms: N_14  and  C_19
REMARK    8  A    between atoms: C_15  and  C_16
REMARK    9  A    between atoms: C_19  and  C_20
REMARK   10  A    between atoms: C_20  and  C_22
REMARK   11  A    between atoms: C_20  and  O_27
REMARK   12  A    between atoms: C_22  and  O_23
REMARK   13  A    between atoms: O_23  and  C_24
REMARK   14  A    between atoms: C_24  and  C_25
REMARK   15  A    between atoms: O_28  and  C_29
REMARK                            x       y       z     vdW  Elec       q    Type
REMARK                         _______ _______ _______ _____ _____    ______ ____
ROOT
ATOM      1  C   UNL     1       2.798   0.324   0.024  0.00  0.00    +0.176 C 
ATOM      2  N   UNL     1       2.000  -0.796   0.529  0.00  0.00    -0.235 N 
ATOM      3  C   UNL     1       1.020  -1.447  -0.149  0.00  0.00    +0.221 A 
ATOM      4  C   UNL     1       0.528  -2.417   0.663  0.00  0.00    +0.025 A 
ATOM      5  C   UNL     1       1.234  -2.357   1.880  0.00  0.00    +0.098 A 
ATOM      6  N   UNL     1       2.119  -1.388   1.793  0.00  0.00    -0.168 NA
ENDROOT
BRANCH   5   7
ATOM      7  C   UNL     1       1.020  -3.238   3.055  0.00  0.00    +0.002 A 
ATOM      8  C   UNL     1      -0.274  -3.542   3.475  0.00  0.00    +0.010 A 
ATOM      9  C   UNL     1      -0.467  -4.362   4.568  0.00  0.00    +0.001 A 
ATOM     10  C   UNL     1       0.621  -4.882   5.247  0.00  0.00    +0.000 A 
ATOM     11  C   UNL     1       1.907  -4.584   4.834  0.00  0.00    +0.001 A 
ATOM     12  C   UNL     1       2.111  -3.769   3.739  0.00  0.00    +0.010 A 
ENDBRANCH   5   7
BRANCH   4  13
ATOM     13  C   UNL     1      -0.576  -3.385   0.324  0.00  0.00    -0.035 C 
BRANCH  13  14
ATOM     14  N   UNL     1      -0.007  -4.723   0.115  0.00  0.00    +0.384 N 
ATOM     15  H   UNL     1       0.574  -4.968   0.903  0.00  0.00    -0.081 HD
BRANCH  14  16
ATOM     16  C   UNL     1       0.803  -4.725  -1.110  0.00  0.00    -0.075 C 
BRANCH  16  17
ATOM     17  C   UNL     1      -0.105  -4.510  -2.322  0.00  0.00    -0.028 C 
ATOM     18  C   UNL     1       0.123  -3.252  -3.162  0.00  0.00    +0.002 C 
ATOM     19  C   UNL     1       0.530  -4.621  -3.710  0.00  0.00    +0.002 C 
ENDBRANCH  16  17
ENDBRANCH  14  16
BRANCH  14  20
ATOM     20  C   UNL     1      -1.094  -5.702  -0.015  0.00  0.00    -0.044 C 
BRANCH  20  21
ATOM     21  C   UNL     1      -0.505  -7.113  -0.070  0.00  0.00    +0.124 C 
BRANCH  21  22
ATOM     22  O   UNL     1       0.192  -7.290  -1.305  0.00  0.00    -0.391 OA
ATOM     23  H   UNL     1      -0.363  -7.181  -2.090  0.00  0.00    +0.210 HD
ENDBRANCH  21  22
BRANCH  21  24
ATOM     24  C   UNL     1      -1.634  -8.141   0.029  0.00  0.00    +0.189 C 
BRANCH  24  25
ATOM     25  O   UNL     1      -1.077  -9.456   0.095  0.00  0.00    -0.373 OA
BRANCH  25  26
ATOM     26  C   UNL     1      -2.052 -10.496   0.191  0.00  0.00    +0.186 C 
BRANCH  26  27
ATOM     27  C   UNL     1      -1.357 -11.832   0.253  0.00  0.00    -0.007 C 
ATOM     28  C   UNL     1      -1.741 -12.730   1.125  0.00  0.00    +0.006 C 
ENDBRANCH  26  27
ENDBRANCH  25  26
ENDBRANCH  24  25
ENDBRANCH  21  24
ENDBRANCH  20  21
ENDBRANCH  14  20
ENDBRANCH  13  14
ENDBRANCH   4  13
BRANCH   3  29
ATOM     29  O   UNL     1       0.605  -1.175  -1.412  0.00  0.00    -0.437 OA
BRANCH  29  30
ATOM     30  C   UNL     1      -0.413  -0.288  -1.573  0.00  0.00    +0.149 A 
ATOM     31  C   UNL     1      -1.058   0.237  -0.463  0.00  0.00    +0.048 A 
ATOM     32  C   UNL     1      -2.092   1.139  -0.628  0.00  0.00    +0.004 A 
ATOM     33  C   UNL     1      -2.484   1.518  -1.899  0.00  0.00    +0.002 A 
ATOM     34  C   UNL     1      -1.843   0.997  -3.007  0.00  0.00    +0.024 A 
ATOM     35  C   UNL     1      -0.804   0.099  -2.848  0.00  0.00    +0.083 A 
ATOM     36 CL   UNL     1       0.006  -0.550  -4.239  0.00  0.00    -0.080 Cl
ENDBRANCH  29  30
ENDBRANCH   3  29
TORSDOF 14
