REMARK  Name = ZINC18324510
REMARK  11 active torsions:
REMARK  status: ('A' for Active; 'I' for Inactive)
REMARK    1  A    between atoms: C_1  and  C_2
REMARK    2  A    between atoms: C_7  and  C_8
REMARK    3  A    between atoms: C_12  and  C_15
REMARK    4  A    between atoms: C_17  and  O_25
REMARK    5  A    between atoms: C_18  and  O_23
REMARK    6  A    between atoms: C_19  and  O_21
REMARK    7  A    between atoms: O_21  and  C_22
REMARK    8  A    between atoms: O_23  and  C_24
REMARK    9  A    between atoms: O_25  and  C_26
REMARK   10  A    between atoms: C_30  and  C_32
REMARK   11  A    between atoms: C_30  and  C_33
REMARK                            x       y       z     vdW  Elec       q    Type
REMARK                         _______ _______ _______ _____ _____    ______ ____
ROOT
ATOM      1  C   UNL     1      -5.157   3.739  -1.779  0.00  0.00    +0.044 C 
ATOM      2  C   UNL     1      -4.453   4.456  -0.656  0.00  0.00    -0.046 A 
ATOM      3  C   UNL     1      -3.174   4.950  -0.850  0.00  0.00    +0.028 A 
ATOM      4  C   UNL     1      -2.535   5.611   0.186  0.00  0.00    +0.050 A 
ATOM      5  C   UNL     1      -3.189   5.804   1.395  0.00  0.00    +0.053 A 
ATOM      6  C   UNL     1      -4.458   5.292   1.594  0.00  0.00    +0.028 A 
ATOM      7  C   UNL     1      -5.088   4.617   0.562  0.00  0.00    -0.046 A 
ATOM      8  C   UNL     1      -6.471   4.055   0.766  0.00  0.00    +0.044 C 
ATOM      9  N   UNL     1      -2.544   6.582   2.350  0.00  0.00    -0.316 N 
ATOM     10  C   UNL     1      -1.380   6.248   2.962  0.00  0.00    +0.017 C 
ATOM     11  C   UNL     1      -0.285   5.789   2.334  0.00  0.00    +0.036 C 
ATOM     12  C   UNL     1      -0.152   5.542   0.850  0.00  0.00    +0.136 C 
ATOM     13  N   UNL     1      -1.232   6.085   0.053  0.00  0.00    -0.331 N 
ATOM     14  C   UNL     1       0.887   5.494   3.069  0.00  0.00    +0.163 C 
ATOM     15  O   UNL     1       1.859   5.068   2.476  0.00  0.00    -0.292 OA
ATOM     16  C   UNL     1       0.975   5.687   4.553  0.00  0.00    +0.086 C 
ATOM     17  C   UNL     1       0.008   6.806   4.959  0.00  0.00    -0.023 C 
ATOM     18  C   UNL     1      -1.387   6.414   4.473  0.00  0.00    +0.058 C 
ATOM     19  C   UNL     1       0.434   8.122   4.305  0.00  0.00    +0.011 C 
ATOM     20  C   UNL     1       0.002   6.962   6.481  0.00  0.00    +0.011 C 
ATOM     21  H   UNL     1      -2.957   7.425   2.597  0.00  0.00    +0.152 HD
ATOM     22  H   UNL     1      -1.044   6.793  -0.584  0.00  0.00    +0.147 HD
ENDROOT
BRANCH  12  23
ATOM     23  C   UNL     1      -0.089   4.054   0.618  0.00  0.00    -0.016 A 
ATOM     24  C   UNL     1      -1.165   3.256   0.961  0.00  0.00    +0.055 A 
ATOM     25  C   UNL     1      -1.111   1.887   0.748  0.00  0.00    +0.165 A 
ATOM     26  C   UNL     1       0.026   1.317   0.189  0.00  0.00    +0.204 A 
ATOM     27  C   UNL     1       1.108   2.121  -0.148  0.00  0.00    +0.165 A 
ATOM     28  C   UNL     1       1.044   3.490   0.062  0.00  0.00    +0.055 A 
BRANCH  27  29
ATOM     29  O   UNL     1       2.226   1.567  -0.689  0.00  0.00    -0.491 OA
ATOM     30  C   UNL     1       3.337   2.437  -0.915  0.00  0.00    +0.277 C 
ENDBRANCH  27  29
BRANCH  26  31
ATOM     31  O   UNL     1       0.083  -0.026  -0.021  0.00  0.00    -0.488 OA
ATOM     32  C   UNL     1      -0.380  -0.505  -1.285  0.00  0.00    +0.277 C 
ENDBRANCH  26  31
BRANCH  25  33
ATOM     33  O   UNL     1      -2.171   1.104   1.085  0.00  0.00    -0.491 OA
ATOM     34  C   UNL     1      -3.307   1.758   1.654  0.00  0.00    +0.277 C 
ENDBRANCH  25  33
ENDBRANCH  12  23
TORSDOF 4
