REMARK  Name = ZINC39509686
REMARK  6 active torsions:
REMARK  status: ('A' for Active; 'I' for Inactive)
REMARK    1  A    between atoms: C_1  and  S_2
REMARK    2  A    between atoms: S_2  and  N_3
REMARK    3  A    between atoms: C_7  and  C_22
REMARK    4  A    between atoms: C_12  and  C_15
REMARK    5  A    between atoms: C_15  and  C_16
REMARK    6  A    between atoms: C_22  and  C_23
REMARK                            x       y       z     vdW  Elec       q    Type
REMARK                         _______ _______ _______ _____ _____    ______ ____
ROOT
ATOM      1  N   UNL     1      -1.714  -0.460  -0.096  0.00  0.00    +0.397 N 
ATOM      2  C   UNL     1      -2.440   0.007  -1.283  0.00  0.00    -0.062 C 
ATOM      3  C   UNL     1      -3.929  -0.315  -1.135  0.00  0.00    -0.017 C 
ATOM      4  C   UNL     1      -4.107  -1.830  -0.999  0.00  0.00    +0.001 C 
ATOM      5  C   UNL     1      -3.291  -2.324   0.200  0.00  0.00    -0.016 C 
ATOM      6  C   UNL     1      -1.830  -1.916   0.020  0.00  0.00    -0.050 C 
ATOM      7  C   UNL     1      -1.249  -2.591  -1.232  0.00  0.00    -0.010 C 
ATOM      8  C   UNL     1      -0.083  -3.479  -0.750  0.00  0.00    +0.002 C 
ATOM      9  C   UNL     1       0.350  -2.842   0.595  0.00  0.00    -0.008 C 
ATOM     10  C   UNL     1      -1.001  -2.411   1.220  0.00  0.00    -0.006 C 
ATOM     11  H   UNL     1      -2.106  -0.027   0.727  0.00  0.00    -0.064 HD
ENDROOT
BRANCH   1  13
ATOM     12  C   UNL     1      -0.027   1.796  -0.217  0.00  0.00    +0.063 C 
ATOM     13  S   UNL     1      -0.012  -0.018  -0.238  0.00  0.00    -0.226 S 
ENDBRANCH   1  13
BRANCH   9  14
ATOM     14  C   UNL     1       1.058  -3.870   1.479  0.00  0.00    +0.038 C 
BRANCH  14  15
ATOM     15  C   UNL     1       2.364  -4.268   0.841  0.00  0.00    -0.047 A 
ATOM     16  C   UNL     1       2.406  -5.332  -0.041  0.00  0.00    +0.003 A 
ATOM     17  C   UNL     1       3.604  -5.696  -0.626  0.00  0.00    +0.000 A 
ATOM     18  C   UNL     1       4.759  -4.997  -0.331  0.00  0.00    +0.000 A 
ATOM     19  C   UNL     1       4.716  -3.932   0.550  0.00  0.00    +0.000 A 
ATOM     20  C   UNL     1       3.518  -3.565   1.133  0.00  0.00    +0.003 A 
ENDBRANCH  14  15
ENDBRANCH   9  14
BRANCH   5  21
ATOM     21  C   UNL     1      -3.389  -3.848   0.292  0.00  0.00    +0.037 C 
BRANCH  21  22
ATOM     22  C   UNL     1      -4.809  -4.242   0.604  0.00  0.00    -0.047 A 
ATOM     23  C   UNL     1      -5.220  -4.362   1.919  0.00  0.00    +0.003 A 
ATOM     24  C   UNL     1      -6.524  -4.724   2.205  0.00  0.00    +0.000 A 
ATOM     25  C   UNL     1      -7.416  -4.965   1.177  0.00  0.00    +0.000 A 
ATOM     26  C   UNL     1      -7.005  -4.844  -0.138  0.00  0.00    +0.000 A 
ATOM     27  C   UNL     1      -5.703  -4.478  -0.424  0.00  0.00    +0.003 A 
ENDBRANCH  21  22
ENDBRANCH   5  21
TORSDOF 5
