REMARK  Name = ZINC40306710
REMARK  4 active torsions:
REMARK  status: ('A' for Active; 'I' for Inactive)
REMARK    1  A    between atoms: C_3  and  C_9
REMARK    2  A    between atoms: C_4  and  N_8
REMARK    3  A    between atoms: C_6  and  N_7
REMARK    4  A    between atoms: C_15  and  C_18
REMARK                            x       y       z     vdW  Elec       q    Type
REMARK                         _______ _______ _______ _____ _____    ______ ____
ROOT
ATOM      1  C   UNL     1       0.279   0.853  -1.069  0.00  0.00    +0.023 A 
ATOM      2  C   UNL     1       1.439   1.572  -1.081  0.00  0.00    +0.017 A 
ATOM      3  C   UNL     1       2.369   1.420  -0.047  0.00  0.00    +0.058 A 
ATOM      4  C   UNL     1       2.104   0.524   1.003  0.00  0.00    +0.039 A 
ATOM      5  C   UNL     1       0.923  -0.201   1.004  0.00  0.00    +0.046 A 
ATOM      6  C   UNL     1       0.011  -0.037  -0.030  0.00  0.00    +0.026 A 
ENDROOT
BRANCH   3   7
ATOM      7  C   UNL     1       3.620   2.194  -0.060  0.00  0.00    +0.248 C 
ATOM      8  O   UNL     1       4.690   1.623   0.030  0.00  0.00    -0.270 OA
ATOM      9  N   UNL     1       3.581   3.537  -0.171  0.00  0.00    -0.297 N 
ATOM     10  C   UNL     1       2.298   4.252  -0.148  0.00  0.00    +0.108 C 
ATOM     11  C   UNL     1       2.358   5.339   0.930  0.00  0.00    +0.020 C 
ATOM     12  C   UNL     1       3.573   6.235   0.678  0.00  0.00    +0.015 C 
ATOM     13  C   UNL     1       4.852   5.398   0.763  0.00  0.00    +0.110 C 
ATOM     14  C   UNL     1       4.820   4.313  -0.311  0.00  0.00    +0.120 C 
BRANCH  13  15
ATOM     15  C   UNL     1       6.068   6.301   0.545  0.00  0.00    +0.394 C 
ATOM     16  F   UNL     1       6.094   7.294   1.530  0.00  0.00    -0.170 F 
ATOM     17  F   UNL     1       7.237   5.536   0.623  0.00  0.00    -0.170 F 
ATOM     18  F   UNL     1       5.984   6.898  -0.718  0.00  0.00    -0.170 F 
ENDBRANCH  13  15
ENDBRANCH   3   7
BRANCH   6  19
ATOM     19  N   UNL     1      -1.175  -0.764  -0.030  0.00  0.00    -0.358 N 
ATOM     20  H   UNL     1      -1.813  -0.651  -0.751  0.00  0.00    +0.142 HD
ATOM     21  H   UNL     1      -1.363  -1.384   0.692  0.00  0.00    +0.142 HD
ENDBRANCH   6  19
BRANCH   4  22
ATOM     22  N   UNL     1       3.022   0.365   2.034  0.00  0.00    -0.357 N 
ATOM     23  H   UNL     1       3.813   0.925   2.070  0.00  0.00    +0.142 HD
ATOM     24  H   UNL     1       2.871  -0.306   2.718  0.00  0.00    +0.142 HD
ENDBRANCH   4  22
TORSDOF 4
