REMARK  Name = ZINC38942529
REMARK  6 active torsions:
REMARK  status: ('A' for Active; 'I' for Inactive)
REMARK    1  A    between atoms: C_1  and  N_2
REMARK    2  A    between atoms: C_10  and  C_12
REMARK    3  A    between atoms: C_12  and  C_14
REMARK    4  A    between atoms: C_12  and  N_29
REMARK    5  A    between atoms: C_14  and  N_15
REMARK    6  A    between atoms: C_16  and  C_18
REMARK                            x       y       z     vdW  Elec       q    Type
REMARK                         _______ _______ _______ _____ _____    ______ ____
ROOT
ATOM      1  C   UNL     1       4.927  -2.746  -0.486  0.00  0.00    -0.020 C 
ENDROOT
BRANCH   1  11
ATOM      2  C   UNL     1       0.100   1.470   0.744  0.00  0.00    +0.129 C 
ATOM      3  N   UNL     1       0.079   0.022   0.519  0.00  0.00    -0.333 N 
ATOM      4  C   UNL     1      -1.189  -0.719   0.544  0.00  0.00    +0.105 C 
ATOM      5  C   UNL     1      -0.969  -1.997   1.364  0.00  0.00    +0.024 C 
ATOM      6  C   UNL     1       0.068  -2.866   0.655  0.00  0.00    +0.038 C 
ATOM      7  C   UNL     1       1.301  -2.062   0.335  0.00  0.00    -0.026 A 
ATOM      8  C   UNL     1       1.266  -0.676   0.271  0.00  0.00    +0.033 A 
ATOM      9  C   UNL     1       2.420   0.037  -0.037  0.00  0.00    +0.023 A 
ATOM     10  C   UNL     1       3.602  -0.634  -0.282  0.00  0.00    +0.004 A 
ATOM     11  C   UNL     1       3.636  -2.014  -0.220  0.00  0.00    -0.059 A 
ATOM     12  C   UNL     1       2.491  -2.727   0.096  0.00  0.00    +0.007 A 
ENDBRANCH   1  11
BRANCH   1  13
ATOM     13  N   UNL     1       6.041  -2.014   0.132  0.00  0.00    +0.385 N 
ATOM     14  C   UNL     1       5.839  -1.918   1.600  0.00  0.00    -0.078 C 
ATOM     15  C   UNL     1       7.269  -1.665   2.139  0.00  0.00    -0.020 C 
ATOM     16  C   UNL     1       8.146  -2.544   1.218  0.00  0.00    -0.020 C 
ATOM     17  C   UNL     1       7.305  -2.759  -0.054  0.00  0.00    -0.078 C 
ATOM     18  H   UNL     1       6.118  -1.092  -0.271  0.00  0.00    -0.081 HD
ENDBRANCH   1  13
BRANCH   1  19
ATOM     19  C   UNL     1       5.156  -2.845  -1.996  0.00  0.00    +0.094 C 
BRANCH  19  20
ATOM     20  N   UNL     1       4.115  -3.685  -2.594  0.00  0.00    -0.310 N 
ATOM     21  C   UNL     1       4.050  -3.827  -3.932  0.00  0.00    +0.279 C 
ATOM     22  O   UNL     1       4.855  -3.257  -4.643  0.00  0.00    -0.267 OA
ATOM     23  H   UNL     1       3.473  -4.139  -2.026  0.00  0.00    +0.149 HD
BRANCH  21  24
ATOM     24  C   UNL     1       2.998  -4.677  -4.537  0.00  0.00    +0.193 A 
ATOM     25  C   UNL     1       2.962  -4.804  -5.886  0.00  0.00    +0.103 A 
ATOM     26  C   UNL     1       1.902  -5.637  -6.480  0.00  0.00    +0.193 A 
ATOM     27  O   UNL     1       1.930  -5.983  -7.647  0.00  0.00    -0.287 OA
ATOM     28  C   UNL     1       0.803  -6.029  -5.574  0.00  0.00    +0.064 A 
ATOM     29  C   UNL     1      -0.376  -6.592  -6.059  0.00  0.00    +0.015 A 
ATOM     30  C   UNL     1      -1.371  -6.934  -5.185  0.00  0.00    +0.001 A 
ATOM     31  C   UNL     1      -1.211  -6.723  -3.823  0.00  0.00    +0.004 A 
ATOM     32  C   UNL     1      -0.051  -6.170  -3.325  0.00  0.00    +0.047 A 
ATOM     33  C   UNL     1       0.976  -5.816  -4.195  0.00  0.00    +0.139 A 
ATOM     34  O   UNL     1       2.125  -5.292  -3.727  0.00  0.00    -0.450 OA
ENDBRANCH  21  24
ENDBRANCH  19  20
ENDBRANCH   1  19
TORSDOF 5
