REMARK  Name = ZINC35246796
REMARK  10 active torsions:
REMARK  status: ('A' for Active; 'I' for Inactive)
REMARK    1  A    between atoms: C_1  and  C_2
REMARK    2  A    between atoms: C_7  and  C_9
REMARK    3  A    between atoms: C_7  and  C_10
REMARK    4  A    between atoms: C_13  and  C_15
REMARK    5  A    between atoms: C_18  and  C_20
REMARK    6  A    between atoms: C_20  and  N_21
REMARK    7  A    between atoms: N_21  and  C_22
REMARK    8  A    between atoms: N_21  and  C_29
REMARK    9  A    between atoms: C_22  and  C_23
REMARK   10  A    between atoms: C_29  and  C_30
REMARK                            x       y       z     vdW  Elec       q    Type
REMARK                         _______ _______ _______ _____ _____    ______ ____
ROOT
ATOM      1  C   UNL     1       3.338  -0.666  -4.604  0.00  0.00    -0.002 C 
ENDROOT
BRANCH   1   5
ATOM      2  C   UNL     1       0.120  -1.702  -3.221  0.00  0.00    +0.190 A 
ATOM      3  C   UNL     1       0.242  -2.624  -4.221  0.00  0.00    +0.055 A 
ATOM      4  C   UNL     1       1.459  -2.359  -4.868  0.00  0.00    +0.043 A 
ATOM      5  C   UNL     1       2.019  -1.300  -4.244  0.00  0.00    +0.090 A 
ATOM      6  O   UNL     1       1.207  -0.904  -3.255  0.00  0.00    -0.457 OA
BRANCH   2  18
ATOM      7  C   UNL     1       0.090   2.689  -0.029  0.00  0.00    +0.013 C 
ATOM      8  C   UNL     1      -0.377   1.229   0.075  0.00  0.00    -0.014 C 
ATOM      9  C   UNL     1      -1.924   1.100   0.043  0.00  0.00    +0.030 C 
ATOM     10  C   UNL     1      -2.050  -0.399  -0.329  0.00  0.00    +0.078 C 
ATOM     11  C   UNL     1      -1.725  -1.206   0.926  0.00  0.00    +0.029 C 
ATOM     12  C   UNL     1      -0.369  -0.884   1.529  0.00  0.00    -0.033 C 
ATOM     13  C   UNL     1       0.111   0.544   1.351  0.00  0.00    +0.014 C 
ATOM     14  C   UNL     1      -0.474  -1.145   3.053  0.00  0.00    +0.011 C 
ATOM     15  C   UNL     1       0.683  -1.865   0.994  0.00  0.00    +0.011 C 
ATOM     16  N   UNL     1      -0.998  -0.629  -1.339  0.00  0.00    -0.291 N 
ATOM     17  C   UNL     1       0.048   0.388  -1.149  0.00  0.00    +0.115 C 
ATOM     18  C   UNL     1      -0.999  -1.594  -2.280  0.00  0.00    +0.282 C 
ATOM     19  O   UNL     1      -1.929  -2.377  -2.348  0.00  0.00    -0.267 OA
ENDBRANCH   2  18
ENDBRANCH   1   5
BRANCH   1  20
ATOM     20  N   UNL     1       3.116   0.398  -5.592  0.00  0.00    +0.390 N 
ATOM     21  H   UNL     1       2.621   0.021  -6.386  0.00  0.00    -0.080 HD
BRANCH  20  22
ATOM     22  C   UNL     1       2.321   1.473  -4.984  0.00  0.00    -0.042 C 
BRANCH  22  23
ATOM     23  C   UNL     1       1.969   2.493  -6.036  0.00  0.00    -0.064 A 
ATOM     24  C   UNL     1       2.746   3.626  -6.188  0.00  0.00    +0.002 A 
ATOM     25  C   UNL     1       2.423   4.562  -7.153  0.00  0.00    +0.000 A 
ATOM     26  C   UNL     1       1.323   4.364  -7.966  0.00  0.00    +0.000 A 
ATOM     27  C   UNL     1       0.546   3.231  -7.815  0.00  0.00    +0.000 A 
ATOM     28  C   UNL     1       0.872   2.293  -6.853  0.00  0.00    +0.002 A 
ENDBRANCH  22  23
ENDBRANCH  20  22
BRANCH  20  29
ATOM     29  C   UNL     1       4.411   0.935  -6.032  0.00  0.00    -0.042 C 
BRANCH  29  30
ATOM     30  C   UNL     1       5.174  -0.135  -6.771  0.00  0.00    -0.060 A 
ATOM     31  C   UNL     1       6.092  -0.917  -6.097  0.00  0.00    +0.005 A 
ATOM     32  C   UNL     1       6.794  -1.900  -6.770  0.00  0.00    +0.050 A 
ATOM     33  C   UNL     1       6.578  -2.102  -8.123  0.00  0.00    +0.166 A 
ATOM     34  C   UNL     1       5.653  -1.314  -8.803  0.00  0.00    +0.166 A 
ATOM     35  C   UNL     1       4.949  -0.335  -8.120  0.00  0.00    +0.051 A 
ATOM     36  O   UNL     1       5.623  -1.704 -10.110  0.00  0.00    -0.453 OA
ATOM     37  C   UNL     1       6.831  -2.462 -10.313  0.00  0.00    +0.466 C 
ATOM     38  O   UNL     1       7.128  -2.987  -9.005  0.00  0.00    -0.453 OA
ENDBRANCH  29  30
ENDBRANCH  20  29
ENDBRANCH   1  20
TORSDOF 7
