REMARK  Name = ZINC10003069
REMARK  8 active torsions:
REMARK  status: ('A' for Active; 'I' for Inactive)
REMARK    1  A    between atoms: C_4  and  C_7
REMARK    2  A    between atoms: C_7  and  C_8
REMARK    3  A    between atoms: C_7  and  C_14
REMARK    4  A    between atoms: C_7  and  O_35
REMARK    5  A    between atoms: C_19  and  C_20
REMARK    6  A    between atoms: C_19  and  N_65
REMARK    7  A    between atoms: N_24  and  C_25
REMARK    8  A    between atoms: C_30  and  C_31
REMARK                            x       y       z     vdW  Elec       q    Type
REMARK                         _______ _______ _______ _____ _____    ______ ____
ROOT
ATOM      1  C   UNL     1      -3.687   1.817   2.351  0.00  0.00    +0.026 C 
ATOM      2  C   UNL     1      -3.541   2.743   3.562  0.00  0.00    -0.012 C 
ATOM      3  C   UNL     1      -2.056   3.016   3.813  0.00  0.00    -0.078 C 
ATOM      4  C   UNL     1      -1.550   2.751   1.458  0.00  0.00    -0.078 C 
ATOM      5  C   UNL     1      -3.020   2.470   1.137  0.00  0.00    -0.012 C 
ATOM      6  N   UNL     1      -1.479   3.666   2.618  0.00  0.00    +0.383 N 
ATOM      7  H   UNL     1      -2.019   4.514   2.407  0.00  0.00    -0.081 HD
ENDROOT
BRANCH   1   8
ATOM      8  C   UNL     1      -5.171   1.588   2.059  0.00  0.00    +0.119 C 
BRANCH   8  12
ATOM      9  C   UNL     1      -5.574  -0.993  -1.321  0.00  0.00    +0.000 A 
ATOM     10  C   UNL     1      -6.544  -0.043  -1.057  0.00  0.00    +0.000 A 
ATOM     11  C   UNL     1      -6.413   0.792   0.037  0.00  0.00    +0.007 A 
ATOM     12  C   UNL     1      -5.314   0.677   0.867  0.00  0.00    -0.011 A 
ATOM     13  C   UNL     1      -4.342  -0.269   0.600  0.00  0.00    +0.007 A 
ATOM     14  C   UNL     1      -4.475  -1.107  -0.492  0.00  0.00    +0.000 A 
ENDBRANCH   8  12
BRANCH   8  15
ATOM     15  C   UNL     1      -5.827   0.952   3.258  0.00  0.00    -0.011 A 
ATOM     16  C   UNL     1      -5.095   0.123   4.087  0.00  0.00    +0.007 A 
ATOM     17  C   UNL     1      -5.695  -0.456   5.189  0.00  0.00    +0.000 A 
ATOM     18  C   UNL     1      -7.029  -0.215   5.457  0.00  0.00    +0.000 A 
ATOM     19  C   UNL     1      -7.763   0.610   4.624  0.00  0.00    +0.000 A 
ATOM     20  C   UNL     1      -7.162   1.193   3.525  0.00  0.00    +0.007 A 
ENDBRANCH   8  15
BRANCH   8  21
ATOM     21  O   UNL     1      -5.801   2.840   1.780  0.00  0.00    -0.379 OA
ATOM     22  H   UNL     1      -5.429   3.306   1.019  0.00  0.00    +0.211 HD
ENDBRANCH   8  21
ENDBRANCH   1   8
BRANCH   6  23
ATOM     23  C   UNL     1      -0.075   4.044   2.877  0.00  0.00    -0.024 C 
BRANCH  23  24
ATOM     24  C   UNL     1       0.533   4.579   1.606  0.00  0.00    +0.007 A 
ATOM     25  C   UNL     1       1.279   3.877   0.729  0.00  0.00    +0.021 A 
ATOM     26  C   UNL     1       1.648   4.755  -0.310  0.00  0.00    +0.020 A 
ATOM     27  C   UNL     1       1.109   5.960  -0.033  0.00  0.00    +0.091 A 
ATOM     28  N   UNL     1       0.420   5.859   1.142  0.00  0.00    -0.321 N 
BRANCH  28  29
ATOM     29  C   UNL     1      -0.282   6.897   1.770  0.00  0.00    +0.058 A 
ATOM     30  C   UNL     1      -1.669   6.931   1.717  0.00  0.00    +0.027 A 
ATOM     31  C   UNL     1      -2.357   7.956   2.336  0.00  0.00    +0.002 A 
ATOM     32  C   UNL     1      -1.667   8.947   3.009  0.00  0.00    +0.001 A 
ATOM     33  C   UNL     1      -0.285   8.916   3.064  0.00  0.00    +0.014 A 
ATOM     34  C   UNL     1       0.409   7.894   2.446  0.00  0.00    +0.079 A 
BRANCH  34  35
ATOM     35  C   UNL     1       1.914   7.864   2.501  0.00  0.00    +0.419 C 
ATOM     36  F   UNL     1       2.372   8.899   3.323  0.00  0.00    -0.166 F 
ATOM     37  F   UNL     1       2.338   6.635   3.019  0.00  0.00    -0.166 F 
ATOM     38  F   UNL     1       2.431   8.030   1.212  0.00  0.00    -0.166 F 
ENDBRANCH  34  35
ENDBRANCH  28  29
ENDBRANCH  23  24
ENDBRANCH   6  23
TORSDOF 8
