REMARK  Name = ZINC38564814
REMARK  5 active torsions:
REMARK  status: ('A' for Active; 'I' for Inactive)
REMARK    1  A    between atoms: C_12  and  C_24
REMARK    2  A    between atoms: C_14  and  C_15
REMARK    3  A    between atoms: N_26  and  C_27
REMARK    4  A    between atoms: C_27  and  C_28
REMARK    5  A    between atoms: C_28  and  C_29
REMARK                            x       y       z     vdW  Elec       q    Type
REMARK                         _______ _______ _______ _____ _____    ______ ____
ROOT
ATOM      1  C   UNL     1       0.252   1.387  -0.754  0.00  0.00    +0.001 A 
ATOM      2  C   UNL     1       1.474   2.059  -0.862  0.00  0.00    +0.002 A 
ATOM      3  C   UNL     1       2.656   1.406  -0.771  0.00  0.00    +0.026 A 
ATOM      4  C   UNL     1       2.678   0.003  -0.560  0.00  0.00    +0.044 A 
ATOM      5  N   UNL     1       3.682  -0.843  -0.395  0.00  0.00    -0.372 N 
ATOM      6  C   UNL     1       3.143  -2.185  -0.380  0.00  0.00    +0.160 C 
ATOM      7  C   UNL     1       1.647  -2.041  -0.207  0.00  0.00    -0.008 C 
ATOM      8  C   UNL     1       1.382  -0.702  -0.431  0.00  0.00    +0.004 A 
ATOM      9  C   UNL     1       0.192   0.048  -0.545  0.00  0.00    +0.010 A 
ATOM     10  C   UNL     1       0.856  -3.078   0.270  0.00  0.00    +0.039 C 
ATOM     11  C   UNL     1       1.542  -4.135   0.874  0.00  0.00    +0.126 C 
ATOM     12  N   UNL     1       2.854  -4.053   1.135  0.00  0.00    -0.244 NA
ATOM     13  C   UNL     1       3.641  -3.126   0.664  0.00  0.00    +0.076 C 
ATOM     14  H   UNL     1       4.617  -0.605  -0.301  0.00  0.00    +0.161 HD
ENDROOT
BRANCH  13  15
ATOM     15  C   UNL     1       5.019  -3.028   1.153  0.00  0.00    +0.002 A 
ATOM     16  C   UNL     1       5.353  -3.520   2.423  0.00  0.00    +0.013 A 
ATOM     17  C   UNL     1       6.648  -3.426   2.878  0.00  0.00    +0.050 A 
ATOM     18  C   UNL     1       7.629  -2.845   2.084  0.00  0.00    +0.166 A 
ATOM     19  C   UNL     1       7.306  -2.352   0.818  0.00  0.00    +0.167 A 
ATOM     20  C   UNL     1       6.011  -2.446   0.350  0.00  0.00    +0.059 A 
ATOM     21  O   UNL     1       8.435  -1.837   0.249  0.00  0.00    -0.453 OA
ATOM     22  C   UNL     1       9.360  -1.649   1.337  0.00  0.00    +0.466 C 
ATOM     23  O   UNL     1       8.959  -2.638   2.304  0.00  0.00    -0.453 OA
ENDBRANCH  13  15
BRANCH  11  24
ATOM     24  C   UNL     1       0.806  -5.369   1.231  0.00  0.00    +0.262 C 
ATOM     25  O   UNL     1      -0.384  -5.455   1.000  0.00  0.00    -0.269 OA
ATOM     26  N   UNL     1       1.456  -6.396   1.813  0.00  0.00    -0.310 N 
ATOM     27  H   UNL     1       2.406  -6.327   1.998  0.00  0.00    +0.149 HD
BRANCH  26  28
ATOM     28  C   UNL     1       0.727  -7.617   2.167  0.00  0.00    +0.109 C 
BRANCH  28  29
ATOM     29  C   UNL     1       1.690  -8.618   2.809  0.00  0.00    +0.049 C 
BRANCH  29  30
ATOM     30  C   UNL     1       0.941  -9.873   3.173  0.00  0.00    -0.072 C 
ATOM     31  C   UNL     1       0.959 -10.857   2.331  0.00  0.00    -0.028 C 
ATOM     32  C   UNL     1       0.253 -12.163   2.548  0.00  0.00    +0.027 C 
ATOM     33  C   UNL     1      -0.109 -12.327   4.026  0.00  0.00    +0.004 C 
ATOM     34  C   UNL     1      -0.803 -11.044   4.501  0.00  0.00    +0.005 C 
ATOM     35  C   UNL     1       0.226  -9.909   4.492  0.00  0.00    +0.030 C 
ENDBRANCH  29  30
ENDBRANCH  28  29
ENDBRANCH  26  28
ENDBRANCH  11  24
TORSDOF 5
