REMARK  Name = ZINC02156222
REMARK  5 active torsions:
REMARK  status: ('A' for Active; 'I' for Inactive)
REMARK    1  A    between atoms: C_1  and  C_2
REMARK    2  A    between atoms: C_6  and  N_9
REMARK    3  A    between atoms: C_7  and  C_8
REMARK    4  A    between atoms: C_13  and  C_14
REMARK    5  A    between atoms: N_18  and  C_19
REMARK                            x       y       z     vdW  Elec       q    Type
REMARK                         _______ _______ _______ _____ _____    ______ ____
ROOT
ATOM      1  N   UNL     1      -1.040   2.406   1.290  0.00  0.00    -0.217 N 
ATOM      2  C   UNL     1      -0.022   1.648   0.832  0.00  0.00    +0.262 C 
ATOM      3  O   UNL     1      -0.200   0.485   0.521  0.00  0.00    -0.269 OA
ATOM      4  C   UNL     1       1.309   2.268   0.714  0.00  0.00    +0.101 C 
ATOM      5  C   UNL     1       2.404   1.551   0.245  0.00  0.00    +0.044 C 
ATOM      6  C   UNL     1       1.429   3.681   1.113  0.00  0.00    +0.255 C 
ATOM      7  O   UNL     1       2.496   4.261   1.044  0.00  0.00    -0.270 OA
ATOM      8  N   UNL     1       0.324   4.314   1.559  0.00  0.00    -0.263 N 
ATOM      9  C   UNL     1      -0.858   3.687   1.641  0.00  0.00    +0.150 C 
ATOM     10  S   UNL     1      -2.206   4.569   2.217  0.00  0.00    -0.018 S 
ATOM     11  H   UNL     1       0.386   5.244   1.825  0.00  0.00    +0.157 HD
ENDROOT
BRANCH   1  17
ATOM     12  C   UNL     1      -5.423   1.401  -0.702  0.00  0.00    +0.044 C 
ATOM     13  C   UNL     1      -4.460   1.338   0.456  0.00  0.00    -0.046 A 
ATOM     14  C   UNL     1      -4.836   0.720   1.635  0.00  0.00    +0.004 A 
ATOM     15  C   UNL     1      -3.956   0.661   2.699  0.00  0.00    +0.002 A 
ATOM     16  C   UNL     1      -2.695   1.214   2.586  0.00  0.00    +0.024 A 
ATOM     17  C   UNL     1      -2.316   1.839   1.406  0.00  0.00    +0.046 A 
ATOM     18  C   UNL     1      -3.203   1.898   0.338  0.00  0.00    -0.026 A 
ATOM     19  C   UNL     1      -2.794   2.571  -0.946  0.00  0.00    +0.046 C 
ENDBRANCH   1  17
BRANCH   5  20
ATOM     20  C   UNL     1       3.618   2.210  -0.009  0.00  0.00    +0.047 A 
ATOM     21  C   UNL     1       4.854   1.903   0.549  0.00  0.00    +0.027 A 
ATOM     22  C   UNL     1       5.776   2.803   0.018  0.00  0.00    +0.020 A 
ATOM     23  C   UNL     1       5.115   3.634  -0.829  0.00  0.00    +0.092 A 
ATOM     24  N   UNL     1       3.804   3.286  -0.856  0.00  0.00    -0.316 N 
BRANCH  24  25
ATOM     25  C   UNL     1       2.806   3.913  -1.613  0.00  0.00    +0.047 A 
ATOM     26  C   UNL     1       1.995   3.161  -2.453  0.00  0.00    +0.027 A 
ATOM     27  C   UNL     1       1.010   3.781  -3.196  0.00  0.00    +0.017 A 
ATOM     28  C   UNL     1       0.837   5.151  -3.112  0.00  0.00    +0.018 A 
ATOM     29  C   UNL     1       1.647   5.903  -2.280  0.00  0.00    +0.017 A 
ATOM     30  C   UNL     1       2.631   5.288  -1.531  0.00  0.00    +0.027 A 
ATOM     31 BR   UNL     1      -0.510   5.997  -4.135  0.00  0.00    -0.050 Br
ENDBRANCH  24  25
ENDBRANCH   5  20
TORSDOF 3
