REMARK  Name = ZINC23820040
REMARK  7 active torsions:
REMARK  status: ('A' for Active; 'I' for Inactive)
REMARK    1  A    between atoms: C_1  and  C_2
REMARK    2  A    between atoms: C_2  and  C_4
REMARK    3  A    between atoms: C_2  and  N_10
REMARK    4  A    between atoms: C_11  and  C_13
REMARK    5  A    between atoms: C_18  and  N_19
REMARK    6  A    between atoms: C_20  and  C_22
REMARK    7  A    between atoms: C_22  and  N_23
REMARK                            x       y       z     vdW  Elec       q    Type
REMARK                         _______ _______ _______ _____ _____    ______ ____
ROOT
ATOM      1  C   UNL     1       1.258   1.969  -0.005  0.00  0.00    +0.058 A 
ATOM      2  C   UNL     1       1.249   3.362  -0.113  0.00  0.00    +0.015 A 
ATOM      3  C   UNL     1       2.438   4.059  -0.118  0.00  0.00    +0.001 A 
ATOM      4  C   UNL     1       3.645   3.384  -0.028  0.00  0.00    +0.002 A 
ATOM      5  C   UNL     1       3.670   2.008   0.074  0.00  0.00    +0.024 A 
ATOM      6  C   UNL     1       2.482   1.289   0.086  0.00  0.00    +0.046 A 
ENDROOT
BRANCH   1   8
ATOM      7  N   UNL     1      -1.186   1.879   0.014  0.00  0.00    -0.305 N 
ATOM      8  C   UNL     1      -0.011   1.218   0.007  0.00  0.00    +0.246 C 
ATOM      9  O   UNL     1       0.002   0.002   0.005  0.00  0.00    -0.270 OA
ATOM     10  H   UNL     1      -1.198   2.979   0.016  0.00  0.00    +0.150 HD
BRANCH   7  12
ATOM     11  C   UNL     1      -2.829   0.766  -1.415  0.00  0.00    +0.033 C 
ATOM     12  C   UNL     1      -2.446   1.132   0.020  0.00  0.00    +0.100 C 
BRANCH  12  13
ATOM     13  C   UNL     1      -3.531   1.984   0.627  0.00  0.00    -0.027 A 
ATOM     14  C   UNL     1      -3.591   3.335   0.341  0.00  0.00    +0.005 A 
ATOM     15  C   UNL     1      -4.589   4.115   0.895  0.00  0.00    +0.000 A 
ATOM     16  C   UNL     1      -5.522   3.546   1.742  0.00  0.00    +0.000 A 
ATOM     17  C   UNL     1      -5.458   2.196   2.033  0.00  0.00    +0.000 A 
ATOM     18  C   UNL     1      -4.463   1.415   1.475  0.00  0.00    +0.005 A 
ENDBRANCH  12  13
ENDBRANCH   7  12
ENDBRANCH   1   8
BRANCH   6  19
ATOM     19  N   UNL     1       2.505  -0.100   0.188  0.00  0.00    -0.284 N 
ATOM     20  C   UNL     1       3.449  -0.705   0.935  0.00  0.00    +0.235 C 
ATOM     21  O   UNL     1       4.220  -0.040   1.594  0.00  0.00    -0.274 OA
ATOM     22  H   UNL     1       1.752  -0.703  -0.341  0.00  0.00    +0.155 HD
BRANCH  20  23
ATOM     23  C   UNL     1       3.548  -2.209   0.951  0.00  0.00    +0.214 C 
BRANCH  23  24
ATOM     24  N   UNL     1       4.646  -2.617   1.831  0.00  0.00    -0.215 N 
ATOM     25  C   UNL     1       4.508  -2.865   3.150  0.00  0.00    +0.247 C 
ATOM     26  O   UNL     1       3.491  -2.797   3.807  0.00  0.00    -0.273 OA
ATOM     27  C   UNL     1       5.887  -3.248   3.635  0.00  0.00    +0.113 C 
ATOM     28  C   UNL     1       5.881  -4.669   4.186  0.00  0.00    +0.035 C 
ATOM     29  C   UNL     1       7.292  -5.048   4.646  0.00  0.00    +0.003 C 
ATOM     30  C   UNL     1       7.755  -4.066   5.724  0.00  0.00    +0.000 C 
ATOM     31  C   UNL     1       7.780  -2.649   5.149  0.00  0.00    +0.003 C 
ATOM     32  C   UNL     1       6.371  -2.261   4.691  0.00  0.00    +0.035 C 
ATOM     33  N   UNL     1       6.724  -3.166   2.431  0.00  0.00    -0.285 N 
ATOM     34  C   UNL     1       5.909  -2.795   1.425  0.00  0.00    +0.310 C 
ATOM     35  O   UNL     1       6.279  -2.636   0.279  0.00  0.00    -0.252 OA
ATOM     36  H   UNL     1       7.799  -3.393   2.492  0.00  0.00    +0.151 HD
ENDBRANCH  23  24
ENDBRANCH  20  23
ENDBRANCH   6  19
TORSDOF 6
