REMARK  Name = ZINC63384452
REMARK  4 active torsions:
REMARK  status: ('A' for Active; 'I' for Inactive)
REMARK    1  A    between atoms: C_7  and  C_10
REMARK    2  A    between atoms: C_10  and  C_11
REMARK    3  A    between atoms: N_19  and  C_22
REMARK    4  A    between atoms: C_22  and  C_23
REMARK                            x       y       z     vdW  Elec       q    Type
REMARK                         _______ _______ _______ _____ _____    ______ ____
ROOT
ATOM      1  C   UNL     1       0.457  -3.653  -1.462  0.00  0.00    +0.072 C 
ATOM      2  C   UNL     1      -0.436  -4.913  -1.478  0.00  0.00    +0.107 C 
ATOM      3  C   UNL     1      -1.346  -4.739  -2.726  0.00  0.00    +0.122 C 
ATOM      4  C   UNL     1      -0.905  -5.861  -3.639  0.00  0.00    +0.228 C 
ATOM      5  O   UNL     1      -1.363  -6.090  -4.737  0.00  0.00    -0.275 OA
ATOM      6  N   UNL     1       0.069  -6.560  -3.045  0.00  0.00    -0.239 N 
ATOM      7  C   UNL     1       0.414  -6.118  -1.813  0.00  0.00    +0.227 C 
ATOM      8  O   UNL     1       1.262  -6.599  -1.093  0.00  0.00    -0.275 OA
ATOM      9  C   UNL     1      -0.942  -3.382  -3.314  0.00  0.00    +0.136 C 
ATOM     10  N   UNL     1      -0.310  -2.630  -2.221  0.00  0.00    -0.295 NA
ATOM     11  C   UNL     1      -2.123  -2.656  -3.893  0.00  0.00    +0.003 A 
ATOM     12  C   UNL     1      -3.317  -2.218  -3.367  0.00  0.00    +0.008 A 
ATOM     13  C   UNL     1      -4.229  -1.561  -4.173  0.00  0.00    +0.000 A 
ATOM     14  C   UNL     1      -3.938  -1.345  -5.507  0.00  0.00    +0.002 A 
ATOM     15  C   UNL     1      -2.743  -1.782  -6.039  0.00  0.00    +0.023 A 
ATOM     16  C   UNL     1      -1.819  -2.446  -5.235  0.00  0.00    +0.039 A 
ATOM     17  N   UNL     1      -0.563  -2.976  -5.535  0.00  0.00    -0.283 N 
ATOM     18  C   UNL     1       0.018  -3.545  -4.461  0.00  0.00    +0.243 C 
ATOM     19  O   UNL     1       1.105  -4.082  -4.426  0.00  0.00    -0.273 OA
ATOM     20  H   UNL     1      -1.013  -2.200  -1.639  0.00  0.00    +0.124 HD
ATOM     21  H   UNL     1      -0.156  -2.939  -6.415  0.00  0.00    +0.155 HD
ENDROOT
BRANCH   1  22
ATOM     22  C   UNL     1       0.691  -3.186  -0.024  0.00  0.00    +0.052 C 
BRANCH  22  29
ATOM     23  C   UNL     1      -0.016   1.348   0.009  0.00  0.00    +0.001 A 
ATOM     24  C   UNL     1       1.166   2.101   0.002  0.00  0.00    +0.002 A 
ATOM     25  C   UNL     1       2.391   1.535  -0.013  0.00  0.00    +0.026 A 
ATOM     26  C   UNL     1       2.529   0.120  -0.022  0.00  0.00    +0.043 A 
ATOM     27  N   UNL     1       3.587  -0.654  -0.037  0.00  0.00    -0.380 N 
ATOM     28  C   UNL     1       3.143  -2.053  -0.041  0.00  0.00    +0.144 C 
ATOM     29  C   UNL     1       1.631  -2.008  -0.025  0.00  0.00    -0.040 C 
ATOM     30  C   UNL     1       1.295  -0.698  -0.014  0.00  0.00    -0.001 A 
ATOM     31  C   UNL     1       0.002  -0.004   0.002  0.00  0.00    +0.010 A 
ATOM     32  H   UNL     1       4.509  -0.353  -0.045  0.00  0.00    +0.160 HD
ENDBRANCH  22  29
ENDBRANCH   1  22
BRANCH   6  33
ATOM     33  C   UNL     1       0.710  -7.717  -3.674  0.00  0.00    +0.148 C 
BRANCH  33  34
ATOM     34  C   UNL     1       1.919  -7.251  -4.488  0.00  0.00    +0.136 C 
ATOM     35  C   UNL     1       2.529  -8.446  -5.252  0.00  0.00    +0.035 C 
ATOM     36  C   UNL     1       4.053  -8.175  -5.125  0.00  0.00    +0.031 C 
ATOM     37  C   UNL     1       4.121  -7.531  -3.717  0.00  0.00    +0.160 C 
ATOM     38  O   UNL     1       2.927  -6.737  -3.610  0.00  0.00    -0.375 OA
ENDBRANCH  33  34
ENDBRANCH   6  33
TORSDOF 4
