REMARK  Name = ZINC35689188
REMARK  11 active torsions:
REMARK  status: ('A' for Active; 'I' for Inactive)
REMARK    1  A    between atoms: C_1  and  C_2
REMARK    2  A    between atoms: C_2  and  C_3
REMARK    3  A    between atoms: C_3  and  N_4
REMARK    4  A    between atoms: N_4  and  C_5
REMARK    5  A    between atoms: C_5  and  C_7
REMARK    6  A    between atoms: C_5  and  C_8
REMARK    7  A    between atoms: N_18  and  C_19
REMARK    8  A    between atoms: C_22  and  C_26
REMARK    9  A    between atoms: C_24  and  C_25
REMARK   10  A    between atoms: N_29  and  C_30
REMARK   11  A    between atoms: C_35  and  C_36
REMARK                            x       y       z     vdW  Elec       q    Type
REMARK                         _______ _______ _______ _____ _____    ______ ____
ROOT
ATOM      1  C   UNL     1      -1.468  -2.254  -1.491  0.00  0.00    +0.138 A 
ATOM      2  N   UNL     1      -2.302  -1.496  -2.135  0.00  0.00    -0.231 NA
ATOM      3  C   UNL     1      -3.454  -1.062  -1.565  0.00  0.00    +0.078 A 
ATOM      4  C   UNL     1      -4.353  -0.248  -2.258  0.00  0.00    +0.028 A 
ATOM      5  C   UNL     1      -5.511   0.169  -1.641  0.00  0.00    +0.002 A 
ATOM      6  C   UNL     1      -5.798  -0.210  -0.336  0.00  0.00    +0.001 A 
ATOM      7  C   UNL     1      -4.927  -1.013   0.368  0.00  0.00    +0.015 A 
ATOM      8  C   UNL     1      -3.750  -1.446  -0.238  0.00  0.00    +0.065 A 
ATOM      9  C   UNL     1      -2.784  -2.305   0.463  0.00  0.00    +0.266 A 
ATOM     10  O   UNL     1      -2.979  -2.671   1.608  0.00  0.00    -0.267 OA
ATOM     11  N   UNL     1      -1.673  -2.676  -0.214  0.00  0.00    -0.263 N 
ENDROOT
BRANCH  11  12
ATOM     12  C   UNL     1      -0.724  -3.498   0.406  0.00  0.00    +0.054 A 
ATOM     13  C   UNL     1       0.236  -2.943   1.242  0.00  0.00    +0.027 A 
ATOM     14  C   UNL     1       1.171  -3.756   1.853  0.00  0.00    +0.005 A 
ATOM     15  C   UNL     1       1.151  -5.121   1.633  0.00  0.00    -0.050 A 
ATOM     16  C   UNL     1       0.197  -5.677   0.801  0.00  0.00    +0.008 A 
ATOM     17  C   UNL     1      -0.744  -4.870   0.192  0.00  0.00    -0.026 A 
ATOM     18  C   UNL     1      -1.788  -5.476  -0.710  0.00  0.00    +0.046 C 
ATOM     19  C   UNL     1       2.172  -6.005   2.301  0.00  0.00    +0.044 C 
ENDBRANCH  11  12
BRANCH   1  20
ATOM     20  C   UNL     1      -0.210  -2.693  -2.196  0.00  0.00    +0.141 C 
ATOM     21  C   UNL     1      -0.372  -2.486  -3.704  0.00  0.00    +0.036 C 
BRANCH  20  22
ATOM     22  N   UNL     1       0.923  -1.899  -1.713  0.00  0.00    -0.276 N 
ATOM     23  C   UNL     1       2.015  -2.515  -1.220  0.00  0.00    +0.307 C 
ATOM     24  O   UNL     1       2.061  -3.729  -1.175  0.00  0.00    -0.252 OA
ATOM     25  N   UNL     1       3.058  -1.785  -0.775  0.00  0.00    -0.269 N 
ATOM     26  H   UNL     1       2.995  -0.817  -0.748  0.00  0.00    +0.156 HD
BRANCH  25  27
ATOM     27  C   UNL     1       4.229  -2.423  -0.353  0.00  0.00    +0.038 A 
ATOM     28  C   UNL     1       4.634  -3.606  -0.958  0.00  0.00    +0.023 A 
ATOM     29  C   UNL     1       5.791  -4.233  -0.539  0.00  0.00    +0.002 A 
ATOM     30  C   UNL     1       6.546  -3.684   0.481  0.00  0.00    +0.000 A 
ATOM     31  C   UNL     1       6.146  -2.506   1.085  0.00  0.00    +0.005 A 
ATOM     32  C   UNL     1       4.993  -1.871   0.667  0.00  0.00    -0.029 A 
ATOM     33  C   UNL     1       4.560  -0.585   1.322  0.00  0.00    +0.045 C 
ENDBRANCH  25  27
BRANCH  22  34
ATOM     34  C   UNL     1       0.868  -0.436  -1.767  0.00  0.00    +0.110 C 
BRANCH  34  36
ATOM     35  C   UNL     1       0.438   1.635  -0.438  0.00  0.00    +0.005 C 
ATOM     36  C   UNL     1       0.394   0.106  -0.417  0.00  0.00    +0.016 C 
ENDBRANCH  34  36
ENDBRANCH  22  34
ENDBRANCH  20  22
ENDBRANCH   1  20
TORSDOF 6
