REMARK  Name = ZINC39771530
REMARK  9 active torsions:
REMARK  status: ('A' for Active; 'I' for Inactive)
REMARK    1  A    between atoms: C_1  and  C_2
REMARK    2  A    between atoms: C_4  and  C_25
REMARK    3  A    between atoms: C_7  and  N_8
REMARK    4  A    between atoms: C_9  and  C_11
REMARK    5  A    between atoms: C_12  and  C_23
REMARK    6  A    between atoms: C_17  and  C_21
REMARK    7  A    between atoms: C_17  and  C_22
REMARK    8  A    between atoms: C_25  and  C_27
REMARK    9  A    between atoms: C_25  and  C_29
REMARK                            x       y       z     vdW  Elec       q    Type
REMARK                         _______ _______ _______ _____ _____    ______ ____
ROOT
ATOM      1  C   UNL     1      -0.823   0.808   0.262  0.00  0.00    +0.045 C 
ATOM      2  C   UNL     1      -0.170  -0.544   0.140  0.00  0.00    -0.029 A 
ATOM      3  C   UNL     1      -0.308  -1.276  -1.023  0.00  0.00    +0.011 A 
ATOM      4  C   UNL     1       0.291  -2.517  -1.136  0.00  0.00    -0.008 A 
ATOM      5  C   UNL     1       1.031  -3.030  -0.085  0.00  0.00    +0.047 A 
ATOM      6  C   UNL     1       1.173  -2.303   1.081  0.00  0.00    +0.044 A 
ATOM      7  C   UNL     1       0.577  -1.053   1.195  0.00  0.00    +0.038 A 
ATOM      8 CL   UNL     1       1.781  -4.589  -0.231  0.00  0.00    -0.083 Cl
ENDROOT
BRANCH   7   9
ATOM      9  N   UNL     1       0.724  -0.311   2.371  0.00  0.00    -0.279 N 
ATOM     10  C   UNL     1       0.947  -0.941   3.542  0.00  0.00    +0.284 C 
ATOM     11  O   UNL     1       1.103  -2.147   3.563  0.00  0.00    -0.266 OA
ATOM     12  H   UNL     1       0.665   0.657   2.345  0.00  0.00    +0.155 HD
BRANCH  10  13
ATOM     13  C   UNL     1       1.003  -0.171   4.790  0.00  0.00    +0.193 A 
ATOM     14  C   UNL     1       1.227  -0.689   6.033  0.00  0.00    +0.011 A 
ATOM     15  C   UNL     1       1.196   0.396   6.921  0.00  0.00    +0.062 A 
ATOM     16  C   UNL     1       0.949   1.537   6.166  0.00  0.00    +0.117 A 
ATOM     17  O   UNL     1       0.847   1.169   4.896  0.00  0.00    -0.454 OA
ATOM     18  C   UNL     1       0.837   2.912   6.775  0.00  0.00    +0.082 C 
ATOM     19  C   UNL     1       0.525   2.779   8.268  0.00  0.00    -0.021 C 
ATOM     20  C   UNL     1       1.538   1.856   8.953  0.00  0.00    +0.086 C 
ATOM     21  C   UNL     1       1.375   0.456   8.380  0.00  0.00    +0.167 C 
ATOM     22  O   UNL     1       1.391  -0.538   9.075  0.00  0.00    -0.292 OA
ATOM     23  C   UNL     1      -0.881   2.201   8.440  0.00  0.00    +0.012 C 
ATOM     24  C   UNL     1       0.583   4.163   8.919  0.00  0.00    +0.012 C 
ATOM     25  C   UNL     1       1.460  -2.137   6.380  0.00  0.00    +0.048 C 
ENDBRANCH  10  13
ENDBRANCH   7   9
BRANCH   4  26
ATOM     26  C   UNL     1       0.138  -3.313  -2.407  0.00  0.00    +0.153 C 
BRANCH  26  27
ATOM     27  C   UNL     1       0.689  -2.522  -3.565  0.00  0.00    -0.026 A 
ATOM     28  C   UNL     1       0.001  -1.419  -4.038  0.00  0.00    +0.006 A 
ATOM     29  C   UNL     1       0.506  -0.693  -5.100  0.00  0.00    +0.020 A 
ATOM     30  C   UNL     1       1.700  -1.070  -5.690  0.00  0.00    +0.041 A 
ATOM     31  C   UNL     1       2.387  -2.173  -5.216  0.00  0.00    +0.020 A 
ATOM     32  C   UNL     1       1.884  -2.895  -4.150  0.00  0.00    +0.006 A 
ATOM     33 CL   UNL     1       2.334  -0.158  -7.024  0.00  0.00    -0.084 Cl
ENDBRANCH  26  27
BRANCH  26  34
ATOM     34  C   UNL     1      -1.288  -3.595  -2.640  0.00  0.00    +0.075 C 
ATOM     35  N   UNL     1      -2.389  -3.813  -2.820  0.00  0.00    -0.196 NA
ENDBRANCH  26  34
ENDBRANCH   4  26
TORSDOF 5
