REMARK  Name = ZINC14821779
REMARK  12 active torsions:
REMARK  status: ('A' for Active; 'I' for Inactive)
REMARK    1  A    between atoms: C_1  and  C_2
REMARK    2  A    between atoms: C_2  and  N_3
REMARK    3  A    between atoms: N_3  and  C_4
REMARK    4  A    between atoms: N_3  and  S_6
REMARK    5  A    between atoms: C_4  and  C_5
REMARK    6  A    between atoms: S_6  and  C_9
REMARK    7  A    between atoms: C_12  and  O_28
REMARK    8  A    between atoms: C_13  and  N_15
REMARK    9  A    between atoms: C_16  and  C_18
REMARK   10  A    between atoms: C_22  and  C_27
REMARK   11  A    between atoms: C_23  and  N_24
REMARK   12  A    between atoms: O_28  and  C_29
REMARK                            x       y       z     vdW  Elec       q    Type
REMARK                         _______ _______ _______ _____ _____    ______ ____
ROOT
ATOM      1  C   UNL     1      -2.612   3.737  -0.181  0.00  0.00    +0.107 A 
ATOM      2  C   UNL     1      -3.775   2.993  -0.115  0.00  0.00    +0.032 A 
ATOM      3  C   UNL     1      -3.715   1.620   0.036  0.00  0.00    +0.050 A 
ATOM      4  C   UNL     1      -2.486   0.985   0.115  0.00  0.00    +0.150 A 
ATOM      5  C   UNL     1      -1.313   1.735   0.054  0.00  0.00    +0.078 A 
ATOM      6  C   UNL     1      -1.382   3.113  -0.097  0.00  0.00    +0.055 A 
ENDROOT
BRANCH   5   7
ATOM      7  N   UNL     1      -0.068   1.100   0.139  0.00  0.00    -0.278 N 
ATOM      8  C   UNL     1       0.965   1.719   0.745  0.00  0.00    +0.251 C 
ATOM      9  O   UNL     1       0.834   2.854   1.159  0.00  0.00    -0.270 OA
ATOM     10  H   UNL     1       0.052   0.216  -0.241  0.00  0.00    +0.155 HD
BRANCH   8  11
ATOM     11  C   UNL     1       2.255   1.017   0.907  0.00  0.00    +0.067 A 
ATOM     12  C   UNL     1       2.409  -0.287   0.432  0.00  0.00    +0.015 A 
ATOM     13  C   UNL     1       3.616  -0.936   0.586  0.00  0.00    +0.001 A 
ATOM     14  C   UNL     1       4.674  -0.298   1.209  0.00  0.00    +0.005 A 
ATOM     15  C   UNL     1       4.529   0.994   1.681  0.00  0.00    -0.020 A 
ATOM     16  C   UNL     1       3.328   1.657   1.529  0.00  0.00    +0.141 A 
ATOM     17  C   UNL     1       5.687   1.682   2.358  0.00  0.00    +0.046 C 
BRANCH  16  18
ATOM     18  N   UNL     1       3.177   3.042   2.029  0.00  0.00    +0.057 N 
ATOM     19  O   UNL     1       2.795   3.240   3.168  0.00  0.00    -0.126 OA
ATOM     20  O   UNL     1       3.434   3.984   1.300  0.00  0.00    -0.126 OA
ENDBRANCH  16  18
ENDBRANCH   8  11
ENDBRANCH   5   7
BRANCH   1  21
ATOM     21  S   UNL     1      -2.697   5.487  -0.373  0.00  0.00    +0.061 S 
ATOM     22  O   UNL     1      -3.968   5.888   0.121  0.00  0.00    -0.153 OA
ATOM     23  O   UNL     1      -1.480   6.012   0.139  0.00  0.00    -0.153 OA
BRANCH  21  24
ATOM     24  N   UNL     1      -2.701   5.801  -1.999  0.00  0.00    -0.177 NA
BRANCH  24  26
ATOM     25  C   UNL     1      -4.421   7.336  -2.815  0.00  0.00    +0.022 C 
ATOM     26  C   UNL     1      -3.970   5.877  -2.728  0.00  0.00    +0.106 C 
ENDBRANCH  24  26
BRANCH  24  27
ATOM     27  C   UNL     1      -1.436   6.003  -2.709  0.00  0.00    +0.106 C 
ATOM     28  C   UNL     1      -0.986   4.682  -3.337  0.00  0.00    +0.022 C 
ENDBRANCH  24  27
ENDBRANCH  21  24
ENDBRANCH   1  21
BRANCH   4  29
ATOM     29  O   UNL     1      -2.424  -0.365   0.258  0.00  0.00    -0.454 OA
BRANCH  29  30
ATOM     30  C   UNL     1      -2.340  -0.871   1.517  0.00  0.00    +0.129 A 
ATOM     31  C   UNL     1      -2.206  -0.016   2.601  0.00  0.00    +0.046 A 
ATOM     32  C   UNL     1      -2.124  -0.532   3.880  0.00  0.00    +0.004 A 
ATOM     33  C   UNL     1      -2.166  -1.899   4.079  0.00  0.00    +0.000 A 
ATOM     34  C   UNL     1      -2.295  -2.754   2.999  0.00  0.00    +0.004 A 
ATOM     35  C   UNL     1      -2.381  -2.243   1.719  0.00  0.00    +0.046 A 
ENDBRANCH  29  30
ENDBRANCH   4  29
TORSDOF 9
