REMARK  Name = ZINC14671549
REMARK  8 active torsions:
REMARK  status: ('A' for Active; 'I' for Inactive)
REMARK    1  A    between atoms: C_1  and  C_2
REMARK    2  A    between atoms: C_4  and  C_32
REMARK    3  A    between atoms: C_9  and  N_18
REMARK    4  A    between atoms: N_10  and  C_11
REMARK    5  A    between atoms: C_11  and  C_13
REMARK    6  A    between atoms: N_18  and  C_19
REMARK    7  A    between atoms: C_19  and  C_20
REMARK    8  A    between atoms: C_20  and  C_21
REMARK                            x       y       z     vdW  Elec       q    Type
REMARK                         _______ _______ _______ _____ _____    ______ ____
ROOT
ATOM      1  C   UNL     1      -0.018   1.503   0.010  0.00  0.00    +0.066 C 
ATOM      2  C   UNL     1       0.002  -0.004   0.002  0.00  0.00    +0.044 A 
ATOM      3  C   UNL     1       0.006  -0.699  -1.197  0.00  0.00    +0.046 A 
ATOM      4  C   UNL     1       0.025  -2.085  -1.160  0.00  0.00    +0.044 A 
ATOM      5  N   UNL     1       0.040  -2.698   0.012  0.00  0.00    -0.217 NA
ATOM      6  C   UNL     1       0.035  -2.004   1.140  0.00  0.00    +0.231 A 
ATOM      7  N   UNL     1       0.022  -0.680   1.139  0.00  0.00    -0.217 NA
ATOM      8  N   UNL     1       0.050  -2.681   2.352  0.00  0.00    -0.295 N 
ATOM      9  C   UNL     1       0.046  -1.980   3.527  0.00  0.00    +0.218 C 
ATOM     10  N   UNL     1       0.028  -0.657   3.508  0.00  0.00    -0.139 NA
ATOM     11  C   UNL     1       0.030  -2.882  -2.438  0.00  0.00    +0.066 C 
ATOM     12  H   UNL     1       0.064  -3.650   2.366  0.00  0.00    +0.172 HD
ENDROOT
BRANCH  10  13
ATOM     13  C   UNL     1       0.024   0.031   4.662  0.00  0.00    +0.305 C 
ATOM     14  O   UNL     1       0.037  -0.564   5.726  0.00  0.00    -0.265 OA
BRANCH  13  15
ATOM     15  C   UNL     1       0.004   1.501   4.641  0.00  0.00    +0.191 A 
ATOM     16  C   UNL     1       0.003   2.318   5.733  0.00  0.00    +0.054 A 
ATOM     17  C   UNL     1      -0.019   3.637   5.251  0.00  0.00    +0.042 A 
ATOM     18  C   UNL     1      -0.031   3.566   3.902  0.00  0.00    +0.196 A 
ATOM     19  O   UNL     1      -0.011   2.277   3.538  0.00  0.00    -0.458 OA
ENDBRANCH  13  15
ENDBRANCH  10  13
BRANCH   9  20
ATOM     20  N   UNL     1       0.061  -2.645   4.718  0.00  0.00    -0.252 NA
BRANCH  20  21
ATOM     21  C   UNL     1       0.081  -4.109   4.739  0.00  0.00    +0.150 C 
BRANCH  21  22
ATOM     22  C   UNL     1       0.094  -4.598   6.189  0.00  0.00    +0.060 C 
BRANCH  22  23
ATOM     23  C   UNL     1       0.115  -6.105   6.211  0.00  0.00    -0.021 A 
ATOM     24  C   UNL     1      -0.950  -6.917   6.315  0.00  0.00    +0.087 A 
ATOM     25  N   UNL     1      -0.543  -8.223   6.300  0.00  0.00    -0.360 N 
ATOM     26  H   UNL     1      -1.133  -8.991   6.363  0.00  0.00    +0.165 HD
ATOM     27  C   UNL     1       0.828  -8.286   6.183  0.00  0.00    +0.047 A 
ATOM     28  C   UNL     1       1.299  -6.962   6.115  0.00  0.00    +0.004 A 
ATOM     29  C   UNL     1       2.667  -6.714   5.986  0.00  0.00    +0.030 A 
ATOM     30  C   UNL     1       3.547  -7.771   5.921  0.00  0.00    +0.042 A 
ATOM     31  C   UNL     1       3.081  -9.078   5.984  0.00  0.00    +0.022 A 
ATOM     32  C   UNL     1       1.735  -9.338   6.121  0.00  0.00    +0.027 A 
ATOM     33 CL   UNL     1       5.249  -7.469   5.759  0.00  0.00    -0.084 Cl
ENDBRANCH  22  23
ENDBRANCH  21  22
ENDBRANCH  20  21
ENDBRANCH   9  20
TORSDOF 6
