REMARK  Name = ZINC02955054
REMARK  9 active torsions:
REMARK  status: ('A' for Active; 'I' for Inactive)
REMARK    1  A    between atoms: C_1  and  C_2
REMARK    2  A    between atoms: C_3  and  C_29
REMARK    3  A    between atoms: C_4  and  C_21
REMARK    4  A    between atoms: C_10  and  C_11
REMARK    5  A    between atoms: C_14  and  O_17
REMARK    6  A    between atoms: C_25  and  O_27
REMARK    7  A    between atoms: O_27  and  C_28
REMARK    8  A    between atoms: C_29  and  O_37
REMARK    9  A    between atoms: N_30  and  C_31
REMARK                            x       y       z     vdW  Elec       q    Type
REMARK                         _______ _______ _______ _____ _____    ______ ____
ROOT
ATOM      1  C   UNL     1      -0.120   1.184   3.075  0.00  0.00    +0.066 C 
ATOM      2  C   UNL     1       0.007  -0.107   2.309  0.00  0.00    +0.052 C 
ATOM      3  C   UNL     1      -1.063  -0.947   2.216  0.00  0.00    +0.062 C 
ATOM      4  C   UNL     1      -0.895  -2.232   1.439  0.00  0.00    +0.160 C 
ATOM      5  N   UNL     1       0.439  -2.487   0.827  0.00  0.00    -0.275 N 
ATOM      6  C   UNL     1       0.781  -3.562   0.105  0.00  0.00    +0.268 A 
ATOM      7  O   UNL     1      -0.020  -4.452  -0.112  0.00  0.00    -0.266 OA
ATOM      8  C   UNL     1       2.152  -3.633  -0.418  0.00  0.00    +0.081 A 
ATOM      9  C   UNL     1       2.741  -4.601  -1.168  0.00  0.00    +0.028 C 
ATOM     10  S   UNL     1       2.836  -2.102   0.197  0.00  0.00    -0.046 S 
ATOM     11  C   UNL     1       1.383  -1.508   1.042  0.00  0.00    +0.178 A 
ATOM     12  N   UNL     1       1.162  -0.415   1.724  0.00  0.00    -0.228 NA
ENDROOT
BRANCH   9  13
ATOM     13  C   UNL     1       4.188  -4.563  -1.411  0.00  0.00    -0.024 A 
ATOM     14  C   UNL     1       4.993  -3.646  -0.723  0.00  0.00    +0.011 A 
ATOM     15  C   UNL     1       6.349  -3.615  -0.955  0.00  0.00    +0.046 A 
ATOM     16  C   UNL     1       6.921  -4.492  -1.869  0.00  0.00    +0.117 A 
ATOM     17  C   UNL     1       6.128  -5.405  -2.554  0.00  0.00    +0.046 A 
ATOM     18  C   UNL     1       4.771  -5.448  -2.327  0.00  0.00    +0.011 A 
BRANCH  16  19
ATOM     19  O   UNL     1       8.259  -4.457  -2.094  0.00  0.00    -0.507 OA
ATOM     20  H   UNL     1       8.771  -5.038  -1.514  0.00  0.00    +0.292 HD
ENDBRANCH  16  19
ENDBRANCH   9  13
BRANCH   4  21
ATOM     21  C   UNL     1      -1.206  -3.378   2.366  0.00  0.00    -0.016 A 
ATOM     22  C   UNL     1      -0.254  -3.812   3.271  0.00  0.00    +0.006 A 
ATOM     23  C   UNL     1      -0.535  -4.864   4.123  0.00  0.00    +0.004 A 
ATOM     24  C   UNL     1      -1.769  -5.484   4.073  0.00  0.00    +0.045 A 
ATOM     25  C   UNL     1      -2.725  -5.051   3.166  0.00  0.00    +0.120 A 
ATOM     26  C   UNL     1      -2.442  -3.991   2.316  0.00  0.00    +0.051 A 
BRANCH  25  27
ATOM     27  O   UNL     1      -3.939  -5.660   3.114  0.00  0.00    -0.495 OA
ATOM     28  C   UNL     1      -4.163  -6.740   4.023  0.00  0.00    +0.277 C 
ENDBRANCH  25  27
ENDBRANCH   4  21
BRANCH   3  29
ATOM     29  C   UNL     1      -2.291  -0.625   2.829  0.00  0.00    +0.220 C 
ATOM     30  N   UNL     1      -2.417   0.501   3.503  0.00  0.00    -0.213 NA
BRANCH  30  31
ATOM     31  C   UNL     1      -3.613   0.823   4.080  0.00  0.00    +0.068 A 
ATOM     32  C   UNL     1      -4.184  -0.026   5.032  0.00  0.00    +0.028 A 
ATOM     33  C   UNL     1      -5.391   0.304   5.610  0.00  0.00    +0.002 A 
ATOM     34  C   UNL     1      -6.038   1.474   5.249  0.00  0.00    +0.000 A 
ATOM     35  C   UNL     1      -5.479   2.320   4.307  0.00  0.00    +0.002 A 
ATOM     36  C   UNL     1      -4.269   2.005   3.725  0.00  0.00    +0.028 A 
ENDBRANCH  30  31
BRANCH  29  37
ATOM     37  O   UNL     1      -3.342  -1.473   2.725  0.00  0.00    -0.492 OA
ATOM     38  H   UNL     1      -4.144  -1.161   3.165  0.00  0.00    +0.294 HD
ENDBRANCH  29  37
ENDBRANCH   3  29
TORSDOF 7
