REMARK  Name = ZINC40749880
REMARK  4 active torsions:
REMARK  status: ('A' for Active; 'I' for Inactive)
REMARK    1  A    between atoms: C_1  and  C_2
REMARK    2  A    between atoms: C_7  and  S_8
REMARK    3  A    between atoms: S_8  and  N_11
REMARK    4  A    between atoms: C_19  and  N_21
REMARK                            x       y       z     vdW  Elec       q    Type
REMARK                         _______ _______ _______ _____ _____    ______ ____
ROOT
ATOM      1  N   UNL     1       1.177   1.030   2.916  0.00  0.00    -0.171 NA
ATOM      2  C   UNL     1       2.566   0.714   3.328  0.00  0.00    +0.079 C 
ATOM      3  C   UNL     1       2.977   1.905   4.225  0.00  0.00    +0.022 C 
ATOM      4  C   UNL     1       2.088   3.076   3.755  0.00  0.00    +0.022 C 
ATOM      5  C   UNL     1       1.225   2.481   2.613  0.00  0.00    +0.079 C 
ATOM      6  C   UNL     1       2.001   2.647   1.297  0.00  0.00    +0.004 C 
ATOM      7  C   UNL     1       3.442   2.174   1.509  0.00  0.00    -0.072 C 
ATOM      8  C   UNL     1       3.435   0.740   2.061  0.00  0.00    +0.004 C 
ENDROOT
BRANCH   7   9
ATOM      9  N   UNL     1       4.156   2.191   0.225  0.00  0.00    +0.380 N 
ATOM     10  H   UNL     1       4.161   3.130  -0.144  0.00  0.00    -0.090 HD
ATOM     11  H   UNL     1       5.106   1.880   0.364  0.00  0.00    -0.090 HD
ATOM     12  H   UNL     1       3.692   1.576  -0.426  0.00  0.00    -0.090 HD
ENDBRANCH   7   9
BRANCH   1  13
ATOM     13  S   UNL     1      -0.119   0.004   2.811  0.00  0.00    +0.062 S 
ATOM     14  O   UNL     1      -1.281   0.795   3.018  0.00  0.00    -0.153 OA
ATOM     15  O   UNL     1       0.189  -1.123   3.620  0.00  0.00    -0.153 OA
BRANCH  13  22
ATOM     16  C   UNL     1       1.879  -1.907   1.587  0.00  0.00    +0.046 C 
ATOM     17  C   UNL     1       0.768  -1.448   0.678  0.00  0.00    -0.024 A 
ATOM     18  C   UNL     1       0.708  -1.907  -0.625  0.00  0.00    +0.007 A 
ATOM     19  C   UNL     1      -0.311  -1.487  -1.459  0.00  0.00    +0.020 A 
ATOM     20  C   UNL     1      -1.270  -0.607  -0.990  0.00  0.00    +0.043 A 
ATOM     21  C   UNL     1      -1.209  -0.149   0.314  0.00  0.00    +0.048 A 
ATOM     22  C   UNL     1      -0.193  -0.574   1.149  0.00  0.00    +0.110 A 
ATOM     23 CL   UNL     1      -2.550  -0.078  -2.038  0.00  0.00    -0.083 Cl
ENDBRANCH  13  22
ENDBRANCH   1  13
TORSDOF 3
