REMARK  Name = ZINC64940033
REMARK  9 active torsions:
REMARK  status: ('A' for Active; 'I' for Inactive)
REMARK    1  A    between atoms: C_1  and  C_2
REMARK    2  A    between atoms: C_6  and  S_14
REMARK    3  A    between atoms: C_11  and  C_13
REMARK    4  A    between atoms: S_14  and  N_17
REMARK    5  A    between atoms: N_17  and  N_18
REMARK    6  A    between atoms: N_21  and  C_22
REMARK    7  A    between atoms: C_22  and  C_23
REMARK    8  A    between atoms: C_23  and  C_24
REMARK    9  A    between atoms: C_23  and  C_25
REMARK                            x       y       z     vdW  Elec       q    Type
REMARK                         _______ _______ _______ _____ _____    ______ ____
ROOT
ATOM      1  S   UNL     1      -3.190  -3.438   4.452  0.00  0.00    +0.074 S 
ATOM      2  O   UNL     1      -2.625  -3.716   5.726  0.00  0.00    -0.152 OA
ATOM      3  O   UNL     1      -4.412  -2.729   4.299  0.00  0.00    -0.152 OA
ENDROOT
BRANCH   1   9
ATOM      4  C   UNL     1       0.062   1.876   0.481  0.00  0.00    +0.029 C 
ATOM      5  C   UNL     1      -0.092   0.364   0.306  0.00  0.00    +0.083 C 
ATOM      6  C   UNL     1      -1.534  -0.065   0.625  0.00  0.00    +0.059 C 
ATOM      7  C   UNL     1      -1.398  -1.019   1.790  0.00  0.00    -0.022 A 
ATOM      8  C   UNL     1      -2.352  -1.720   2.502  0.00  0.00    +0.034 A 
ATOM      9  C   UNL     1      -1.972  -2.545   3.545  0.00  0.00    +0.107 A 
ATOM     10  C   UNL     1      -0.635  -2.667   3.873  0.00  0.00    +0.030 A 
ATOM     11  C   UNL     1       0.320  -1.970   3.165  0.00  0.00    +0.026 A 
ATOM     12  C   UNL     1      -0.055  -1.135   2.111  0.00  0.00    +0.040 A 
ATOM     13  N   UNL     1       0.744  -0.348   1.275  0.00  0.00    -0.268 N 
ATOM     14  C   UNL     1       2.087  -0.259   1.350  0.00  0.00    +0.217 C 
ATOM     15  O   UNL     1       2.696  -0.940   2.148  0.00  0.00    -0.276 OA
ATOM     16  C   UNL     1       2.831   0.687   0.444  0.00  0.00    +0.109 C 
ENDBRANCH   1   9
BRANCH   1  17
ATOM     17  N   UNL     1      -3.392  -4.898   3.696  0.00  0.00    -0.107 NA
ATOM     18  H   UNL     1      -4.261  -5.146   3.344  0.00  0.00    +0.172 HD
BRANCH  17  19
ATOM     19  N   UNL     1      -2.307  -5.775   3.566  0.00  0.00    -0.216 N 
ATOM     20  C   UNL     1      -2.403  -7.039   4.024  0.00  0.00    +0.315 C 
ATOM     21  O   UNL     1      -1.462  -7.800   3.910  0.00  0.00    -0.251 OA
ATOM     22  N   UNL     1      -3.543  -7.459   4.607  0.00  0.00    -0.298 N 
ATOM     23  H   UNL     1      -1.487  -5.473   3.146  0.00  0.00    +0.172 HD
ATOM     24  H   UNL     1      -4.294  -6.852   4.698  0.00  0.00    +0.150 HD
BRANCH  22  25
ATOM     25  C   UNL     1      -3.648  -8.833   5.105  0.00  0.00    +0.108 C 
BRANCH  25  26
ATOM     26  C   UNL     1      -5.034  -9.050   5.716  0.00  0.00    -0.000 C 
ATOM     27  C   UNL     1      -6.098  -8.933   4.623  0.00  0.00    +0.009 C 
ATOM     28  C   UNL     1      -5.101 -10.442   6.347  0.00  0.00    +0.009 C 
ENDBRANCH  25  26
ENDBRANCH  22  25
ENDBRANCH  17  19
ENDBRANCH   1  17
TORSDOF 5
