REMARK  Name = ZINC38660110
REMARK  14 active torsions:
REMARK  status: ('A' for Active; 'I' for Inactive)
REMARK    1  A    between atoms: C_1  and  C_2
REMARK    2  A    between atoms: C_2  and  C_3
REMARK    3  A    between atoms: C_3  and  C_4
REMARK    4  A    between atoms: C_4  and  O_5
REMARK    5  A    between atoms: O_5  and  C_6
REMARK    6  A    between atoms: C_9  and  C_14
REMARK    7  A    between atoms: C_11  and  O_12
REMARK    8  A    between atoms: O_12  and  C_13
REMARK    9  A    between atoms: C_19  and  O_28
REMARK   10  A    between atoms: C_23  and  N_27
REMARK   11  A    between atoms: C_24  and  C_25
REMARK   12  A    between atoms: O_28  and  C_29
REMARK   13  A    between atoms: C_29  and  C_31
REMARK   14  A    between atoms: C_34  and  N_37
REMARK                            x       y       z     vdW  Elec       q    Type
REMARK                         _______ _______ _______ _____ _____    ______ ____
ROOT
ATOM      1  C   UNL     1      -3.470  -8.163  -0.036  0.00  0.00    +0.098 C 
ATOM      2  C   UNL     1      -2.818  -8.731  -1.268  0.00  0.00    +0.008 A 
ATOM      3  C   UNL     1      -3.498  -8.700  -2.473  0.00  0.00    +0.012 A 
ATOM      4  C   UNL     1      -2.916  -9.216  -3.614  0.00  0.00    +0.047 A 
ATOM      5  C   UNL     1      -1.644  -9.768  -3.555  0.00  0.00    +0.135 A 
ATOM      6  C   UNL     1      -0.961  -9.800  -2.350  0.00  0.00    +0.093 A 
ATOM      7  C   UNL     1      -1.548  -9.281  -1.204  0.00  0.00    +0.138 A 
ATOM      8  O   UNL     1      -0.866  -9.320  -0.032  0.00  0.00    -0.441 OA
ATOM      9  C   UNL     1      -1.525  -9.194   1.131  0.00  0.00    +0.199 C 
ATOM     10  C   UNL     1      -2.762  -8.653   1.196  0.00  0.00    +0.098 C 
ENDROOT
BRANCH   1  14
ATOM     11  C   UNL     1      -3.278  -3.893  -0.173  0.00  0.00    +0.162 A 
ATOM     12  C   UNL     1      -2.112  -4.643  -0.177  0.00  0.00    +0.050 A 
ATOM     13  C   UNL     1      -2.178  -6.023  -0.133  0.00  0.00    +0.008 A 
ATOM     14  C   UNL     1      -3.405  -6.659  -0.084  0.00  0.00    -0.031 A 
ATOM     15  C   UNL     1      -4.571  -5.917  -0.080  0.00  0.00    +0.054 A 
ATOM     16  C   UNL     1      -4.512  -4.533  -0.118  0.00  0.00    +0.162 A 
BRANCH  16  17
ATOM     17  O   UNL     1      -5.659  -3.801  -0.108  0.00  0.00    -0.491 OA
ATOM     18  C   UNL     1      -6.890  -4.525  -0.051  0.00  0.00    +0.277 C 
ENDBRANCH  16  17
BRANCH  11  19
ATOM     19  O   UNL     1      -3.215  -2.535  -0.217  0.00  0.00    -0.488 OA
BRANCH  19  20
ATOM     20  C   UNL     1      -1.913  -1.948  -0.272  0.00  0.00    +0.229 C 
BRANCH  20  21
ATOM     21  C   UNL     1      -2.043  -0.424  -0.315  0.00  0.00    +0.041 C 
BRANCH  21  23
ATOM     22  C   UNL     1      -0.780   1.729  -0.417  0.00  0.00    +0.004 C 
ATOM     23  C   UNL     1      -0.650   0.205  -0.374  0.00  0.00    -0.000 C 
ENDBRANCH  21  23
ENDBRANCH  20  21
ENDBRANCH  19  20
ENDBRANCH  11  19
ENDBRANCH   1  14
BRANCH   9  24
ATOM     24  N   UNL     1      -0.924  -9.625   2.288  0.00  0.00    -0.328 N 
ATOM     25  H   UNL     1      -0.036 -10.015   2.256  0.00  0.00    +0.145 HD
ATOM     26  H   UNL     1      -1.387  -9.541   3.136  0.00  0.00    +0.145 HD
ENDBRANCH   9  24
BRANCH  10  27
ATOM     27  C   UNL     1      -3.410  -8.546   2.468  0.00  0.00    +0.101 C 
ATOM     28  N   UNL     1      -3.924  -8.460   3.477  0.00  0.00    -0.191 NA
ENDBRANCH  10  27
BRANCH   5  29
ATOM     29  O   UNL     1      -1.069 -10.277  -4.677  0.00  0.00    -0.422 OA
BRANCH  29  30
ATOM     30  C   UNL     1      -0.702  -9.415  -5.645  0.00  0.00    +0.344 C 
ATOM     31  O   UNL     1      -0.790  -8.218  -5.459  0.00  0.00    -0.245 OA
BRANCH  30  32
ATOM     32  C   UNL     1      -0.192  -9.926  -6.934  0.00  0.00    +0.060 A 
ATOM     33  C   UNL     1      -0.094 -11.302  -7.153  0.00  0.00    +0.017 A 
ATOM     34  C   UNL     1       0.383 -11.773  -8.359  0.00  0.00    +0.033 A 
ATOM     35  C   UNL     1       0.766 -10.885  -9.349  0.00  0.00    +0.126 A 
ATOM     36  C   UNL     1       0.672  -9.521  -9.138  0.00  0.00    +0.033 A 
ATOM     37  C   UNL     1       0.190  -9.036  -7.940  0.00  0.00    +0.017 A 
BRANCH  35  38
ATOM     38  N   UNL     1       1.278 -11.397 -10.640  0.00  0.00    +0.056 N 
ATOM     39  O   UNL     1       1.362 -12.589 -10.827  0.00  0.00    -0.126 OA
ATOM     40  O   UNL     1       1.613 -10.624 -11.507  0.00  0.00    -0.126 OA
ENDBRANCH  35  38
ENDBRANCH  30  32
ENDBRANCH  29  30
ENDBRANCH   5  29
TORSDOF 12
