REMARK  Name = ZINC13063956
REMARK  11 active torsions:
REMARK  status: ('A' for Active; 'I' for Inactive)
REMARK    1  A    between atoms: C_1  and  C_2
REMARK    2  A    between atoms: C_2  and  C_3
REMARK    3  A    between atoms: C_3  and  C_5
REMARK    4  A    between atoms: C_3  and  N_60
REMARK    5  A    between atoms: N_9  and  C_10
REMARK    6  A    between atoms: C_10  and  C_11
REMARK    7  A    between atoms: C_16  and  C_17
REMARK    8  A    between atoms: C_16  and  N_60
REMARK    9  A    between atoms: C_22  and  C_23
REMARK   10  A    between atoms: C_22  and  N_60
REMARK   11  A    between atoms: C_28  and  C_35
REMARK                            x       y       z     vdW  Elec       q    Type
REMARK                         _______ _______ _______ _____ _____    ______ ____
ROOT
ATOM      1  N   UNL     1      -0.848   1.095   1.021  0.00  0.00    +0.392 N 
ATOM      2  H   UNL     1      -0.960   2.070   1.323  0.00  0.00    -0.080 HD
ENDROOT
BRANCH   1   3
ATOM      3  C   UNL     1       0.110   0.420   1.921  0.00  0.00    +0.003 C 
BRANCH   3   4
ATOM      4  C   UNL     1       0.743  -0.759   1.228  0.00  0.00    +0.139 A 
ATOM      5  N   UNL     1       1.413  -0.738   0.102  0.00  0.00    -0.115 NA
ATOM      6  N   UNL     1       1.793  -1.941  -0.158  0.00  0.00    -0.023 NA
ATOM      7  N   UNL     1       1.376  -2.731   0.770  0.00  0.00    -0.044 NA
ATOM      8  N   UNL     1       0.725  -2.039   1.643  0.00  0.00    -0.223 N 
BRANCH   8   9
ATOM      9  C   UNL     1       0.085  -2.552   2.857  0.00  0.00    +0.221 C 
BRANCH   9  10
ATOM     10  C   UNL     1      -1.337  -2.946   2.547  0.00  0.00    +0.126 A 
ATOM     11  C   UNL     1      -1.745  -4.158   2.131  0.00  0.00    +0.046 A 
ATOM     12  C   UNL     1      -3.147  -4.084   1.966  0.00  0.00    +0.041 A 
ATOM     13  C   UNL     1      -3.511  -2.829   2.284  0.00  0.00    +0.195 A 
ATOM     14  O   UNL     1      -2.411  -2.144   2.635  0.00  0.00    -0.466 OA
ENDBRANCH   9  10
ENDBRANCH   8   9
ENDBRANCH   3   4
BRANCH   3  16
ATOM     15  C   UNL     1       0.582   2.527   3.179  0.00  0.00    +0.002 C 
ATOM     16  C   UNL     1       1.197   1.422   2.317  0.00  0.00    -0.011 C 
ENDBRANCH   3  16
ENDBRANCH   1   3
BRANCH   1  17
ATOM     17  C   UNL     1      -2.161   0.419   1.083  0.00  0.00    -0.034 C 
BRANCH  17  18
ATOM     18  C   UNL     1      -2.848   0.816   2.365  0.00  0.00    -0.027 A 
ATOM     19  C   UNL     1      -3.760   1.797   2.576  0.00  0.00    +0.009 A 
ATOM     20  C   UNL     1      -4.261   1.982   3.851  0.00  0.00    +0.008 A 
ATOM     21  C   UNL     1      -3.827   1.177   4.851  0.00  0.00    +0.045 A 
ATOM     22  S   UNL     1      -2.679   0.111   3.996  0.00  0.00    -0.103 S 
ENDBRANCH  17  18
ENDBRANCH   1  17
BRANCH   1  23
ATOM     23  C   UNL     1      -0.337   1.078  -0.366  0.00  0.00    -0.036 C 
BRANCH  23  24
ATOM     24  C   UNL     1      -1.057   2.138  -1.159  0.00  0.00    +0.001 A 
ATOM     25  C   UNL     1      -0.509   3.371  -1.291  0.00  0.00    +0.017 A 
ATOM     26  C   UNL     1      -1.234   4.378  -2.068  0.00  0.00    -0.001 A 
ATOM     27  C   UNL     1      -0.719   5.668  -2.240  0.00  0.00    +0.010 A 
ATOM     28  C   UNL     1      -1.420   6.585  -2.971  0.00  0.00    +0.004 A 
ATOM     29  C   UNL     1      -2.638   6.248  -3.546  0.00  0.00    -0.048 A 
ATOM     30  C   UNL     1      -3.164   4.984  -3.390  0.00  0.00    +0.029 A 
ATOM     31  C   UNL     1      -2.469   4.033  -2.649  0.00  0.00    +0.049 A 
ATOM     32  N   UNL     1      -2.971   2.761  -2.478  0.00  0.00    -0.322 N 
ATOM     33  H   UNL     1      -3.822   2.525  -2.879  0.00  0.00    +0.169 HD
ATOM     34  C   UNL     1      -2.296   1.841  -1.767  0.00  0.00    +0.251 A 
ATOM     35  O   UNL     1      -2.767   0.724  -1.640  0.00  0.00    -0.268 OA
ATOM     36  C   UNL     1      -3.394   7.276  -4.348  0.00  0.00    +0.044 C 
ENDBRANCH  23  24
ENDBRANCH   1  23
TORSDOF 9
