REMARK  Name = ZINC16712159
REMARK  8 active torsions:
REMARK  status: ('A' for Active; 'I' for Inactive)
REMARK    1  A    between atoms: C_1  and  C_2
REMARK    2  A    between atoms: C_5  and  N_8
REMARK    3  A    between atoms: C_18  and  S_19
REMARK    4  A    between atoms: S_19  and  C_20
REMARK    5  A    between atoms: C_20  and  C_21
REMARK    6  A    between atoms: N_23  and  N_24
REMARK    7  A    between atoms: C_25  and  C_26
REMARK    8  A    between atoms: C_25  and  C_27
REMARK                            x       y       z     vdW  Elec       q    Type
REMARK                         _______ _______ _______ _____ _____    ______ ____
ROOT
ATOM      1  S   UNL     1      -1.979  -2.855  -1.986  0.00  0.00    -0.078 S 
ENDROOT
BRANCH   1  12
ATOM      2  N   UNL     1       0.140  -2.760  -0.320  0.00  0.00    -0.255 N 
ATOM      3  C   UNL     1       1.080  -2.157   0.445  0.00  0.00    +0.267 A 
ATOM      4  O   UNL     1       1.904  -2.808   1.060  0.00  0.00    -0.267 OA
ATOM      5  C   UNL     1       1.069  -0.690   0.505  0.00  0.00    +0.065 A 
ATOM      6  C   UNL     1       1.995   0.024   1.265  0.00  0.00    +0.015 A 
ATOM      7  C   UNL     1       1.939   1.390   1.286  0.00  0.00    +0.001 A 
ATOM      8  C   UNL     1       0.973   2.073   0.559  0.00  0.00    +0.002 A 
ATOM      9  C   UNL     1       0.052   1.399  -0.194  0.00  0.00    +0.028 A 
ATOM     10  C   UNL     1       0.082   0.002  -0.235  0.00  0.00    +0.079 A 
ATOM     11  N   UNL     1      -0.810  -0.706  -0.968  0.00  0.00    -0.223 NA
ATOM     12  C   UNL     1      -0.779  -2.015  -1.006  0.00  0.00    +0.177 A 
BRANCH   2  17
ATOM     13  C   UNL     1       0.015  -8.421  -0.686  0.00  0.00    +0.044 C 
ATOM     14  C   UNL     1       0.048  -6.918  -0.589  0.00  0.00    -0.050 A 
ATOM     15  C   UNL     1       0.728  -6.180  -1.541  0.00  0.00    +0.005 A 
ATOM     16  C   UNL     1       0.760  -4.802  -1.454  0.00  0.00    +0.026 A 
ATOM     17  C   UNL     1       0.109  -4.157  -0.411  0.00  0.00    +0.052 A 
ATOM     18  C   UNL     1      -0.568  -4.902   0.546  0.00  0.00    +0.026 A 
ATOM     19  C   UNL     1      -0.601  -6.279   0.452  0.00  0.00    +0.005 A 
ENDBRANCH   2  17
ENDBRANCH   1  12
BRANCH   1  20
ATOM     20  C   UNL     1      -2.898  -1.439  -2.640  0.00  0.00    +0.174 C 
BRANCH  20  21
ATOM     21  C   UNL     1      -4.008  -1.930  -3.533  0.00  0.00    +0.242 C 
ATOM     22  O   UNL     1      -4.162  -3.120  -3.711  0.00  0.00    -0.273 OA
ATOM     23  N   UNL     1      -4.829  -1.046  -4.135  0.00  0.00    -0.206 N 
ATOM     24  H   UNL     1      -4.705  -0.095  -3.993  0.00  0.00    +0.177 HD
BRANCH  23  25
ATOM     25  N   UNL     1      -5.861  -1.503  -4.966  0.00  0.00    -0.185 NA
ATOM     26  C   UNL     1      -6.652  -0.651  -5.546  0.00  0.00    +0.064 C 
ATOM     27  C   UNL     1      -6.460   0.827  -5.326  0.00  0.00    +0.068 C 
BRANCH  26  28
ATOM     28  C   UNL     1      -7.735  -1.130  -6.418  0.00  0.00    +0.005 A 
ATOM     29  C   UNL     1      -8.630  -0.236  -6.994  0.00  0.00    +0.010 A 
ATOM     30  C   UNL     1      -9.651  -0.692  -7.817  0.00  0.00    +0.001 A 
ATOM     31  C   UNL     1      -9.817  -2.014  -8.091  0.00  0.00    +0.008 A 
ATOM     32  C   UNL     1      -8.949  -2.974  -7.544  0.00  0.00    -0.017 A 
ATOM     33  C   UNL     1      -7.889  -2.555  -6.702  0.00  0.00    -0.009 A 
ATOM     34  C   UNL     1      -7.025  -3.509  -6.152  0.00  0.00    +0.009 A 
ATOM     35  C   UNL     1      -7.208  -4.829  -6.439  0.00  0.00    +0.001 A 
ATOM     36  C   UNL     1      -8.246  -5.244  -7.269  0.00  0.00    +0.001 A 
ATOM     37  C   UNL     1      -9.107  -4.344  -7.818  0.00  0.00    +0.008 A 
ENDBRANCH  26  28
ENDBRANCH  23  25
ENDBRANCH  20  21
ENDBRANCH   1  20
TORSDOF 6
