REMARK  Name = ZINC40980979
REMARK  14 active torsions:
REMARK  status: ('A' for Active; 'I' for Inactive)
REMARK    1  A    between atoms: C_1  and  C_2
REMARK    2  A    between atoms: C_2  and  C_3
REMARK    3  A    between atoms: C_3  and  S_4
REMARK    4  A    between atoms: S_4  and  C_5
REMARK    5  A    between atoms: C_10  and  C_19
REMARK    6  A    between atoms: C_12  and  C_16
REMARK    7  A    between atoms: C_13  and  C_15
REMARK    8  A    between atoms: C_16  and  C_18
REMARK    9  A    between atoms: C_22  and  O_28
REMARK   10  A    between atoms: C_23  and  O_25
REMARK   11  A    between atoms: O_25  and  C_26
REMARK   12  A    between atoms: C_26  and  C_27
REMARK   13  A    between atoms: O_28  and  C_29
REMARK   14  A    between atoms: C_29  and  C_30
REMARK                            x       y       z     vdW  Elec       q    Type
REMARK                         _______ _______ _______ _____ _____    ______ ____
ROOT
ATOM      1  C   UNL     1       1.636  -2.893   2.673  0.00  0.00    +0.210 A 
ATOM      2  N   UNL     1       2.068  -1.976   3.551  0.00  0.00    -0.187 NA
ATOM      3  C   UNL     1       2.683  -2.573   4.536  0.00  0.00    +0.219 A 
ATOM      4  N   UNL     1       2.651  -3.908   4.306  0.00  0.00    -0.220 N 
ATOM      5  N   UNL     1       1.971  -4.090   3.103  0.00  0.00    -0.141 NA
ATOM      6  C   UNL     1       3.236  -4.898   5.207  0.00  0.00    +0.176 C 
ATOM      7  C   UNL     1       4.104  -4.202   6.221  0.00  0.00    +0.040 C 
ATOM      8  C   UNL     1       4.094  -2.866   6.401  0.00  0.00    +0.016 C 
ATOM      9  N   UNL     1       3.295  -2.037   5.661  0.00  0.00    -0.287 N 
ATOM     10  C   UNL     1       4.993  -2.266   7.451  0.00  0.00    +0.061 C 
ATOM     11  H   UNL     1       3.161  -1.109   5.913  0.00  0.00    +0.155 HD
ENDROOT
BRANCH   6  12
ATOM     12  C   UNL     1       2.135  -5.644   5.916  0.00  0.00    -0.015 A 
ATOM     13  C   UNL     1       1.234  -4.956   6.707  0.00  0.00    +0.010 A 
ATOM     14  C   UNL     1       0.222  -5.636   7.359  0.00  0.00    +0.050 A 
ATOM     15  C   UNL     1       0.110  -7.010   7.221  0.00  0.00    +0.162 A 
ATOM     16  C   UNL     1       1.017  -7.703   6.425  0.00  0.00    +0.162 A 
ATOM     17  C   UNL     1       2.026  -7.015   5.770  0.00  0.00    +0.055 A 
BRANCH  16  18
ATOM     18  O   UNL     1       0.911  -9.052   6.286  0.00  0.00    -0.489 OA
BRANCH  18  19
ATOM     19  C   UNL     1       1.877  -9.696   5.453  0.00  0.00    +0.226 C 
ATOM     20  C   UNL     1       1.599 -11.200   5.420  0.00  0.00    +0.048 C 
ENDBRANCH  18  19
ENDBRANCH  16  18
BRANCH  15  21
ATOM     21  O   UNL     1      -0.884  -7.681   7.863  0.00  0.00    -0.484 OA
BRANCH  21  22
ATOM     22  C   UNL     1      -1.778  -6.905   8.663  0.00  0.00    +0.264 C 
BRANCH  22  23
ATOM     23  C   UNL     1      -2.805  -7.812   9.291  0.00  0.00    -0.010 A 
ATOM     24  C   UNL     1      -3.989  -8.078   8.629  0.00  0.00    +0.008 A 
ATOM     25  C   UNL     1      -4.931  -8.909   9.204  0.00  0.00    +0.020 A 
ATOM     26  C   UNL     1      -4.690  -9.475  10.444  0.00  0.00    +0.041 A 
ATOM     27  C   UNL     1      -3.505  -9.208  11.106  0.00  0.00    +0.020 A 
ATOM     28  C   UNL     1      -2.561  -8.381  10.527  0.00  0.00    +0.008 A 
ATOM     29 CL   UNL     1      -5.873 -10.519  11.168  0.00  0.00    -0.084 Cl
ENDBRANCH  22  23
ENDBRANCH  21  22
ENDBRANCH  15  21
ENDBRANCH   6  12
BRANCH   7  30
ATOM     30  C   UNL     1       4.962  -4.978   7.014  0.00  0.00    +0.160 C 
ATOM     31  O   UNL     1       6.166  -4.875   6.886  0.00  0.00    -0.293 OA
ATOM     32  C   UNL     1       4.390  -5.939   8.024  0.00  0.00    +0.091 C 
ENDBRANCH   7  30
BRANCH   1  33
ATOM     33  S   UNL     1       0.754  -2.550   1.186  0.00  0.00    -0.084 S 
BRANCH  33  34
ATOM     34  C   UNL     1       0.612  -0.741   1.168  0.00  0.00    +0.077 C 
BRANCH  34  36
ATOM     35  C   UNL     1      -0.264   1.223  -0.103  0.00  0.00    +0.004 C 
ATOM     36  C   UNL     1      -0.144  -0.302  -0.088  0.00  0.00    +0.008 C 
ENDBRANCH  34  36
ENDBRANCH  33  34
ENDBRANCH   1  33
TORSDOF 10
