REMARK  Name = ZINC36038861
REMARK  14 active torsions:
REMARK  status: ('A' for Active; 'I' for Inactive)
REMARK    1  A    between atoms: C_1  and  C_2
REMARK    2  A    between atoms: C_2  and  N_3
REMARK    3  A    between atoms: N_3  and  C_4
REMARK    4  A    between atoms: C_4  and  C_5
REMARK    5  A    between atoms: C_8  and  C_27
REMARK    6  A    between atoms: C_10  and  S_12
REMARK    7  A    between atoms: S_12  and  C_13
REMARK    8  A    between atoms: C_13  and  C_14
REMARK    9  A    between atoms: C_17  and  C_19
REMARK   10  A    between atoms: N_21  and  C_22
REMARK   11  A    between atoms: C_22  and  C_23
REMARK   12  A    between atoms: C_23  and  N_24
REMARK   13  A    between atoms: N_24  and  C_25
REMARK   14  A    between atoms: N_24  and  C_26
REMARK                            x       y       z     vdW  Elec       q    Type
REMARK                         _______ _______ _______ _____ _____    ______ ____
ROOT
ATOM      1  N   UNL     1       0.711  -0.489   1.189  0.00  0.00    -0.316 N 
ATOM      2  C   UNL     1       2.079  -0.702   1.140  0.00  0.00    +0.126 A 
ATOM      3  C   UNL     1       2.808  -0.353   0.004  0.00  0.00    +0.072 A 
ATOM      4  C   UNL     1       4.181  -0.585   0.001  0.00  0.00    +0.077 A 
ATOM      5  N   UNL     1       4.749  -1.129   1.078  0.00  0.00    -0.222 NA
ATOM      6  C   UNL     1       4.023  -1.446   2.139  0.00  0.00    +0.191 A 
ATOM      7  N   UNL     1       2.715  -1.235   2.179  0.00  0.00    -0.207 NA
ENDROOT
BRANCH   4   8
ATOM      8  C   UNL     1       5.001  -0.233  -1.184  0.00  0.00    +0.001 A 
ATOM      9  C   UNL     1       4.402   0.340  -2.304  0.00  0.00    +0.010 A 
ATOM     10  C   UNL     1       5.170   0.666  -3.404  0.00  0.00    +0.001 A 
ATOM     11  C   UNL     1       6.532   0.425  -3.395  0.00  0.00    +0.000 A 
ATOM     12  C   UNL     1       7.132  -0.143  -2.286  0.00  0.00    +0.001 A 
ATOM     13  C   UNL     1       6.375  -0.468  -1.179  0.00  0.00    +0.010 A 
ENDBRANCH   4   8
BRANCH   1  15
ATOM     14  C   UNL     1      -0.019   1.526   0.010  0.00  0.00    +0.024 C 
ATOM     15  C   UNL     1       0.002  -0.004   0.002  0.00  0.00    +0.103 C 
ENDBRANCH   1  15
BRANCH   1  16
ATOM     16  C   UNL     1      -0.028  -0.750   2.427  0.00  0.00    +0.103 C 
ATOM     17  C   UNL     1      -0.511  -2.202   2.437  0.00  0.00    +0.024 C 
ENDBRANCH   1  16
BRANCH   6  18
ATOM     18  S   UNL     1       4.819  -2.163   3.538  0.00  0.00    -0.078 S 
BRANCH  18  19
ATOM     19  C   UNL     1       6.564  -2.257   3.050  0.00  0.00    +0.151 C 
BRANCH  19  20
ATOM     20  C   UNL     1       7.367  -2.861   4.174  0.00  0.00    +0.116 A 
ATOM     21  C   UNL     1       7.621  -4.178   4.341  0.00  0.00    +0.046 A 
ATOM     22  C   UNL     1       8.399  -4.304   5.502  0.00  0.00    +0.055 A 
ATOM     23  C   UNL     1       8.582  -3.043   5.991  0.00  0.00    +0.189 A 
ATOM     24  O   UNL     1       7.952  -2.180   5.167  0.00  0.00    -0.454 OA
BRANCH  23  25
ATOM     25  C   UNL     1       9.337  -2.688   7.198  0.00  0.00    +0.279 C 
ATOM     26  O   UNL     1       9.867  -3.558   7.862  0.00  0.00    -0.267 OA
ATOM     27  N   UNL     1       9.441  -1.397   7.571  0.00  0.00    -0.311 N 
ATOM     28  H   UNL     1       9.018  -0.703   7.042  0.00  0.00    +0.149 HD
BRANCH  27  29
ATOM     29  C   UNL     1      10.195  -1.042   8.777  0.00  0.00    +0.086 C 
BRANCH  29  30
ATOM     30  C   UNL     1      10.158   0.475   8.973  0.00  0.00    -0.061 C 
BRANCH  30  31
ATOM     31  N   UNL     1      10.914   0.830  10.182  0.00  0.00    +0.377 N 
ATOM     32  C   UNL     1      10.980   2.293  10.305  0.00  0.00    -0.097 C 
ATOM     33  C   UNL     1      10.242   0.270  11.361  0.00  0.00    -0.097 C 
ATOM     34  H   UNL     1      11.848   0.455  10.117  0.00  0.00    -0.083 HD
ENDBRANCH  30  31
ENDBRANCH  29  30
ENDBRANCH  27  29
ENDBRANCH  23  25
ENDBRANCH  19  20
ENDBRANCH  18  19
ENDBRANCH   6  18
TORSDOF 10
