REMARK  Name = ZINC66901046
REMARK  5 active torsions:
REMARK  status: ('A' for Active; 'I' for Inactive)
REMARK    1  A    between atoms: C_1  and  C_2
REMARK    2  A    between atoms: C_2  and  N_9
REMARK    3  A    between atoms: N_9  and  S_10
REMARK    4  A    between atoms: S_10  and  C_13
REMARK    5  A    between atoms: C_14  and  C_15
REMARK                            x       y       z     vdW  Elec       q    Type
REMARK                         _______ _______ _______ _____ _____    ______ ____
ROOT
ATOM      1  S   UNL     1       0.358  -0.145  -2.675  0.00  0.00    +0.052 S 
ATOM      2  O   UNL     1       1.310  -0.908  -3.405  0.00  0.00    -0.154 OA
ATOM      3  O   UNL     1      -1.039  -0.243  -2.914  0.00  0.00    -0.154 OA
ENDROOT
BRANCH   1   4
ATOM      4  N   UNL     1       0.592  -0.503  -1.075  0.00  0.00    -0.183 NA
ATOM      5  H   UNL     1       1.255  -1.162  -0.817  0.00  0.00    +0.149 HD
BRANCH   4   7
ATOM      6  C   UNL     1      -1.681   0.084  -0.436  0.00  0.00    +0.031 C 
ATOM      7  C   UNL     1      -0.204   0.176  -0.049  0.00  0.00    +0.058 C 
ATOM      8  C   UNL     1      -0.000  -0.547   1.281  0.00  0.00    +0.047 C 
ATOM      9  C   UNL     1       1.199   0.072   2.053  0.00  0.00    +0.168 C 
ATOM     10  S   UNL     1       0.920   1.858   1.675  0.00  0.00    -0.029 S 
ATOM     11  O   UNL     1      -0.077   2.370   2.549  0.00  0.00    -0.174 OA
ATOM     12  O   UNL     1       2.175   2.517   1.577  0.00  0.00    -0.174 OA
ATOM     13  C   UNL     1       0.204   1.662  -0.011  0.00  0.00    +0.189 C 
ENDBRANCH   4   7
ENDBRANCH   1   4
BRANCH   1  14
ATOM     14  C   UNL     1       0.790   1.548  -2.899  0.00  0.00    +0.153 C 
ATOM     15  C   UNL     1       1.805   1.874  -3.688  0.00  0.00    +0.028 C 
BRANCH  15  16
ATOM     16  C   UNL     1       2.168   3.295  -3.875  0.00  0.00    -0.023 A 
ATOM     17  C   UNL     1       1.448   4.295  -3.220  0.00  0.00    +0.008 A 
ATOM     18  C   UNL     1       1.790   5.619  -3.399  0.00  0.00    +0.002 A 
ATOM     19  C   UNL     1       2.846   5.957  -4.227  0.00  0.00    +0.015 A 
ATOM     20  C   UNL     1       3.565   4.971  -4.880  0.00  0.00    +0.018 A 
ATOM     21  C   UNL     1       3.235   3.642  -4.704  0.00  0.00    +0.023 A 
ATOM     22 BR   UNL     1       5.005   5.444  -6.010  0.00  0.00    -0.050 Br
ENDBRANCH  15  16
ENDBRANCH   1  14
TORSDOF 4
