REMARK  Name = ZINC45738024
REMARK  6 active torsions:
REMARK  status: ('A' for Active; 'I' for Inactive)
REMARK    1  A    between atoms: C_1  and  C_2
REMARK    2  A    between atoms: C_11  and  N_30
REMARK    3  A    between atoms: C_13  and  C_15
REMARK    4  A    between atoms: C_15  and  S_16
REMARK    5  A    between atoms: S_16  and  C_17
REMARK    6  A    between atoms: N_21  and  C_22
REMARK                            x       y       z     vdW  Elec       q    Type
REMARK                         _______ _______ _______ _____ _____    ______ ____
ROOT
ATOM      1  C   UNL     1      -2.063   0.588  -0.599  0.00  0.00    +0.008 C 
ATOM      2  C   UNL     1      -1.562  -0.858  -0.615  0.00  0.00    -0.009 C 
ATOM      3  C   UNL     1      -0.563  -1.043  -1.761  0.00  0.00    +0.008 C 
ATOM      4  C   UNL     1      -0.248  -2.528  -1.939  0.00  0.00    +0.037 C 
ATOM      5  C   UNL     1       0.185  -3.107  -0.595  0.00  0.00    -0.025 A 
ATOM      6  C   UNL     1      -0.110  -2.463   0.557  0.00  0.00    -0.004 A 
ATOM      7  S   UNL     1       0.572  -3.475   1.847  0.00  0.00    -0.073 S 
ATOM      8  C   UNL     1       1.252  -4.757   0.844  0.00  0.00    +0.114 A 
ATOM      9  C   UNL     1       0.922  -4.354  -0.475  0.00  0.00    +0.051 A 
ATOM     10  C   UNL     1       1.347  -5.207  -1.533  0.00  0.00    +0.128 A 
ATOM     11  N   UNL     1       2.013  -6.300  -1.165  0.00  0.00    -0.216 NA
ATOM     12  C   UNL     1       2.284  -6.611   0.086  0.00  0.00    +0.143 A 
ATOM     13  N   UNL     1       1.917  -5.861   1.119  0.00  0.00    -0.224 NA
ATOM     14  C   UNL     1      -0.857  -1.173   0.712  0.00  0.00    +0.046 C 
ENDROOT
BRANCH  10  15
ATOM     15  N   UNL     1       1.085  -4.918  -2.860  0.00  0.00    -0.343 N 
ATOM     16  H   UNL     1       1.577  -5.372  -3.562  0.00  0.00    +0.144 HD
ATOM     17  H   UNL     1       0.408  -4.262  -3.089  0.00  0.00    +0.144 HD
ENDBRANCH  10  15
BRANCH  12  18
ATOM     18  C   UNL     1       3.046  -7.882   0.359  0.00  0.00    +0.153 C 
BRANCH  18  19
ATOM     19  S   UNL     1       4.826  -7.530   0.365  0.00  0.00    -0.078 S 
BRANCH  19  20
ATOM     20  C   UNL     1       5.569  -9.094   0.693  0.00  0.00    +0.193 A 
ATOM     21  N   UNL     1       4.933 -10.225   0.877  0.00  0.00    -0.121 NA
ATOM     22  N   UNL     1       5.887 -11.225   1.107  0.00  0.00    -0.112 NA
ATOM     23  C   UNL     1       7.074 -10.671   1.057  0.00  0.00    +0.221 A 
ATOM     24  N   UNL     1       6.909  -9.341   0.795  0.00  0.00    -0.287 N 
ATOM     25  N   UNL     1       8.287 -11.324   1.235  0.00  0.00    -0.300 N 
ATOM     26  C   UNL     1       9.614 -10.694   1.184  0.00  0.00    +0.108 C 
ATOM     27  C   UNL     1      10.659 -11.807   1.411  0.00  0.00    +0.020 C 
ATOM     28  C   UNL     1       9.888 -13.093   1.013  0.00  0.00    +0.020 C 
ATOM     29  C   UNL     1       8.457 -12.762   1.512  0.00  0.00    +0.108 C 
BRANCH  24  30
ATOM     30  C   UNL     1       7.980  -8.352   0.651  0.00  0.00    +0.093 C 
ATOM     31  C   UNL     1       7.600  -6.875   0.773  0.00  0.00    +0.027 C 
ATOM     32  C   UNL     1       7.959  -7.463  -0.593  0.00  0.00    +0.027 C 
ENDBRANCH  24  30
ENDBRANCH  19  20
ENDBRANCH  18  19
ENDBRANCH  12  18
TORSDOF 5
