REMARK  Name = ZINC39324812
REMARK  9 active torsions:
REMARK  status: ('A' for Active; 'I' for Inactive)
REMARK    1  A    between atoms: C_1  and  C_2
REMARK    2  A    between atoms: C_2  and  C_3
REMARK    3  A    between atoms: C_2  and  C_4
REMARK    4  A    between atoms: C_2  and  C_5
REMARK    5  A    between atoms: C_13  and  C_25
REMARK    6  A    between atoms: C_15  and  C_21
REMARK    7  A    between atoms: C_15  and  C_23
REMARK    8  A    between atoms: C_16  and  N_20
REMARK    9  A    between atoms: C_17  and  C_18
REMARK                            x       y       z     vdW  Elec       q    Type
REMARK                         _______ _______ _______ _____ _____    ______ ____
ROOT
ATOM      1  C   UNL     1       0.718  -0.497  -1.257  0.00  0.00    -0.001 C 
ATOM      2  C   UNL     1       0.754  -2.032  -1.264  0.00  0.00    +0.031 C 
ATOM      3  C   UNL     1       1.433  -2.468  -2.537  0.00  0.00    -0.021 C 
ATOM      4  C   UNL     1       2.394  -1.743  -3.074  0.00  0.00    -0.029 C 
ATOM      5  C   UNL     1       2.928  -0.480  -2.465  0.00  0.00    +0.031 C 
ATOM      6  C   UNL     1       2.156   0.018  -1.266  0.00  0.00    +0.013 C 
ATOM      7  C   UNL     1       3.030   0.578  -3.564  0.00  0.00    +0.073 C 
ATOM      8  C   UNL     1       4.040   0.105  -4.612  0.00  0.00    +0.189 C 
ATOM      9  C   UNL     1       3.754  -1.294  -5.066  0.00  0.00    +0.054 C 
ATOM     10  C   UNL     1       3.001  -2.175  -4.360  0.00  0.00    +0.074 C 
ENDROOT
BRANCH   7  11
ATOM     11  C   UNL     1       1.682   0.768  -4.209  0.00  0.00    -0.002 A 
ATOM     12  C   UNL     1       0.927   1.890  -4.294  0.00  0.00    +0.013 A 
ATOM     13  C   UNL     1      -0.294   1.831  -4.940  0.00  0.00    +0.028 A 
ATOM     14  C   UNL     1      -0.699   0.650  -5.471  0.00  0.00    +0.078 A 
ATOM     15  S   UNL     1       0.667  -0.425  -5.067  0.00  0.00    -0.081 S 
ATOM     16 CL   UNL     1      -2.164   0.282  -6.327  0.00  0.00    -0.076 Cl
ENDBRANCH   7  11
BRANCH   1  18
ATOM     17  C   UNL     1      -0.019   1.526   0.010  0.00  0.00    +0.011 C 
ATOM     18  C   UNL     1       0.002  -0.004   0.002  0.00  0.00    -0.035 C 
ATOM     19  C   UNL     1       0.742  -0.511   1.242  0.00  0.00    +0.011 C 
ATOM     20  C   UNL     1      -1.433  -0.534   0.013  0.00  0.00    +0.011 C 
ENDBRANCH   1  18
BRANCH   9  21
ATOM     21  N   UNL     1       4.282  -1.706  -6.258  0.00  0.00    -0.358 N 
ATOM     22  H   UNL     1       4.825  -1.098  -6.784  0.00  0.00    +0.142 HD
ATOM     23  H   UNL     1       4.114  -2.606  -6.577  0.00  0.00    +0.142 HD
ENDBRANCH   9  21
BRANCH  10  24
ATOM     24  C   UNL     1       2.794  -3.505  -4.849  0.00  0.00    +0.101 C 
ATOM     25  N   UNL     1       2.629  -4.560  -5.236  0.00  0.00    -0.191 NA
ENDBRANCH  10  24
BRANCH   8  26
ATOM     26  C   UNL     1       3.984   1.008  -5.773  0.00  0.00    +0.091 C 
ATOM     27  N   UNL     1       3.940   1.705  -6.670  0.00  0.00    -0.194 NA
ENDBRANCH   8  26
BRANCH   8  28
ATOM     28  C   UNL     1       5.392   0.156  -4.032  0.00  0.00    +0.091 C 
ATOM     29  N   UNL     1       6.435   0.194  -3.585  0.00  0.00    -0.194 NA
ENDBRANCH   8  28
TORSDOF 6
