REMARK  Name = ZINC35794675
REMARK  8 active torsions:
REMARK  status: ('A' for Active; 'I' for Inactive)
REMARK    1  A    between atoms: C_3  and  O_8
REMARK    2  A    between atoms: O_8  and  C_9
REMARK    3  A    between atoms: C_9  and  C_10
REMARK    4  A    between atoms: C_10  and  C_12
REMARK    5  A    between atoms: N_18  and  C_23
REMARK    6  A    between atoms: C_23  and  C_24
REMARK    7  A    between atoms: C_27  and  C_29
REMARK    8  A    between atoms: N_31  and  C_32
REMARK                            x       y       z     vdW  Elec       q    Type
REMARK                         _______ _______ _______ _____ _____    ______ ____
ROOT
ATOM      1  C   UNL     1       7.304   1.739  -0.059  0.00  0.00    +0.023 A 
ATOM      2  C   UNL     1       7.509   0.354  -0.074  0.00  0.00    +0.015 A 
ATOM      3  C   UNL     1       8.789  -0.155  -0.089  0.00  0.00    +0.048 A 
ATOM      4  C   UNL     1       9.879   0.704  -0.091  0.00  0.00    +0.143 A 
ATOM      5  C   UNL     1       9.683   2.088  -0.076  0.00  0.00    +0.079 A 
ATOM      6  C   UNL     1       8.404   2.606  -0.066  0.00  0.00    +0.038 A 
ATOM      7  N   UNL     1      10.799   2.938  -0.077  0.00  0.00    -0.258 N 
ATOM      8  C   UNL     1      12.007   2.432  -0.408  0.00  0.00    +0.258 C 
ATOM      9  O   UNL     1      12.991   3.141  -0.387  0.00  0.00    -0.271 OA
ATOM     10  C   UNL     1      12.127   0.982  -0.803  0.00  0.00    +0.325 C 
ATOM     11  O   UNL     1      11.145   0.211  -0.107  0.00  0.00    -0.481 OA
ENDROOT
BRANCH   1  12
ATOM     12  C   UNL     1       5.939   2.281  -0.043  0.00  0.00    +0.200 C 
ATOM     13  O   UNL     1       5.763   3.481  -0.036  0.00  0.00    -0.288 OA
BRANCH  12  14
ATOM     14  C   UNL     1       4.757   1.346  -0.037  0.00  0.00    +0.308 C 
BRANCH  14  15
ATOM     15  O   UNL     1       3.548   2.107  -0.021  0.00  0.00    -0.484 OA
BRANCH  15  18
ATOM     16  C   UNL     1      -0.017   1.378   0.010  0.00  0.00    +0.006 A 
ATOM     17  C   UNL     1       1.169   2.087   0.002  0.00  0.00    +0.046 A 
ATOM     18  C   UNL     1       2.381   1.411  -0.013  0.00  0.00    +0.124 A 
ATOM     19  C   UNL     1       2.400   0.024  -0.021  0.00  0.00    +0.084 A 
ATOM     20  C   UNL     1       1.210  -0.682  -0.013  0.00  0.00    +0.127 A 
ATOM     21  C   UNL     1       0.002  -0.004   0.002  0.00  0.00    +0.038 A 
ATOM     22  F   UNL     1       1.226  -2.033  -0.021  0.00  0.00    -0.205 F 
ENDBRANCH  15  18
ENDBRANCH  14  15
ENDBRANCH  12  14
ENDBRANCH   1  12
BRANCH   7  23
ATOM     23  C   UNL     1      10.656   4.353   0.276  0.00  0.00    +0.188 C 
BRANCH  23  24
ATOM     24  C   UNL     1      10.848   4.522   1.761  0.00  0.00    +0.124 A 
ATOM     25  C   UNL     1      12.025   4.764   2.379  0.00  0.00    +0.047 A 
ATOM     26  C   UNL     1      11.759   4.853   3.755  0.00  0.00    +0.055 A 
ATOM     27  C   UNL     1      10.416   4.658   3.907  0.00  0.00    +0.189 A 
ATOM     28  O   UNL     1       9.880   4.464   2.684  0.00  0.00    -0.453 OA
BRANCH  27  29
ATOM     29  C   UNL     1       9.683   4.664   5.178  0.00  0.00    +0.280 C 
ATOM     30  O   UNL     1      10.278   4.854   6.222  0.00  0.00    -0.267 OA
ATOM     31  N   UNL     1       8.351   4.458   5.189  0.00  0.00    -0.306 N 
ATOM     32  H   UNL     1       7.877   4.306   4.356  0.00  0.00    +0.149 HD
BRANCH  31  33
ATOM     33  C   UNL     1       7.620   4.463   6.458  0.00  0.00    +0.073 C 
ATOM     34  C   UNL     1       7.692   3.074   7.094  0.00  0.00    +0.022 C 
ATOM     35  C   UNL     1       6.928   3.080   8.420  0.00  0.00    +0.002 C 
ATOM     36  C   UNL     1       5.465   3.448   8.164  0.00  0.00    +0.000 C 
ATOM     37  C   UNL     1       5.393   4.837   7.527  0.00  0.00    +0.002 C 
ATOM     38  C   UNL     1       6.157   4.832   6.202  0.00  0.00    +0.022 C 
ENDBRANCH  31  33
ENDBRANCH  27  29
ENDBRANCH  23  24
ENDBRANCH   7  23
TORSDOF 8
