REMARK  Name = ZINC19299747
REMARK  10 active torsions:
REMARK  status: ('A' for Active; 'I' for Inactive)
REMARK    1  A    between atoms: C_1  and  O_2
REMARK    2  A    between atoms: O_2  and  C_3
REMARK    3  A    between atoms: C_7  and  C_9
REMARK    4  A    between atoms: C_9  and  N_10
REMARK    5  A    between atoms: C_21  and  N_25
REMARK    6  A    between atoms: N_25  and  C_26
REMARK    7  A    between atoms: C_26  and  C_27
REMARK    8  A    between atoms: C_27  and  C_28
REMARK    9  A    between atoms: C_33  and  O_34
REMARK   10  A    between atoms: O_34  and  C_35
REMARK                            x       y       z     vdW  Elec       q    Type
REMARK                         _______ _______ _______ _____ _____    ______ ____
ROOT
ATOM      1  N   UNL     1      -1.845   0.677   6.478  0.00  0.00    -0.294 N 
ATOM      2  C   UNL     1      -3.129   0.800   6.052  0.00  0.00    +0.203 A 
ATOM      3  N   UNL     1      -4.042  -0.068   6.398  0.00  0.00    -0.230 NA
ATOM      4  C   UNL     1      -3.744  -1.095   7.189  0.00  0.00    +0.116 A 
ATOM      5  C   UNL     1      -2.446  -1.302   7.683  0.00  0.00    +0.076 A 
ATOM      6  C   UNL     1      -1.467  -0.335   7.280  0.00  0.00    +0.263 A 
ATOM      7  O   UNL     1      -0.312  -0.429   7.657  0.00  0.00    -0.267 OA
ATOM      8  C   UNL     1      -2.267  -2.473   8.540  0.00  0.00    -0.023 A 
ATOM      9  C   UNL     1      -3.357  -3.235   8.771  0.00  0.00    -0.006 A 
ATOM     10  S   UNL     1      -4.667  -2.447   7.874  0.00  0.00    -0.073 S 
ATOM     11  C   UNL     1      -3.436  -4.476   9.606  0.00  0.00    +0.027 C 
ATOM     12  C   UNL     1      -2.007  -4.974   9.869  0.00  0.00    -0.067 C 
ATOM     13  C   UNL     1      -1.150  -3.791  10.326  0.00  0.00    -0.011 C 
ATOM     14  C   UNL     1      -0.918  -2.835   9.155  0.00  0.00    +0.035 C 
ENDROOT
BRANCH  12  15
ATOM     15  N   UNL     1      -2.029  -6.001  10.920  0.00  0.00    +0.381 N 
ATOM     16  H   UNL     1      -1.049  -6.037  11.418  0.00  0.00    -0.086 HD
ATOM     17  H   UNL     1      -2.807  -5.755  11.657  0.00  0.00    -0.086 HD
BRANCH  15  18
ATOM     18  C   UNL     1      -2.319  -7.326  10.355  0.00  0.00    -0.077 C 
BRANCH  18  19
ATOM     19  C   UNL     1      -2.333  -8.367  11.476  0.00  0.00    +0.020 C 
BRANCH  19  20
ATOM     20  C   UNL     1      -2.631  -9.726  10.897  0.00  0.00    -0.007 A 
ATOM     21  C   UNL     1      -3.926 -10.206  10.890  0.00  0.00    +0.007 A 
ATOM     22  C   UNL     1      -4.200 -11.451  10.355  0.00  0.00    +0.000 A 
ATOM     23  C   UNL     1      -3.177 -12.223   9.834  0.00  0.00    +0.004 A 
ATOM     24  C   UNL     1      -1.880 -11.749   9.843  0.00  0.00    +0.046 A 
ATOM     25  C   UNL     1      -1.603 -10.498  10.375  0.00  0.00    +0.123 A 
BRANCH  25  26
ATOM     26  O   UNL     1      -0.327 -10.029  10.386  0.00  0.00    -0.495 OA
ATOM     27  C   UNL     1       0.680 -10.878   9.832  0.00  0.00    +0.277 C 
ENDBRANCH  25  26
ENDBRANCH  19  20
ENDBRANCH  18  19
ENDBRANCH  15  18
ENDBRANCH  12  15
BRANCH   1  28
ATOM     28  C   UNL     1      -0.852   1.671   6.060  0.00  0.00    +0.161 C 
BRANCH  28  33
ATOM     29  C   UNL     1      -0.149   1.182   2.380  0.00  0.00    +0.120 A 
ATOM     30  C   UNL     1       0.991   0.392   2.421  0.00  0.00    +0.045 A 
ATOM     31  C   UNL     1       1.534   0.028   3.637  0.00  0.00    +0.004 A 
ATOM     32  C   UNL     1       0.936   0.440   4.814  0.00  0.00    +0.005 A 
ATOM     33  C   UNL     1      -0.203   1.222   4.776  0.00  0.00    -0.024 A 
ATOM     34  C   UNL     1      -0.747   1.594   3.561  0.00  0.00    +0.051 A 
BRANCH  29  36
ATOM     35  C   UNL     1      -0.013   1.086   0.008  0.00  0.00    +0.277 C 
ATOM     36  O   UNL     1      -0.682   1.547   1.184  0.00  0.00    -0.495 OA
ENDBRANCH  29  36
ENDBRANCH  28  33
ENDBRANCH   1  28
TORSDOF 8
