REMARK  Name = ZINC38657260
REMARK  7 active torsions:
REMARK  status: ('A' for Active; 'I' for Inactive)
REMARK    1  A    between atoms: C_1  and  C_2
REMARK    2  A    between atoms: C_7  and  C_8
REMARK    3  A    between atoms: C_8  and  O_10
REMARK    4  A    between atoms: O_10  and  C_11
REMARK    5  A    between atoms: C_18  and  N_29
REMARK    6  A    between atoms: C_19  and  C_27
REMARK    7  A    between atoms: C_20  and  C_22
REMARK                            x       y       z     vdW  Elec       q    Type
REMARK                         _______ _______ _______ _____ _____    ______ ____
ROOT
ATOM      1  C   UNL     1       0.200  -0.296   4.996  0.00  0.00    +0.135 A 
ATOM      2  C   UNL     1       0.064   1.085   4.963  0.00  0.00    +0.047 A 
ATOM      3  C   UNL     1       0.051   1.806   6.141  0.00  0.00    +0.012 A 
ATOM      4  C   UNL     1       0.172   1.156   7.357  0.00  0.00    +0.011 A 
ATOM      5  C   UNL     1       0.308  -0.222   7.396  0.00  0.00    +0.138 A 
ATOM      6  C   UNL     1       0.316  -0.949   6.212  0.00  0.00    +0.093 A 
ATOM      7  O   UNL     1       0.429  -0.876   8.578  0.00  0.00    -0.441 OA
ATOM      8  C   UNL     1       0.042  -0.279   9.717  0.00  0.00    +0.199 C 
ATOM      9  C   UNL     1      -0.107   1.064   9.807  0.00  0.00    +0.101 C 
ATOM     10  C   UNL     1       0.156   1.960   8.630  0.00  0.00    +0.134 C 
ENDROOT
BRANCH  10  11
ATOM     11  C   UNL     1       1.490   2.640   8.808  0.00  0.00    +0.117 A 
ATOM     12  C   UNL     1       1.691   3.967   8.895  0.00  0.00    +0.045 A 
ATOM     13  C   UNL     1       3.082   4.161   9.056  0.00  0.00    +0.041 A 
ATOM     14  C   UNL     1       3.648   2.940   9.057  0.00  0.00    +0.195 A 
ATOM     15  O   UNL     1       2.678   2.023   8.913  0.00  0.00    -0.467 OA
ENDBRANCH  10  11
BRANCH   8  16
ATOM     16  N   UNL     1      -0.211  -1.053  10.822  0.00  0.00    -0.328 N 
ATOM     17  H   UNL     1      -0.109  -2.016  10.773  0.00  0.00    +0.145 HD
ATOM     18  H   UNL     1      -0.491  -0.636  11.652  0.00  0.00    +0.145 HD
ENDBRANCH   8  16
BRANCH   9  19
ATOM     19  C   UNL     1      -0.524   1.642  11.049  0.00  0.00    +0.101 C 
ATOM     20  N   UNL     1      -0.855   2.100  12.034  0.00  0.00    -0.191 NA
ENDBRANCH   9  19
BRANCH   1  21
ATOM     21  O   UNL     1       0.213  -1.007   3.838  0.00  0.00    -0.422 OA
BRANCH  21  22
ATOM     22  C   UNL     1       1.360  -1.044   3.132  0.00  0.00    +0.345 C 
ATOM     23  O   UNL     1       2.371  -0.551   3.590  0.00  0.00    -0.245 OA
BRANCH  22  30
ATOM     24  C   UNL     1       3.752  -0.876   1.513  0.00  0.00    +0.044 C 
ATOM     25  C   UNL     1       2.536  -1.610   1.010  0.00  0.00    -0.036 A 
ATOM     26  C   UNL     1       2.556  -2.215  -0.229  0.00  0.00    +0.004 A 
ATOM     27  C   UNL     1       1.440  -2.889  -0.692  0.00  0.00    +0.000 A 
ATOM     28  C   UNL     1       0.296  -2.961   0.083  0.00  0.00    +0.001 A 
ATOM     29  C   UNL     1       0.262  -2.360   1.324  0.00  0.00    +0.015 A 
ATOM     30  C   UNL     1       1.387  -1.684   1.801  0.00  0.00    +0.062 A 
ENDBRANCH  22  30
ENDBRANCH  21  22
ENDBRANCH   1  21
TORSDOF 6
