REMARK  Name = ZINC00718682
REMARK  8 active torsions:
REMARK  status: ('A' for Active; 'I' for Inactive)
REMARK    1  A    between atoms: C_1  and  C_2
REMARK    2  A    between atoms: C_2  and  O_3
REMARK    3  A    between atoms: O_3  and  C_4
REMARK    4  A    between atoms: C_6  and  C_19
REMARK    5  A    between atoms: C_9  and  O_10
REMARK    6  A    between atoms: O_10  and  C_11
REMARK    7  A    between atoms: C_11  and  C_12
REMARK    8  A    between atoms: C_21  and  C_25
REMARK                            x       y       z     vdW  Elec       q    Type
REMARK                         _______ _______ _______ _____ _____    ______ ____
ROOT
ATOM      1  C   UNK     1      -1.649   5.558  -4.233  0.00  0.00    +0.162 A 
ATOM      2  C   UNK     1      -0.818   4.537  -3.800  0.00  0.00    +0.052 A 
ATOM      3  C   UNK     1      -1.045   3.933  -2.577  0.00  0.00    -0.048 A 
ATOM      4  C   UNK     1      -2.102   4.342  -1.786  0.00  0.00    +0.006 A 
ATOM      5  C   UNK     1      -2.931   5.364  -2.210  0.00  0.00    +0.049 A 
ATOM      6  C   UNK     1      -2.710   5.973  -3.435  0.00  0.00    +0.162 A 
ENDROOT
BRANCH   3   7
ATOM      7  C   UNK     1      -0.140   2.823  -2.108  0.00  0.00    +0.020 C 
ATOM      8  C   UNK     1      -0.018   1.503   0.010  0.00  0.00    +0.055 C 
ATOM      9  C   UNK     1       1.443   2.014  -0.001  0.00  0.00    +0.063 C 
ATOM     10  S   UNK     1       1.260   3.487  -1.103  0.00  0.00    -0.173 S 
ATOM     11  N   UNK     1      -0.872   1.948  -1.118  0.00  0.00    +0.399 N 
ATOM     12  H   UNK     1      -1.220   1.118  -1.611  0.00  0.00    -0.083 HD
ATOM     13  H   UNK     1      -1.665   2.478  -0.738  0.00  0.00    -0.083 HD
BRANCH   8  14
ATOM     14  C   UNK     1       0.002  -0.004   0.002  0.00  0.00    +0.343 C 
ATOM     15  O   UNK     1      -0.181  -0.605  -1.030  0.00  0.00    -0.248 OA
ATOM     16  O   UNK     1       0.224  -0.678   1.141  0.00  0.00    -0.248 OA
ENDBRANCH   8  14
ENDBRANCH   3   7
BRANCH   1  17
ATOM     17  O   UNK     1      -1.427   6.152  -5.436  0.00  0.00    -0.489 OA
BRANCH  17  19
ATOM     18  C   UNK     1      -0.231   6.457  -7.514  0.00  0.00    +0.048 C 
ATOM     19  C   UNK     1      -0.320   5.674  -6.202  0.00  0.00    +0.226 C 
ENDBRANCH  17  19
ENDBRANCH   1  17
BRANCH   6  20
ATOM     20  O   UNK     1      -3.528   6.975  -3.856  0.00  0.00    -0.484 OA
BRANCH  20  21
ATOM     21  C   UNK     1      -4.597   7.349  -2.984  0.00  0.00    +0.264 C 
BRANCH  21  22
ATOM     22  C   UNK     1      -5.390   8.465  -3.613  0.00  0.00    -0.010 A 
ATOM     23  C   UNK     1      -5.045   9.781  -3.368  0.00  0.00    +0.008 A 
ATOM     24  C   UNK     1      -5.769  10.806  -3.949  0.00  0.00    +0.020 A 
ATOM     25  C   UNK     1      -6.846  10.514  -4.767  0.00  0.00    +0.041 A 
ATOM     26  C   UNK     1      -7.195   9.196  -5.007  0.00  0.00    +0.020 A 
ATOM     27  C   UNK     1      -6.466   8.173  -4.430  0.00  0.00    +0.008 A 
ATOM     28 CL   UNK     1      -7.760  11.800  -5.491  0.00  0.00    -0.084 Cl
ENDBRANCH  21  22
ENDBRANCH  20  21
ENDBRANCH   6  20
TORSDOF 7
