REMARK  Name = ZINC16610638
REMARK  9 active torsions:
REMARK  status: ('A' for Active; 'I' for Inactive)
REMARK    1  A    between atoms: C_1  and  C_2
REMARK    2  A    between atoms: C_2  and  N_3
REMARK    3  A    between atoms: C_4  and  C_32
REMARK    4  A    between atoms: C_5  and  C_28
REMARK    5  A    between atoms: C_6  and  C_11
REMARK    6  A    between atoms: C_14  and  N_17
REMARK    7  A    between atoms: N_20  and  C_21
REMARK    8  A    between atoms: C_28  and  O_30
REMARK    9  A    between atoms: O_30  and  C_31
REMARK                            x       y       z     vdW  Elec       q    Type
REMARK                         _______ _______ _______ _____ _____    ______ ____
ROOT
ATOM      1  C   UNL     1      -2.392   8.230   0.270  0.00  0.00    -0.022 A 
ATOM      2  C   UNL     1      -3.575   7.514   0.277  0.00  0.00    +0.007 A 
ATOM      3  C   UNL     1      -3.548   6.133   0.273  0.00  0.00    +0.024 A 
ATOM      4  C   UNL     1      -2.331   5.464   0.262  0.00  0.00    +0.035 A 
ATOM      5  C   UNL     1      -1.145   6.186   0.260  0.00  0.00    +0.024 A 
ATOM      6  C   UNL     1      -1.179   7.567   0.259  0.00  0.00    +0.007 A 
ENDROOT
BRANCH   1  10
ATOM      7  N   UNL     1      -0.418  11.415  -0.621  0.00  0.00    -0.286 N 
ATOM      8  C   UNL     1      -1.366  11.029  -1.523  0.00  0.00    +0.021 C 
ATOM      9  C   UNL     1      -2.378  10.210  -1.164  0.00  0.00    +0.078 C 
ATOM     10  C   UNL     1      -2.425   9.737   0.275  0.00  0.00    +0.141 C 
ATOM     11  N   UNL     1      -1.355  10.212   1.169  0.00  0.00    -0.315 N 
ATOM     12  C   UNL     1      -0.411  11.027   0.661  0.00  0.00    +0.138 C 
ATOM     13  S   UNL     1       0.839  11.587   1.688  0.00  0.00    -0.018 S 
ATOM     14  C   UNL     1      -1.282  11.524  -2.944  0.00  0.00    +0.061 C 
ATOM     15  H   UNL     1      -1.331   9.943   2.100  0.00  0.00    +0.149 HD
BRANCH   7  17
ATOM     16  C   UNL     1       1.772  11.472  -1.710  0.00  0.00    +0.025 C 
ATOM     17  C   UNL     1       0.652  12.304  -1.080  0.00  0.00    +0.109 C 
ENDBRANCH   7  17
BRANCH   9  18
ATOM     18  C   UNL     1      -3.361   9.809  -2.098  0.00  0.00    +0.339 C 
ATOM     19  O   UNL     1      -3.303  10.201  -3.249  0.00  0.00    -0.245 OA
BRANCH  18  20
ATOM     20  O   UNL     1      -4.363   8.990  -1.714  0.00  0.00    -0.465 OA
ATOM     21  C   UNL     1      -5.321   8.626  -2.710  0.00  0.00    +0.280 C 
ENDBRANCH  18  20
ENDBRANCH   9  18
ENDBRANCH   1  10
BRANCH   4  22
ATOM     22  N   UNL     1      -2.301   4.065   0.259  0.00  0.00    -0.269 N 
ATOM     23  C   UNL     1      -1.336   3.414  -0.421  0.00  0.00    +0.308 C 
ATOM     24  O   UNL     1      -0.446   4.040  -0.963  0.00  0.00    -0.252 OA
ATOM     25  N   UNL     1      -1.359   2.068  -0.500  0.00  0.00    -0.268 N 
ATOM     26  H   UNL     1      -2.973   3.564   0.746  0.00  0.00    +0.156 HD
ATOM     27  H   UNL     1      -2.104   1.573  -0.125  0.00  0.00    +0.156 HD
BRANCH  25  28
ATOM     28  C   UNL     1      -0.308   1.386  -1.124  0.00  0.00    +0.049 A 
ATOM     29  C   UNL     1       0.332   1.948  -2.221  0.00  0.00    +0.024 A 
ATOM     30  C   UNL     1       1.365   1.270  -2.838  0.00  0.00    +0.002 A 
ATOM     31  C   UNL     1       1.762   0.033  -2.366  0.00  0.00    +0.001 A 
ATOM     32  C   UNL     1       1.127  -0.530  -1.274  0.00  0.00    +0.017 A 
ATOM     33  C   UNL     1       0.093   0.143  -0.652  0.00  0.00    +0.039 A 
ATOM     34 BR   UNL     1      -0.776  -0.628   0.841  0.00  0.00    -0.048 Br
ENDBRANCH  25  28
ENDBRANCH   4  22
TORSDOF 6
