REMARK  Name = ZINC13445418
REMARK  9 active torsions:
REMARK  status: ('A' for Active; 'I' for Inactive)
REMARK    1  A    between atoms: C_1  and  C_2
REMARK    2  A    between atoms: C_3  and  C_31
REMARK    3  A    between atoms: C_4  and  C_30
REMARK    4  A    between atoms: C_9  and  S_11
REMARK    5  A    between atoms: S_11  and  C_12
REMARK    6  A    between atoms: C_12  and  C_13
REMARK    7  A    between atoms: N_15  and  C_16
REMARK    8  A    between atoms: C_21  and  N_22
REMARK    9  A    between atoms: C_31  and  C_32
REMARK                            x       y       z     vdW  Elec       q    Type
REMARK                         _______ _______ _______ _____ _____    ______ ____
ROOT
ATOM      1  C   UNL     1      -8.744  -4.571   1.530  0.00  0.00    +0.228 C 
ATOM      2  O   UNL     1      -8.857  -4.702   2.731  0.00  0.00    -0.275 OA
ATOM      3  N   UNL     1      -9.543  -5.269   0.699  0.00  0.00    -0.283 N 
ATOM      4  H   UNL     1      -9.497  -5.117  -0.258  0.00  0.00    +0.155 HD
ENDROOT
BRANCH   3   5
ATOM      5  C   UNL     1     -10.439  -6.213   1.216  0.00  0.00    +0.068 A 
ATOM      6  C   UNL     1     -11.061  -5.984   2.437  0.00  0.00    +0.075 A 
ATOM      7  C   UNL     1     -11.945  -6.920   2.942  0.00  0.00    +0.164 A 
ATOM      8  C   UNL     1     -12.208  -8.084   2.232  0.00  0.00    +0.164 A 
ATOM      9  C   UNL     1     -11.588  -8.313   1.016  0.00  0.00    +0.084 A 
ATOM     10  C   UNL     1     -10.708  -7.375   0.506  0.00  0.00    +0.151 A 
ATOM     11  O   UNL     1     -13.082  -9.001   2.742  0.00  0.00    -0.488 OA
ATOM     12  C   UNL     1     -12.651  -9.690   3.918  0.00  0.00    +0.232 C 
ATOM     13  C   UNL     1     -12.956  -8.873   5.163  0.00  0.00    +0.082 C 
ATOM     14  C   UNL     1     -12.172  -7.571   5.208  0.00  0.00    +0.232 C 
ATOM     15  O   UNL     1     -12.564  -6.707   4.140  0.00  0.00    -0.488 OA
BRANCH  10  16
ATOM     16  N   UNL     1     -10.049  -7.614  -0.798  0.00  0.00    +0.058 N 
ATOM     17  O   UNL     1     -10.358  -8.582  -1.468  0.00  0.00    -0.126 OA
ATOM     18  O   UNL     1      -9.197  -6.841  -1.200  0.00  0.00    -0.126 OA
ENDBRANCH  10  16
ENDBRANCH   3   5
BRANCH   1  19
ATOM     19  C   UNL     1      -7.711  -3.629   0.969  0.00  0.00    +0.173 C 
BRANCH  19  20
ATOM     20  S   UNL     1      -6.803  -2.846   2.330  0.00  0.00    -0.075 S 
BRANCH  20  29
ATOM     21  C   UNL     1      -2.565   1.097  -2.538  0.00  0.00    +0.066 C 
ATOM     22  C   UNL     1      -3.098   0.578  -1.227  0.00  0.00    +0.047 A 
ATOM     23  C   UNL     1      -2.550   1.034  -0.023  0.00  0.00    +0.006 A 
ATOM     24  C   UNL     1      -3.044   0.561   1.151  0.00  0.00    +0.049 A 
ATOM     25  N   UNL     1      -4.055  -0.346   1.124  0.00  0.00    -0.200 N 
ATOM     26  C   UNL     1      -4.564  -0.774  -0.069  0.00  0.00    +0.254 A 
ATOM     27  N   UNL     1      -4.073  -0.303  -1.221  0.00  0.00    -0.216 NA
ATOM     28  N   UNL     1      -5.529  -1.648   0.202  0.00  0.00    -0.183 NA
ATOM     29  C   UNL     1      -5.649  -1.789   1.521  0.00  0.00    +0.211 A 
ATOM     30  N   UNL     1      -4.771  -1.014   2.126  0.00  0.00    -0.137 NA
ATOM     31  C   UNL     1      -2.479   1.037   2.465  0.00  0.00    +0.066 C 
BRANCH  23  32
ATOM     32  C   UNL     1      -1.429   2.040  -0.028  0.00  0.00    +0.163 C 
BRANCH  32  33
ATOM     33  C   UNL     1      -0.106   1.319  -0.056  0.00  0.00    +0.360 C 
ATOM     34  O   UNL     1      -0.077   0.111  -0.070  0.00  0.00    -0.246 OA
ATOM     35  O   UNL     1       1.040   2.018  -0.070  0.00  0.00    -0.246 OA
ENDBRANCH  32  33
ENDBRANCH  23  32
ENDBRANCH  20  29
ENDBRANCH  19  20
ENDBRANCH   1  19
TORSDOF 7
