REMARK  Name = ZINC15678128
REMARK  14 active torsions:
REMARK  status: ('A' for Active; 'I' for Inactive)
REMARK    1  A    between atoms: C_1  and  C_2
REMARK    2  A    between atoms: C_2  and  C_3
REMARK    3  A    between atoms: C_8  and  N_9
REMARK    4  A    between atoms: C_14  and  C_28
REMARK    5  A    between atoms: C_18  and  C_19
REMARK    6  A    between atoms: C_18  and  C_20
REMARK    7  A    between atoms: N_22  and  C_23
REMARK    8  A    between atoms: C_23  and  C_24
REMARK    9  A    between atoms: C_24  and  C_25
REMARK   10  A    between atoms: C_25  and  C_26
REMARK   11  A    between atoms: C_25  and  C_27
REMARK   12  A    between atoms: C_31  and  C_34
REMARK   13  A    between atoms: C_34  and  C_35
REMARK   14  A    between atoms: C_34  and  C_36
REMARK                            x       y       z     vdW  Elec       q    Type
REMARK                         _______ _______ _______ _____ _____    ______ ____
ROOT
ATOM      1  N   UNL     1      -1.225   3.281   0.929  0.00  0.00    -0.250 N 
ATOM      2  C   UNL     1      -0.740   4.466   0.494  0.00  0.00    +0.270 C 
ATOM      3  O   UNL     1      -0.507   5.384   1.257  0.00  0.00    -0.268 OA
ATOM      4  C   UNL     1      -0.510   4.584  -0.955  0.00  0.00    +0.125 A 
ATOM      5  C   UNL     1       0.132   5.537  -1.691  0.00  0.00    +0.062 A 
ATOM      6  C   UNL     1       0.049   5.084  -3.025  0.00  0.00    +0.093 A 
ATOM      7  N   UNL     1      -0.610   3.940  -3.019  0.00  0.00    -0.170 NA
ATOM      8  N   UNL     1      -0.958   3.623  -1.834  0.00  0.00    -0.256 N 
ATOM      9  C   UNL     1      -1.720   2.459  -1.363  0.00  0.00    +0.179 C 
ATOM     10  C   UNL     1      -1.282   2.111   0.059  0.00  0.00    +0.135 C 
ATOM     11  C   UNL     1      -2.272   1.105   0.649  0.00  0.00    +0.044 C 
ENDROOT
BRANCH   1  17
ATOM     12  C   UNL     1      -0.807   2.806   3.259  0.00  0.00    -0.026 A 
ATOM     13  C   UNL     1      -1.261   2.703   4.559  0.00  0.00    +0.005 A 
ATOM     14  C   UNL     1      -2.586   2.967   4.853  0.00  0.00    +0.000 A 
ATOM     15  C   UNL     1      -3.461   3.335   3.847  0.00  0.00    +0.002 A 
ATOM     16  C   UNL     1      -3.011   3.445   2.546  0.00  0.00    +0.024 A 
ATOM     17  C   UNL     1      -1.682   3.175   2.246  0.00  0.00    +0.041 A 
BRANCH  12  19
ATOM     18  C   UNL     1       1.440   3.821   2.989  0.00  0.00    +0.009 C 
ATOM     19  C   UNL     1       0.638   2.519   2.940  0.00  0.00    +0.033 C 
ENDBRANCH  12  19
ENDBRANCH   1  17
BRANCH   6  20
ATOM     20  C   UNL     1       0.603   5.770  -4.219  0.00  0.00    +0.002 A 
ATOM     21  C   UNL     1       1.275   6.982  -4.080  0.00  0.00    +0.010 A 
ATOM     22  C   UNL     1       1.792   7.614  -5.193  0.00  0.00    +0.004 A 
ATOM     23  C   UNL     1       1.635   7.050  -6.447  0.00  0.00    -0.045 A 
ATOM     24  C   UNL     1       0.964   5.849  -6.591  0.00  0.00    +0.004 A 
ATOM     25  C   UNL     1       0.447   5.207  -5.484  0.00  0.00    +0.010 A 
BRANCH  23  26
ATOM     26  C   UNL     1       2.196   7.747  -7.659  0.00  0.00    +0.013 C 
ATOM     27  C   UNL     1       1.560   9.131  -7.792  0.00  0.00    +0.012 C 
ATOM     28  C   UNL     1       3.712   7.895  -7.506  0.00  0.00    +0.012 C 
ENDBRANCH  23  26
ENDBRANCH   6  20
BRANCH  10  29
ATOM     29  C   UNL     1       0.084   1.476   0.007  0.00  0.00    +0.239 C 
ATOM     30  O   UNL     1       0.189   0.269  -0.046  0.00  0.00    -0.273 OA
ATOM     31  N   UNL     1       1.187   2.250   0.012  0.00  0.00    -0.313 N 
ATOM     32  H   UNL     1       1.102   3.215   0.054  0.00  0.00    +0.149 HD
BRANCH  31  33
ATOM     33  C   UNL     1       2.514   1.633  -0.045  0.00  0.00    +0.104 C 
BRANCH  33  34
ATOM     34  C   UNL     1       3.586   2.725  -0.025  0.00  0.00    +0.022 C 
BRANCH  34  35
ATOM     35  C   UNL     1       4.972   2.080  -0.085  0.00  0.00    -0.016 C 
ATOM     36  C   UNL     1       6.038   3.173  -0.191  0.00  0.00    +0.007 C 
ATOM     37  C   UNL     1       5.208   1.260   1.184  0.00  0.00    +0.007 C 
ENDBRANCH  34  35
ENDBRANCH  33  34
ENDBRANCH  31  33
ENDBRANCH  10  29
TORSDOF 8
