REMARK  Name = ZINC36782599
REMARK  3 active torsions:
REMARK  status: ('A' for Active; 'I' for Inactive)
REMARK    1  A    between atoms: C_3  and  N_4
REMARK    2  A    between atoms: C_5  and  C_7
REMARK    3  A    between atoms: C_7  and  N_8
REMARK                            x       y       z     vdW  Elec       q    Type
REMARK                         _______ _______ _______ _____ _____    ______ ____
ROOT
ATOM      1  C   UNL     1      -1.281  -2.630  -2.470  0.00  0.00    +0.199 C 
ENDROOT
BRANCH   1   2
ATOM      2  N   UNL     1      -1.773  -3.974  -2.159  0.00  0.00    -0.313 N 
ATOM      3  C   UNL     1      -2.207  -4.810  -3.182  0.00  0.00    +0.183 A 
ATOM      4  N   UNL     1      -2.249  -4.587  -4.481  0.00  0.00    -0.125 NA
ATOM      5  N   UNL     1      -2.720  -5.564  -5.328  0.00  0.00    -0.132 NA
ATOM      6  C   UNL     1      -3.126  -6.719  -4.837  0.00  0.00    +0.171 A 
ATOM      7  S   UNL     1      -2.846  -6.475  -3.089  0.00  0.00    -0.024 S 
ATOM      8  S   UNL     1      -3.768  -8.127  -5.679  0.00  0.00    -0.021 SA
ATOM      9  H   UNL     1      -1.797  -4.281  -1.240  0.00  0.00    +0.148 HD
ENDBRANCH   1   2
BRANCH   1  11
ATOM     10  N   UNL     1      -0.391  -0.679  -1.237  0.00  0.00    -0.311 N 
ATOM     11  C   UNL     1      -0.877  -1.935  -1.196  0.00  0.00    +0.230 C 
ATOM     12  O   UNL     1      -0.989  -2.507  -0.132  0.00  0.00    -0.274 OA
ATOM     13  H   UNL     1      -0.302  -0.222  -2.088  0.00  0.00    +0.149 HD
BRANCH  10  16
ATOM     14  C   UNL     1      -0.019   1.526   0.010  0.00  0.00    +0.024 C 
ATOM     15  C   UNL     1       1.317   0.779  -0.006  0.00  0.00    +0.024 C 
ATOM     16  C   UNL     1       0.002  -0.004   0.002  0.00  0.00    +0.073 C 
ENDBRANCH  10  16
ENDBRANCH   1  11
TORSDOF 3
