REMARK  Name = ZINC35363828
REMARK  13 active torsions:
REMARK  status: ('A' for Active; 'I' for Inactive)
REMARK    1  A    between atoms: C_1  and  C_2
REMARK    2  A    between atoms: C_10  and  C_23
REMARK    3  A    between atoms: C_15  and  C_16
REMARK    4  A    between atoms: C_15  and  O_19
REMARK    5  A    between atoms: C_16  and  C_18
REMARK    6  A    between atoms: O_19  and  C_20
REMARK    7  A    between atoms: C_20  and  C_22
REMARK    8  A    between atoms: C_24  and  C_42
REMARK    9  A    between atoms: C_27  and  O_31
REMARK   10  A    between atoms: O_31  and  C_32
REMARK   11  A    between atoms: C_32  and  C_34
REMARK   12  A    between atoms: C_34  and  C_35
REMARK   13  A    between atoms: C_35  and  N_36
REMARK                            x       y       z     vdW  Elec       q    Type
REMARK                         _______ _______ _______ _____ _____    ______ ____
ROOT
ATOM      1  C   UNL     1       1.707   1.413   0.577  0.00  0.00    +0.044 C 
ATOM      2  C   UNL     1       1.264  -0.018   0.412  0.00  0.00    -0.051 C 
ATOM      3  C   UNL     1       1.082  -0.520  -0.800  0.00  0.00    -0.019 C 
ATOM      4  C   UNL     1       0.623  -1.919  -1.052  0.00  0.00    +0.020 C 
ATOM      5  C   UNL     1       0.869  -2.828   0.150  0.00  0.00    +0.006 C 
ATOM      6  C   UNL     1       0.176  -4.165  -0.119  0.00  0.00    +0.005 C 
ATOM      7  C   UNL     1       0.852  -4.815  -1.325  0.00  0.00    +0.011 C 
ATOM      8  C   UNL     1       0.715  -3.947  -2.577  0.00  0.00    +0.018 C 
ATOM      9  C   UNL     1       1.212  -2.514  -2.305  0.00  0.00    +0.006 C 
ATOM     10  C   UNL     1       2.743  -2.661  -2.230  0.00  0.00    +0.009 C 
ATOM     11  C   UNL     1       3.062  -3.684  -3.344  0.00  0.00    +0.057 C 
ATOM     12  C   UNL     1       1.750  -4.479  -3.604  0.00  0.00    +0.176 C 
ATOM     13  C   UNL     1      -0.708  -3.989  -3.136  0.00  0.00    +0.016 C 
ATOM     14  C   UNL     1       0.307  -2.153   1.397  0.00  0.00    -0.003 C 
ATOM     15  C   UNL     1       1.038  -0.867   1.604  0.00  0.00    -0.039 C 
ATOM     16  C   UNL     1       1.486  -0.462   2.779  0.00  0.00    +0.021 C 
ATOM     17  C   UNL     1       1.333  -1.325   4.004  0.00  0.00    +0.200 C 
ATOM     18  C   UNL     1       1.438  -2.790   3.555  0.00  0.00    +0.050 C 
ATOM     19  C   UNL     1       0.287  -3.071   2.594  0.00  0.00    +0.015 C 
ATOM     20  C   UNL     1      -1.144  -1.779   1.089  0.00  0.00    +0.016 C 
ENDROOT
BRANCH  12  21
ATOM     21  C   UNL     1       1.246  -4.261  -5.007  0.00  0.00    +0.174 C 
ATOM     22  O   UNL     1       1.481  -3.223  -5.579  0.00  0.00    -0.293 OA
ATOM     23  C   UNL     1       0.449  -5.338  -5.697  0.00  0.00    +0.090 C 
ENDBRANCH  12  21
BRANCH  12  24
ATOM     24  O   UNL     1       1.994  -5.869  -3.380  0.00  0.00    -0.450 OA
BRANCH  24  25
ATOM     25  C   UNL     1       2.916  -6.459  -4.157  0.00  0.00    +0.305 C 
ATOM     26  O   UNL     1       3.550  -5.802  -4.949  0.00  0.00    -0.251 OA
ATOM     27  C   UNL     1       3.159  -7.942  -4.044  0.00  0.00    +0.136 C 
ENDBRANCH  24  25
ENDBRANCH  12  24
BRANCH  17  28
ATOM     28  O   UNL     1       2.372  -1.028   4.940  0.00  0.00    -0.457 OA
BRANCH  28  29
ATOM     29  C   UNL     1       2.122  -0.066   5.841  0.00  0.00    +0.306 C 
ATOM     30  O   UNL     1       1.058   0.506   5.836  0.00  0.00    -0.251 OA
BRANCH  29  31
ATOM     31  C   UNL     1       3.170   0.303   6.860  0.00  0.00    +0.102 C 
BRANCH  31  32
ATOM     32  C   UNL     1       2.636   1.418   7.761  0.00  0.00    -0.068 C 
BRANCH  32  33
ATOM     33  N   UNL     1       3.658   1.777   8.754  0.00  0.00    +0.380 N 
ATOM     34  C   UNL     1       3.899   0.633   9.640  0.00  0.00    -0.079 C 
ATOM     35  C   UNL     1       5.020   0.974  10.625  0.00  0.00    -0.019 C 
ATOM     36  C   UNL     1       4.607   2.190  11.459  0.00  0.00    -0.004 C 
ATOM     37  C   UNL     1       4.286   3.355  10.520  0.00  0.00    -0.019 C 
ATOM     38  C   UNL     1       3.192   2.927   9.539  0.00  0.00    -0.079 C 
ATOM     39  H   UNL     1       4.515   2.020   8.280  0.00  0.00    -0.082 HD
ENDBRANCH  32  33
ENDBRANCH  31  32
ENDBRANCH  29  31
ENDBRANCH  28  29
ENDBRANCH  17  28
TORSDOF 8
