REMARK  Name = ZINC03409770
REMARK  8 active torsions:
REMARK  status: ('A' for Active; 'I' for Inactive)
REMARK    1  A    between atoms: C_1  and  C_2
REMARK    2  A    between atoms: C_2  and  C_3
REMARK    3  A    between atoms: C_3  and  N_4
REMARK    4  A    between atoms: N_4  and  C_5
REMARK    5  A    between atoms: C_6  and  N_21
REMARK    6  A    between atoms: N_7  and  C_14
REMARK    7  A    between atoms: C_14  and  C_15
REMARK    8  A    between atoms: C_22  and  C_24
REMARK                            x       y       z     vdW  Elec       q    Type
REMARK                         _______ _______ _______ _____ _____    ______ ____
ROOT
ATOM      1  C   UNL     1      -1.241  -2.610   1.271  0.00  0.00    +0.140 A 
ATOM      2  C   UNL     1      -2.286  -2.654   2.171  0.00  0.00    +0.128 A 
ATOM      3  N   UNL     1      -2.173  -3.440   3.294  0.00  0.00    -0.276 N 
ATOM      4  C   UNL     1      -1.057  -4.159   3.512  0.00  0.00    +0.331 A 
ATOM      5  O   UNL     1      -0.977  -4.849   4.510  0.00  0.00    -0.246 OA
ATOM      6  N   UNL     1      -0.029  -4.129   2.646  0.00  0.00    -0.273 N 
ATOM      7  H   UNL     1       0.765  -4.657   2.827  0.00  0.00    +0.173 HD
ATOM      8  C   UNL     1      -0.090  -3.379   1.529  0.00  0.00    +0.277 A 
ATOM      9  O   UNL     1       0.847  -3.363   0.748  0.00  0.00    -0.266 OA
ENDROOT
BRANCH   1  10
ATOM     10  N   UNL     1      -1.326  -1.813   0.110  0.00  0.00    -0.260 N 
ATOM     11  C   UNL     1      -1.387  -2.396  -1.104  0.00  0.00    +0.258 C 
ATOM     12  O   UNL     1      -1.470  -3.607  -1.195  0.00  0.00    -0.269 OA
BRANCH  11  13
ATOM     13  C   UNL     1      -1.353  -1.570  -2.315  0.00  0.00    +0.075 A 
ATOM     14  C   UNL     1      -1.520  -1.950  -3.631  0.00  0.00    +0.024 A 
ATOM     15  C   UNL     1      -1.436  -0.941  -4.593  0.00  0.00    -0.036 A 
ATOM     16  C   UNL     1      -1.197   0.316  -4.139  0.00  0.00    -0.006 A 
ATOM     17  S   UNL     1      -1.094   0.185  -2.471  0.00  0.00    -0.088 S 
ATOM     18  C   UNL     1      -1.122   1.313  -5.266  0.00  0.00    +0.043 C 
ATOM     19  C   UNL     1      -0.915   0.455  -6.533  0.00  0.00    +0.010 C 
ATOM     20  C   UNL     1      -1.554  -0.885  -6.119  0.00  0.00    +0.036 C 
ENDBRANCH  11  13
BRANCH  10  21
ATOM     21  C   UNL     1      -1.348  -0.353   0.224  0.00  0.00    +0.114 C 
BRANCH  21  23
ATOM     22  C   UNL     1       0.058   1.712   0.268  0.00  0.00    +0.005 C 
ATOM     23  C   UNL     1       0.082   0.186   0.149  0.00  0.00    +0.016 C 
ENDBRANCH  21  23
ENDBRANCH  10  21
ENDBRANCH   1  10
BRANCH   2  24
ATOM     24  N   UNL     1      -3.426  -1.919   1.948  0.00  0.00    -0.343 N 
ATOM     25  H   UNL     1      -3.502  -1.370   1.152  0.00  0.00    +0.144 HD
ATOM     26  H   UNL     1      -4.155  -1.949   2.587  0.00  0.00    +0.144 HD
ENDBRANCH   2  24
BRANCH   3  27
ATOM     27  C   UNL     1      -3.275  -3.495   4.258  0.00  0.00    +0.163 C 
BRANCH  27  28
ATOM     28  C   UNL     1      -4.219  -4.608   3.879  0.00  0.00    -0.028 A 
ATOM     29  C   UNL     1      -5.277  -4.356   3.026  0.00  0.00    +0.005 A 
ATOM     30  C   UNL     1      -6.143  -5.376   2.678  0.00  0.00    +0.000 A 
ATOM     31  C   UNL     1      -5.950  -6.648   3.183  0.00  0.00    +0.000 A 
ATOM     32  C   UNL     1      -4.891  -6.900   4.036  0.00  0.00    +0.000 A 
ATOM     33  C   UNL     1      -4.023  -5.881   4.380  0.00  0.00    +0.005 A 
ENDBRANCH  27  28
ENDBRANCH   3  27
TORSDOF 7
