REMARK  Name = ZINC36304174
REMARK  18 active torsions:
REMARK  status: ('A' for Active; 'I' for Inactive)
REMARK    1  A    between atoms: C_1  and  C_2
REMARK    2  A    between atoms: C_2  and  C_3
REMARK    3  A    between atoms: C_3  and  N_4
REMARK    4  A    between atoms: N_4  and  C_5
REMARK    5  A    between atoms: N_4  and  C_27
REMARK    6  A    between atoms: C_5  and  C_6
REMARK    7  A    between atoms: C_7  and  C_26
REMARK    8  A    between atoms: N_9  and  C_20
REMARK    9  A    between atoms: C_10  and  O_11
REMARK   10  A    between atoms: O_11  and  C_12
REMARK   11  A    between atoms: C_27  and  C_28
REMARK   12  A    between atoms: C_28  and  C_30
REMARK   13  A    between atoms: C_28  and  O_36
REMARK   14  A    between atoms: C_30  and  O_31
REMARK   15  A    between atoms: O_31  and  C_32
REMARK   16  A    between atoms: C_32  and  C_33
REMARK   17  A    between atoms: C_33  and  C_34
REMARK   18  A    between atoms: C_33  and  C_35
REMARK                            x       y       z     vdW  Elec       q    Type
REMARK                         _______ _______ _______ _____ _____    ______ ____
ROOT
ATOM      1  C   UNL     1       1.665  -4.353  -0.181  0.00  0.00    +0.021 A 
ATOM      2  C   UNL     1       2.171  -5.294   0.722  0.00  0.00    +0.065 A 
ATOM      3  N   UNL     1       1.683  -6.468   0.413  0.00  0.00    -0.168 NA
ATOM      4  N   UNL     1       0.845  -6.320  -0.701  0.00  0.00    -0.200 N 
ATOM      5  C   UNL     1       0.844  -5.005  -1.047  0.00  0.00    +0.225 A 
ATOM      6  C   UNL     1       3.118  -5.005   1.857  0.00  0.00    +0.068 C 
ENDROOT
BRANCH   4   7
ATOM      7  C   UNL     1       0.132  -7.343  -1.340  0.00  0.00    +0.069 A 
ATOM      8  C   UNL     1      -1.152  -7.106  -1.812  0.00  0.00    +0.028 A 
ATOM      9  C   UNL     1      -1.852  -8.117  -2.441  0.00  0.00    +0.002 A 
ATOM     10  C   UNL     1      -1.276  -9.363  -2.602  0.00  0.00    +0.000 A 
ATOM     11  C   UNL     1       0.003  -9.602  -2.133  0.00  0.00    +0.002 A 
ATOM     12  C   UNL     1       0.710  -8.594  -1.507  0.00  0.00    +0.028 A 
ENDBRANCH   4   7
BRANCH   1  13
ATOM     13  C   UNL     1       1.970  -2.877  -0.188  0.00  0.00    -0.036 C 
BRANCH  13  14
ATOM     14  N   UNL     1       0.916  -2.156   0.537  0.00  0.00    +0.384 N 
ATOM     15  H   UNL     1       0.015  -2.404   0.156  0.00  0.00    -0.081 HD
BRANCH  14  16
ATOM     16  C   UNL     1       1.126  -0.709   0.395  0.00  0.00    -0.079 C 
BRANCH  16  18
ATOM     17  C   UNL     1       2.719   1.167   0.824  0.00  0.00    +0.002 C 
ATOM     18  C   UNL     1       2.431  -0.312   1.087  0.00  0.00    -0.022 C 
ENDBRANCH  16  18
ENDBRANCH  14  16
BRANCH  14  19
ATOM     19  C   UNL     1       0.963  -2.520   1.960  0.00  0.00    -0.044 C 
BRANCH  19  20
ATOM     20  C   UNL     1      -0.237  -1.905   2.683  0.00  0.00    +0.124 C 
BRANCH  20  21
ATOM     21  O   UNL     1      -0.113  -0.481   2.687  0.00  0.00    -0.391 OA
ATOM     22  H   UNL     1       0.683  -0.157   3.129  0.00  0.00    +0.210 HD
ENDBRANCH  20  21
BRANCH  20  23
ATOM     23  C   UNL     1      -0.281  -2.416   4.125  0.00  0.00    +0.189 C 
BRANCH  23  24
ATOM     24  O   UNL     1      -1.464  -1.935   4.765  0.00  0.00    -0.377 OA
BRANCH  24  25
ATOM     25  C   UNL     1      -1.602  -2.358   6.123  0.00  0.00    +0.163 C 
BRANCH  25  26
ATOM     26  C   UNL     1      -2.897  -1.787   6.706  0.00  0.00    +0.009 C 
ATOM     27  C   UNL     1      -4.096  -2.389   5.970  0.00  0.00    +0.009 C 
ATOM     28  C   UNL     1      -2.984  -2.135   8.193  0.00  0.00    +0.009 C 
ENDBRANCH  25  26
ENDBRANCH  24  25
ENDBRANCH  23  24
ENDBRANCH  20  23
ENDBRANCH  19  20
ENDBRANCH  14  19
ENDBRANCH  13  14
ENDBRANCH   1  13
BRANCH   5  29
ATOM     29  O   UNL     1       0.152  -4.445  -2.072  0.00  0.00    -0.435 OA
BRANCH  29  30
ATOM     30  C   UNL     1       0.717  -4.465  -3.309  0.00  0.00    +0.166 A 
ATOM     31  C   UNL     1       1.912  -5.137  -3.516  0.00  0.00    +0.052 A 
ATOM     32  C   UNL     1       2.485  -5.157  -4.773  0.00  0.00    +0.042 A 
ATOM     33  C   UNL     1       1.866  -4.506  -5.828  0.00  0.00    +0.126 A 
ATOM     34  C   UNL     1       0.673  -3.834  -5.625  0.00  0.00    +0.080 A 
ATOM     35  C   UNL     1       0.094  -3.817  -4.369  0.00  0.00    +0.168 A 
ATOM     36  F   UNL     1      -1.074  -3.167  -4.171  0.00  0.00    -0.202 F 
ATOM     37  F   UNL     1       2.428  -4.527  -7.056  0.00  0.00    -0.205 F 
ENDBRANCH  29  30
ENDBRANCH   5  29
TORSDOF 14
