REMARK  Name = ZINC63491673
REMARK  7 active torsions:
REMARK  status: ('A' for Active; 'I' for Inactive)
REMARK    1  A    between atoms: C_1  and  O_2
REMARK    2  A    between atoms: O_2  and  C_3
REMARK    3  A    between atoms: C_6  and  C_9
REMARK    4  A    between atoms: N_26  and  C_27
REMARK    5  A    between atoms: C_31  and  C_32
REMARK    6  A    between atoms: C_32  and  O_34
REMARK    7  A    between atoms: O_34  and  C_35
REMARK                            x       y       z     vdW  Elec       q    Type
REMARK                         _______ _______ _______ _____ _____    ______ ____
ROOT
ATOM      1  C   UNL     1       2.513  -2.473  -4.298  0.00  0.00    +0.134 C 
ATOM      2  C   UNL     1       1.445  -3.029  -5.247  0.00  0.00    +0.131 C 
ATOM      3  C   UNL     1       0.834  -4.239  -4.552  0.00  0.00    -0.035 C 
ATOM      4  C   UNL     1      -0.473  -4.014  -4.489  0.00  0.00    -0.001 A 
ATOM      5  C   UNL     1      -1.587  -4.841  -3.996  0.00  0.00    +0.010 A 
ATOM      6  C   UNL     1      -2.825  -4.286  -4.072  0.00  0.00    +0.001 A 
ATOM      7  C   UNL     1      -3.064  -3.006  -4.582  0.00  0.00    +0.002 A 
ATOM      8  C   UNL     1      -2.101  -2.179  -5.060  0.00  0.00    +0.026 A 
ATOM      9  C   UNL     1      -0.758  -2.653  -5.038  0.00  0.00    +0.043 A 
ATOM     10  N   UNL     1       0.354  -2.076  -5.457  0.00  0.00    -0.375 N 
ATOM     11  C   UNL     1       1.671  -5.372  -4.012  0.00  0.00    +0.052 C 
ATOM     12  C   UNL     1       2.772  -4.735  -3.145  0.00  0.00    +0.114 C 
ATOM     13  N   UNL     1       3.358  -3.595  -3.860  0.00  0.00    -0.276 N 
ATOM     14  C   UNL     1       4.680  -3.576  -4.120  0.00  0.00    +0.307 C 
ATOM     15  O   UNL     1       5.186  -2.592  -4.625  0.00  0.00    -0.252 OA
ATOM     16  N   UNL     1       5.441  -4.647  -3.820  0.00  0.00    -0.268 N 
ATOM     17  H   UNL     1       5.027  -5.458  -3.488  0.00  0.00    +0.156 HD
ATOM     18  H   UNL     1       0.444  -1.185  -5.831  0.00  0.00    +0.160 HD
ENDROOT
BRANCH   1  22
ATOM     19  C   UNL     1       0.637  -0.667  -0.909  0.00  0.00    +0.120 A 
ATOM     20  C   UNL     1       0.458  -2.019  -1.164  0.00  0.00    +0.046 A 
ATOM     21  C   UNL     1       1.065  -2.600  -2.260  0.00  0.00    +0.009 A 
ATOM     22  C   UNL     1       1.851  -1.836  -3.103  0.00  0.00    -0.024 A 
ATOM     23  C   UNL     1       2.031  -0.488  -2.851  0.00  0.00    +0.009 A 
ATOM     24  C   UNL     1       1.421   0.099  -1.760  0.00  0.00    +0.046 A 
BRANCH  19  26
ATOM     25  C   UNL     1      -0.752  -0.942   1.000  0.00  0.00    +0.277 C 
ATOM     26  O   UNL     1       0.041  -0.092   0.168  0.00  0.00    -0.495 OA
ENDBRANCH  19  26
ENDBRANCH   1  22
BRANCH  16  27
ATOM     27  C   UNL     1       6.825  -4.588  -3.987  0.00  0.00    +0.056 A 
ATOM     28  C   UNL     1       7.450  -3.512  -4.586  0.00  0.00    +0.032 A 
ATOM     29  C   UNL     1       8.798  -3.523  -4.715  0.00  0.00    +0.048 A 
ATOM     30  S   UNL     1       9.272  -4.984  -4.035  0.00  0.00    -0.088 S 
ATOM     31  C   UNL     1       7.672  -5.609  -3.556  0.00  0.00    +0.117 A 
BRANCH  31  32
ATOM     32  C   UNL     1       7.347  -6.824  -2.910  0.00  0.00    +0.347 C 
ATOM     33  O   UNL     1       6.185  -7.089  -2.661  0.00  0.00    -0.244 OA
BRANCH  32  34
ATOM     34  O   UNL     1       8.325  -7.691  -2.571  0.00  0.00    -0.464 OA
ATOM     35  C   UNL     1       7.924  -8.899  -1.921  0.00  0.00    +0.280 C 
ENDBRANCH  32  34
ENDBRANCH  31  32
ENDBRANCH  16  27
TORSDOF 5
