REMARK  Name = ZINC39702292
REMARK  10 active torsions:
REMARK  status: ('A' for Active; 'I' for Inactive)
REMARK    1  A    between atoms: C_1  and  C_2
REMARK    2  A    between atoms: C_7  and  C_8
REMARK    3  A    between atoms: C_7  and  C_9
REMARK    4  A    between atoms: N_12  and  N_13
REMARK    5  A    between atoms: C_14  and  C_16
REMARK    6  A    between atoms: C_16  and  O_17
REMARK    7  A    between atoms: O_17  and  C_18
REMARK    8  A    between atoms: C_21  and  S_27
REMARK    9  A    between atoms: C_23  and  C_24
REMARK   10  A    between atoms: S_27  and  N_30
REMARK                            x       y       z     vdW  Elec       q    Type
REMARK                         _______ _______ _______ _____ _____    ______ ____
ROOT
ATOM      1  C   UNL     1       0.222   4.838  -5.775  0.00  0.00    +0.135 A 
ATOM      2  C   UNL     1      -0.170   5.768  -4.824  0.00  0.00    +0.048 A 
ATOM      3  C   UNL     1      -0.418   7.075  -5.194  0.00  0.00    +0.032 A 
ATOM      4  C   UNL     1      -0.279   7.468  -6.516  0.00  0.00    +0.106 A 
ATOM      5  C   UNL     1       0.109   6.558  -7.475  0.00  0.00    +0.047 A 
ATOM      6  C   UNL     1       0.369   5.232  -7.113  0.00  0.00    +0.107 A 
ENDROOT
BRANCH   6   7
ATOM      7  C   UNL     1       0.789   4.256  -8.131  0.00  0.00    +0.390 C 
ATOM      8  O   UNL     1       0.917   4.605  -9.297  0.00  0.00    -0.240 OA
ATOM      9  O   UNL     1       1.011   3.096  -7.811  0.00  0.00    -0.240 OA
ENDBRANCH   6   7
BRANCH   4  10
ATOM     10  S   UNL     1      -0.601   9.139  -6.972  0.00  0.00    +0.061 S 
ATOM     11  O   UNL     1      -0.928   9.127  -8.355  0.00  0.00    -0.153 OA
ATOM     12  O   UNL     1      -1.477   9.668  -5.986  0.00  0.00    -0.153 OA
BRANCH  10  13
ATOM     13  N   UNL     1       0.826   9.968  -6.831  0.00  0.00    -0.172 NA
ATOM     14  C   UNL     1       1.203  10.616  -5.565  0.00  0.00    +0.137 C 
ATOM     15  C   UNL     1       2.629  10.182  -5.205  0.00  0.00    +0.177 C 
ATOM     16  O   UNL     1       3.489  10.421  -6.322  0.00  0.00    -0.377 OA
ATOM     17  C   UNL     1       3.152   9.671  -7.491  0.00  0.00    +0.177 C 
ATOM     18  C   UNL     1       1.756  10.074  -7.966  0.00  0.00    +0.137 C 
ENDBRANCH  10  13
ENDBRANCH   4  10
BRANCH   1  19
ATOM     19  O   UNL     1       0.466   3.554  -5.412  0.00  0.00    -0.482 OA
BRANCH  19  20
ATOM     20  C   UNL     1       0.294   3.226  -4.032  0.00  0.00    +0.326 C 
BRANCH  20  22
ATOM     21  N   UNL     1       0.514   1.231  -2.587  0.00  0.00    -0.204 N 
ATOM     22  C   UNL     1       0.608   1.768  -3.819  0.00  0.00    +0.270 C 
ATOM     23  O   UNL     1       0.946   1.077  -4.758  0.00  0.00    -0.270 OA
ATOM     24  H   UNL     1       0.244   1.783  -1.836  0.00  0.00    +0.177 HD
BRANCH  21  35
ATOM     25  C   UNL     1       0.812   1.639   0.070  0.00  0.00    +0.018 C 
ATOM     26  C   UNL     1       0.558   0.131   0.111  0.00  0.00    +0.013 C 
ATOM     27  C   UNL     1      -0.856  -0.307   0.602  0.00  0.00    +0.013 C 
ATOM     28  C   UNL     1      -0.678  -1.781   1.034  0.00  0.00    +0.005 C 
ATOM     29  C   UNL     1       0.825  -2.091   0.754  0.00  0.00    +0.001 C 
ATOM     30  C   UNL     1       1.472  -0.698   1.080  0.00  0.00    -0.021 C 
ATOM     31  C   UNL     1       1.272  -0.299   2.543  0.00  0.00    +0.012 C 
ATOM     32  C   UNL     1       2.946  -0.639   0.671  0.00  0.00    +0.012 C 
ATOM     33  C   UNL     1       0.930  -2.111  -0.802  0.00  0.00    +0.057 C 
ATOM     34  C   UNL     1       0.779  -0.620  -1.209  0.00  0.00    +0.044 C 
ATOM     35  N   UNL     1       0.806  -0.125  -2.389  0.00  0.00    -0.189 NA
ENDBRANCH  21  35
ENDBRANCH  20  22
ENDBRANCH  19  20
ENDBRANCH   1  19
TORSDOF 7
