REMARK  Name = ZINC61855727
REMARK  5 active torsions:
REMARK  status: ('A' for Active; 'I' for Inactive)
REMARK    1  A    between atoms: C_1  and  C_2
REMARK    2  A    between atoms: C_5  and  C_21
REMARK    3  A    between atoms: N_8  and  C_10
REMARK    4  A    between atoms: C_13  and  C_17
REMARK    5  A    between atoms: N_18  and  O_19
REMARK                            x       y       z     vdW  Elec       q    Type
REMARK                         _______ _______ _______ _____ _____    ______ ____
ROOT
ATOM      1  C   UNL     1       1.783  -2.765   1.399  0.00  0.00    +0.031 A 
ATOM      2  C   UNL     1       3.041  -2.171   1.368  0.00  0.00    +0.024 A 
ATOM      3  C   UNL     1       4.174  -2.947   1.477  0.00  0.00    +0.014 A 
ATOM      4  C   UNL     1       4.060  -4.331   1.618  0.00  0.00    +0.036 A 
ATOM      5  C   UNL     1       2.796  -4.926   1.649  0.00  0.00    +0.053 A 
ATOM      6  C   UNL     1       1.665  -4.143   1.544  0.00  0.00    +0.043 A 
ATOM      7 CL   UNL     1       2.649  -6.646   1.824  0.00  0.00    -0.083 Cl
ENDROOT
BRANCH   1  13
ATOM      8  C   UNL     1      -0.013   1.540   0.046  0.00  0.00    +0.009 C 
ATOM      9  C   UNL     1       0.010   0.010   0.020  0.00  0.00    +0.003 C 
ATOM     10  C   UNL     1      -1.425  -0.522   0.015  0.00  0.00    +0.009 C 
ATOM     11  C   UNL     1      -1.403  -2.051  -0.044  0.00  0.00    +0.003 C 
ATOM     12  C   UNL     1      -0.690  -2.596   1.197  0.00  0.00    +0.108 C 
ATOM     13  N   UNL     1       0.639  -1.977   1.288  0.00  0.00    -0.329 N 
ATOM     14  C   UNL     1       0.740  -0.512   1.262  0.00  0.00    +0.108 C 
ATOM     15  C   UNL     1      -0.659  -2.503  -1.302  0.00  0.00    +0.009 C 
ENDBRANCH   1  13
BRANCH   4  16
ATOM     16  C   UNL     1       5.274  -5.167   1.734  0.00  0.00    +0.164 C 
ATOM     17  N   UNL     1       5.167  -6.457   1.866  0.00  0.00    -0.071 NA
ATOM     18  N   UNL     1       6.527  -4.576   1.703  0.00  0.00    -0.340 N 
ATOM     19  H   UNL     1       6.607  -3.614   1.605  0.00  0.00    +0.144 HD
ATOM     20  H   UNL     1       7.323  -5.124   1.780  0.00  0.00    +0.144 HD
BRANCH  17  21
ATOM     21  O   UNL     1       6.330  -7.257   1.978  0.00  0.00    -0.408 OA
ATOM     22  H   UNL     1       6.149  -8.202   2.071  0.00  0.00    +0.328 HD
ENDBRANCH  17  21
ENDBRANCH   4  16
TORSDOF 3
