REMARK  Name = ZINC13031961
REMARK  15 active torsions:
REMARK  status: ('A' for Active; 'I' for Inactive)
REMARK    1  A    between atoms: C_1  and  C_2
REMARK    2  A    between atoms: C_2  and  C_3
REMARK    3  A    between atoms: C_3  and  C_4
REMARK    4  A    between atoms: C_3  and  C_5
REMARK    5  A    between atoms: C_3  and  N_6
REMARK    6  A    between atoms: C_7  and  C_9
REMARK    7  A    between atoms: C_9  and  C_11
REMARK    8  A    between atoms: C_9  and  N_17
REMARK    9  A    between atoms: N_15  and  C_16
REMARK   10  A    between atoms: N_17  and  C_18
REMARK   11  A    between atoms: C_23  and  O_24
REMARK   12  A    between atoms: O_24  and  C_25
REMARK   13  A    between atoms: C_25  and  C_26
REMARK   14  A    between atoms: C_27  and  C_29
REMARK   15  A    between atoms: C_29  and  N_30
REMARK                            x       y       z     vdW  Elec       q    Type
REMARK                         _______ _______ _______ _____ _____    ______ ____
ROOT
ATOM      1  N   UNL     1      -5.121   4.181  -2.089  0.00  0.00    -0.249 N 
ATOM      2  C   UNL     1      -4.144   4.993  -2.537  0.00  0.00    +0.242 C 
ATOM      3  O   UNL     1      -3.972   5.134  -3.730  0.00  0.00    -0.273 OA
ENDROOT
BRANCH   1   4
ATOM      4  C   UNL     1      -5.274   3.962  -0.713  0.00  0.00    +0.079 A 
ATOM      5  C   UNL     1      -6.156   4.741   0.021  0.00  0.00    +0.027 A 
ATOM      6  C   UNL     1      -6.305   4.524   1.378  0.00  0.00    +0.002 A 
ATOM      7  C   UNL     1      -5.578   3.530   2.006  0.00  0.00    +0.004 A 
ATOM      8  C   UNL     1      -4.697   2.749   1.281  0.00  0.00    +0.047 A 
ATOM      9  C   UNL     1      -4.545   2.957  -0.081  0.00  0.00    +0.142 A 
BRANCH   9  10
ATOM     10  O   UNL     1      -3.684   2.186  -0.797  0.00  0.00    -0.490 OA
BRANCH  10  11
ATOM     11  C   UNL     1      -2.971   1.175  -0.082  0.00  0.00    +0.226 C 
ATOM     12  C   UNL     1      -2.058   0.416  -1.047  0.00  0.00    +0.048 C 
ENDBRANCH  10  11
ENDBRANCH   9  10
ENDBRANCH   1   4
BRANCH   1  13
ATOM     13  C   UNL     1      -6.024   3.527  -3.040  0.00  0.00    +0.214 C 
BRANCH  13  14
ATOM     14  C   UNL     1      -5.254   2.517  -3.850  0.00  0.00    +0.049 A 
ATOM     15  C   UNL     1      -3.931   2.554  -4.109  0.00  0.00    +0.025 A 
ATOM     16  C   UNL     1      -3.623   1.425  -4.894  0.00  0.00    +0.019 A 
ATOM     17  C   UNL     1      -4.771   0.746  -5.093  0.00  0.00    +0.085 A 
ATOM     18  N   UNL     1      -5.775   1.411  -4.455  0.00  0.00    -0.352 N 
ATOM     19  C   UNL     1      -7.183   1.006  -4.423  0.00  0.00    +0.148 C 
ENDBRANCH  13  14
BRANCH  13  21
ATOM     20  N   UNL     1      -7.642   4.231  -4.773  0.00  0.00    -0.308 N 
ATOM     21  C   UNL     1      -6.619   4.561  -3.960  0.00  0.00    +0.240 C 
ATOM     22  O   UNL     1      -6.178   5.691  -3.969  0.00  0.00    -0.273 OA
ATOM     23  H   UNL     1      -8.036   3.346  -4.722  0.00  0.00    +0.149 HD
BRANCH  20  24
ATOM     24  C   UNL     1      -8.160   5.209  -5.733  0.00  0.00    +0.029 C 
ATOM     25  C   UNL     1      -8.668   6.442  -4.982  0.00  0.00    +0.031 C 
ATOM     26  C   UNL     1      -7.043   5.621  -6.694  0.00  0.00    +0.031 C 
BRANCH  24  28
ATOM     27  C   UNL     1      -9.851   5.607  -7.529  0.00  0.00    +0.006 C 
ATOM     28  C   UNL     1      -9.310   4.585  -6.526  0.00  0.00    +0.022 C 
ENDBRANCH  24  28
ENDBRANCH  20  24
ENDBRANCH  13  21
ENDBRANCH   1  13
BRANCH   2  29
ATOM     29  C   UNL     1      -3.264   5.726  -1.557  0.00  0.00    +0.242 C 
BRANCH  29  30
ATOM     30  N   UNL     1      -2.287   6.536  -2.289  0.00  0.00    -0.235 N 
ATOM     31  C   UNL     1      -1.035   6.144  -2.699  0.00  0.00    +0.090 A 
ATOM     32  C   UNL     1      -0.308   4.963  -2.591  0.00  0.00    +0.029 A 
ATOM     33  C   UNL     1       0.951   4.890  -3.116  0.00  0.00    +0.002 A 
ATOM     34  C   UNL     1       1.510   5.983  -3.767  0.00  0.00    +0.002 A 
ATOM     35  C   UNL     1       0.816   7.151  -3.891  0.00  0.00    +0.032 A 
ATOM     36  C   UNL     1      -0.475   7.254  -3.356  0.00  0.00    +0.113 A 
ATOM     37  N   UNL     1      -1.383   8.250  -3.322  0.00  0.00    -0.129 NA
ATOM     38  N   UNL     1      -2.446   7.865  -2.709  0.00  0.00    -0.064 NA
ENDBRANCH  29  30
ENDBRANCH   2  29
TORSDOF 10
