REMARK  Name = ZINC38803952
REMARK  5 active torsions:
REMARK  status: ('A' for Active; 'I' for Inactive)
REMARK    1  A    between atoms: C_9  and  C_12
REMARK    2  A    between atoms: N_14  and  C_15
REMARK    3  A    between atoms: N_14  and  C_31
REMARK    4  A    between atoms: C_15  and  C_16
REMARK    5  A    between atoms: C_25  and  O_26
REMARK                            x       y       z     vdW  Elec       q    Type
REMARK                         _______ _______ _______ _____ _____    ______ ____
ROOT
ATOM      1  C   UNL     1       6.538   2.577  -0.112  0.00  0.00    +0.255 C 
ATOM      2  O   UNL     1       5.366   2.663   0.204  0.00  0.00    -0.269 OA
ATOM      3  N   UNL     1       7.183   1.400   0.005  0.00  0.00    -0.290 N 
ENDROOT
BRANCH   1  12
ATOM      4  C   UNL     1       8.216   8.159  -2.276  0.00  0.00    +0.039 A 
ATOM      5  C   UNL     1       7.260   7.299  -1.843  0.00  0.00    +0.013 A 
ATOM      6  C   UNL     1       7.596   5.982  -1.438  0.00  0.00    +0.008 A 
ATOM      7  C   UNL     1       8.965   5.630  -1.513  0.00  0.00    +0.024 A 
ATOM      8  C   UNL     1       9.927   6.513  -1.955  0.00  0.00    +0.054 A 
ATOM      9  C   UNL     1       9.556   7.788  -2.341  0.00  0.00    +0.124 A 
ATOM     10  F   UNL     1      10.486   8.665  -2.776  0.00  0.00    -0.205 F 
ATOM     11  S   UNL     1       8.994   3.951  -0.938  0.00  0.00    -0.082 S 
ATOM     12  C   UNL     1       7.249   3.756  -0.620  0.00  0.00    +0.093 A 
ATOM     13  C   UNL     1       6.739   4.970  -0.966  0.00  0.00    +0.068 A 
ATOM     14 CL   UNL     1       5.035   5.270  -0.824  0.00  0.00    -0.082 Cl
ENDBRANCH   1  12
BRANCH   3  15
ATOM     15  C   UNL     1       6.486   0.233   0.550  0.00  0.00    +0.077 C 
ATOM     16  C   UNL     1       5.270  -0.116  -0.333  0.00  0.00    +0.022 C 
ATOM     17  C   UNL     1       4.186  -0.573   0.675  0.00  0.00    +0.002 C 
ATOM     18  C   UNL     1       4.402   0.391   1.868  0.00  0.00    +0.002 C 
ATOM     19  C   UNL     1       5.933   0.556   1.950  0.00  0.00    +0.022 C 
ENDBRANCH   3  15
BRANCH   3  20
ATOM     20  C   UNL     1       8.583   1.287  -0.414  0.00  0.00    +0.147 C 
BRANCH  20  21
ATOM     21  C   UNL     1       9.479   1.413   0.791  0.00  0.00    +0.012 A 
ATOM     22  C   UNL     1      10.531   0.563   0.937  0.00  0.00    +0.017 A 
ATOM     23  C   UNL     1      11.370   0.677   2.059  0.00  0.00    -0.014 A 
ATOM     24  C   UNL     1      12.464  -0.185   2.240  0.00  0.00    +0.058 A 
ATOM     25  C   UNL     1      13.263  -0.052   3.340  0.00  0.00    +0.163 A 
ATOM     26  C   UNL     1      13.004   0.942   4.296  0.00  0.00    +0.163 A 
ATOM     27  C   UNL     1      11.946   1.793   4.147  0.00  0.00    +0.058 A 
ATOM     28  C   UNL     1      11.107   1.680   3.026  0.00  0.00    -0.011 A 
ATOM     29  C   UNL     1      10.013   2.542   2.845  0.00  0.00    +0.054 A 
ATOM     30  C   UNL     1       9.222   2.407   1.740  0.00  0.00    +0.122 A 
ATOM     31  O   UNL     1      13.807   1.078   5.388  0.00  0.00    -0.485 OA
ATOM     32  C   UNL     1      14.651  -0.033   5.709  0.00  0.00    +0.270 C 
ATOM     33  C   UNL     1      15.333  -0.509   4.420  0.00  0.00    +0.270 C 
ATOM     34  O   UNL     1      14.315  -0.904   3.494  0.00  0.00    -0.485 OA
BRANCH  30  35
ATOM     35  O   UNL     1       8.166   3.245   1.564  0.00  0.00    -0.506 OA
ATOM     36  H   UNL     1       7.364   2.971   2.030  0.00  0.00    +0.292 HD
ENDBRANCH  30  35
ENDBRANCH  20  21
ENDBRANCH   3  20
TORSDOF 5
