REMARK  Name = ZINC19912359
REMARK  10 active torsions:
REMARK  status: ('A' for Active; 'I' for Inactive)
REMARK    1  A    between atoms: C_1  and  C_2
REMARK    2  A    between atoms: C_11  and  O_13
REMARK    3  A    between atoms: O_13  and  C_14
REMARK    4  A    between atoms: C_14  and  C_15
REMARK    5  A    between atoms: C_15  and  C_17
REMARK    6  A    between atoms: C_15  and  O_37
REMARK    7  A    between atoms: C_17  and  N_18
REMARK    8  A    between atoms: N_21  and  C_24
REMARK    9  A    between atoms: C_24  and  C_25
REMARK   10  A    between atoms: C_24  and  C_31
REMARK                            x       y       z     vdW  Elec       q    Type
REMARK                         _______ _______ _______ _____ _____    ______ ____
ROOT
ATOM      1  N   UNL     1      -0.585   1.547   1.157  0.00  0.00    -0.303 NA
ATOM      2  C   UNL     1       0.228   1.080   0.025  0.00  0.00    +0.066 C 
ATOM      3  C   UNL     1      -0.393   1.572  -1.284  0.00  0.00    -0.062 C 
ATOM      4  N   UNL     1      -0.472   3.040  -1.265  0.00  0.00    +0.389 N 
ATOM      5  C   UNL     1      -1.286   3.506  -0.134  0.00  0.00    -0.062 C 
ATOM      6  C   UNL     1      -0.664   3.014   1.175  0.00  0.00    +0.066 C 
ATOM      7  H   UNL     1       0.547   3.433  -1.135  0.00  0.00    -0.080 HD
ENDROOT
BRANCH   1   8
ATOM      8  C   UNL     1      -0.062   1.031   2.429  0.00  0.00    +0.119 C 
BRANCH   8   9
ATOM      9  C   UNL     1      -0.221  -0.491   2.466  0.00  0.00    +0.166 C 
BRANCH   9  10
ATOM     10  O   UNL     1      -1.605  -0.828   2.357  0.00  0.00    -0.387 OA
ATOM     11  H   UNL     1      -2.178  -0.523   1.469  0.00  0.00    +0.210 HD
ENDBRANCH   9  10
BRANCH   9  12
ATOM     12  C   UNL     1       0.334  -1.029   3.786  0.00  0.00    +0.261 C 
BRANCH  12  13
ATOM     13  O   UNL     1       0.293  -2.458   3.773  0.00  0.00    -0.489 OA
BRANCH  13  24
ATOM     14  C   UNL     1       2.716  -4.321   9.512  0.00  0.00    +0.045 C 
ATOM     15  C   UNL     1       2.187  -5.085   8.326  0.00  0.00    -0.033 A 
ATOM     16  C   UNL     1       2.154  -6.443   8.329  0.00  0.00    +0.096 A 
ATOM     17  C   UNL     1       1.654  -7.135   7.206  0.00  0.00    +0.337 A 
ATOM     18  O   UNL     1       1.630  -8.352   7.222  0.00  0.00    -0.245 OA
ATOM     19  O   UNL     1       1.203  -6.486   6.121  0.00  0.00    -0.422 OA
ATOM     20  C   UNL     1       1.208  -5.137   6.054  0.00  0.00    +0.143 A 
ATOM     21  C   UNL     1       1.693  -4.383   7.139  0.00  0.00    +0.021 A 
ATOM     22  C   UNL     1       1.699  -2.986   7.074  0.00  0.00    +0.015 A 
ATOM     23  C   UNL     1       1.239  -2.357   5.953  0.00  0.00    +0.046 A 
ATOM     24  C   UNL     1       0.752  -3.098   4.878  0.00  0.00    +0.124 A 
ATOM     25  C   UNL     1       0.738  -4.482   4.926  0.00  0.00    +0.092 A 
ENDBRANCH  13  24
ENDBRANCH  12  13
ENDBRANCH   9  12
ENDBRANCH   8   9
ENDBRANCH   1   8
BRANCH   4  26
ATOM     26  C   UNL     1      -0.994   3.556  -2.538  0.00  0.00    -0.007 C 
BRANCH  26  27
ATOM     27  C   UNL     1      -1.060   5.060  -2.480  0.00  0.00    -0.057 A 
ATOM     28  C   UNL     1      -0.044   5.774  -1.872  0.00  0.00    +0.002 A 
ATOM     29  C   UNL     1      -0.102   7.154  -1.823  0.00  0.00    +0.000 A 
ATOM     30  C   UNL     1      -1.181   7.820  -2.375  0.00  0.00    +0.000 A 
ATOM     31  C   UNL     1      -2.199   7.106  -2.979  0.00  0.00    +0.000 A 
ATOM     32  C   UNL     1      -2.138   5.726  -3.032  0.00  0.00    +0.002 A 
ENDBRANCH  26  27
BRANCH  26  33
ATOM     33  C   UNL     1      -0.083   3.135  -3.662  0.00  0.00    -0.057 A 
ATOM     34  C   UNL     1       1.288   3.159  -3.487  0.00  0.00    +0.002 A 
ATOM     35  C   UNL     1       2.123   2.769  -4.517  0.00  0.00    +0.000 A 
ATOM     36  C   UNL     1       1.588   2.364  -5.725  0.00  0.00    +0.000 A 
ATOM     37  C   UNL     1       0.217   2.345  -5.902  0.00  0.00    +0.000 A 
ATOM     38  C   UNL     1      -0.619   2.731  -4.871  0.00  0.00    +0.002 A 
ENDBRANCH  26  33
ENDBRANCH   4  26
TORSDOF 9
