REMARK  Name = ZINC38656629
REMARK  11 active torsions:
REMARK  status: ('A' for Active; 'I' for Inactive)
REMARK    1  A    between atoms: C_1  and  C_2
REMARK    2  A    between atoms: C_2  and  C_14
REMARK    3  A    between atoms: C_4  and  N_11
REMARK    4  A    between atoms: C_7  and  C_9
REMARK    5  A    between atoms: C_7  and  C_10
REMARK    6  A    between atoms: C_14  and  N_15
REMARK    7  A    between atoms: N_18  and  C_19
REMARK    8  A    between atoms: C_21  and  C_27
REMARK    9  A    between atoms: C_21  and  C_28
REMARK   10  A    between atoms: C_23  and  C_25
REMARK   11  A    between atoms: C_23  and  C_26
REMARK                            x       y       z     vdW  Elec       q    Type
REMARK                         _______ _______ _______ _____ _____    ______ ____
ROOT
ATOM      1  N   UNL     1       0.429   0.204  -2.431  0.00  0.00    -0.299 N 
ATOM      2  C   UNL     1       0.960  -0.032  -3.647  0.00  0.00    +0.300 C 
ATOM      3  O   UNL     1       2.019  -0.621  -3.745  0.00  0.00    -0.253 OA
ATOM      4  N   UNL     1       0.317   0.386  -4.756  0.00  0.00    -0.297 N 
ATOM      5  H   UNL     1      -0.416   0.674  -2.354  0.00  0.00    +0.150 HD
ATOM      6  H   UNL     1      -0.528   0.856  -4.678  0.00  0.00    +0.151 HD
ENDROOT
BRANCH   4   7
ATOM      7  C   UNL     1       0.896   0.129  -6.081  0.00  0.00    +0.072 C 
ATOM      8  C   UNL     1       1.863   1.261  -6.435  0.00  0.00    +0.009 C 
ATOM      9  C   UNL     1       2.464   1.014  -7.818  0.00  0.00    -0.072 C 
ATOM     10  N   UNL     1       1.441   0.817  -8.834  0.00  0.00    +0.386 N 
ATOM     11  C   UNL     1       0.348  -0.091  -8.524  0.00  0.00    -0.072 C 
ATOM     12  C   UNL     1      -0.222   0.110  -7.123  0.00  0.00    +0.009 C 
ATOM     13  C   UNL     1       0.754  -1.554  -8.717  0.00  0.00    -0.010 C 
ATOM     14  C   UNL     1      -0.793   0.197  -9.528  0.00  0.00    -0.010 C 
ATOM     15  C   UNL     1       3.454  -0.149  -7.764  0.00  0.00    -0.010 C 
ATOM     16  C   UNL     1       3.265   2.280  -8.201  0.00  0.00    -0.010 C 
ATOM     17  H   UNL     1       1.044   1.730  -9.071  0.00  0.00    -0.084 HD
ATOM     18  H   UNL     1       1.897   0.492  -9.690  0.00  0.00    -0.084 HD
ENDBRANCH   4   7
BRANCH   1  19
ATOM     19  C   UNL     1       1.128  -0.250  -1.226  0.00  0.00    +0.112 C 
BRANCH  19  21
ATOM     20  C   UNL     1       0.181   1.671   0.019  0.00  0.00    +0.013 C 
ATOM     21  C   UNL     1       0.310   0.145   0.023  0.00  0.00    -0.014 C 
ATOM     22  C   UNL     1      -1.068  -0.495  -0.106  0.00  0.00    +0.035 C 
ATOM     23  C   UNL     1      -1.861  -0.339   1.189  0.00  0.00    +0.119 C 
ATOM     24  C   UNL     1      -1.116  -1.055   2.314  0.00  0.00    +0.034 C 
ATOM     25  C   UNL     1       0.260  -0.435   2.531  0.00  0.00    -0.032 C 
ATOM     26  C   UNL     1       1.065  -0.337   1.248  0.00  0.00    +0.014 C 
ATOM     27  C   UNL     1       0.118   0.935   3.199  0.00  0.00    +0.011 C 
ATOM     28  C   UNL     1       1.034  -1.345   3.510  0.00  0.00    +0.011 C 
BRANCH  23  29
ATOM     29  N   UNL     1      -3.183  -0.957   1.020  0.00  0.00    -0.202 NA
ATOM     30  C   UNL     1      -4.217  -0.266   1.148  0.00  0.00    +0.235 C 
ATOM     31  O   UNL     1      -5.216   0.401   1.271  0.00  0.00    -0.210 OA
ENDBRANCH  23  29
ENDBRANCH  19  21
ENDBRANCH   1  19
TORSDOF 4
