REMARK  Name = ZINC00664097
REMARK  5 active torsions:
REMARK  status: ('A' for Active; 'I' for Inactive)
REMARK    1  A    between atoms: C_5  and  C_7
REMARK    2  A    between atoms: C_14  and  C_16
REMARK    3  A    between atoms: C_16  and  O_17
REMARK    4  A    between atoms: C_19  and  N_23
REMARK    5  A    between atoms: C_20  and  C_21
REMARK                            x       y       z     vdW  Elec       q    Type
REMARK                         _______ _______ _______ _____ _____    ______ ____
ROOT
ATOM      1  C   UNL     1      -1.344   2.053   0.032  0.00  0.00    +0.135 C 
ATOM      2  C   UNL     1      -0.016   1.340   0.009  0.00  0.00    +0.164 A 
ATOM      3  C   UNL     1       1.138   2.038   0.002  0.00  0.00    +0.215 A 
ATOM      4  C   UNL     1       2.374   1.332  -0.014  0.00  0.00    +0.228 A 
ATOM      5  O   UNL     1       3.439   1.931  -0.022  0.00  0.00    -0.284 OA
ATOM      6  C   UNL     1       2.338  -0.085  -0.022  0.00  0.00    +0.098 A 
ATOM      7  C   UNL     1       1.140  -0.704  -0.013  0.00  0.00    +0.134 A 
ATOM      8  O   UNL     1       0.002  -0.004   0.002  0.00  0.00    -0.457 OA
ATOM      9  O   UNL     1       1.149   3.394   0.009  0.00  0.00    -0.434 OA
ATOM     10  C   UNL     1       0.053   4.074  -0.368  0.00  0.00    +0.199 C 
ATOM     11  C   UNL     1      -1.170   3.489  -0.382  0.00  0.00    +0.101 C 
ENDROOT
BRANCH   1  16
ATOM     12  C   UNL     1      -1.744   2.499   3.760  0.00  0.00    +0.000 A 
ATOM     13  C   UNL     1      -2.967   1.893   3.981  0.00  0.00    +0.001 A 
ATOM     14  C   UNL     1      -3.665   1.339   2.925  0.00  0.00    +0.015 A 
ATOM     15  C   UNL     1      -3.140   1.390   1.646  0.00  0.00    +0.022 A 
ATOM     16  C   UNL     1      -1.916   1.996   1.425  0.00  0.00    -0.018 A 
ATOM     17  C   UNL     1      -1.216   2.546   2.483  0.00  0.00    +0.006 A 
ATOM     18 BR   UNL     1      -4.094   0.632   0.200  0.00  0.00    -0.050 Br
ENDBRANCH   1  16
BRANCH  10  19
ATOM     19  N   UNL     1       0.174   5.388  -0.747  0.00  0.00    -0.328 N 
ATOM     20  H   UNL     1       1.044   5.817  -0.741  0.00  0.00    +0.145 HD
ATOM     21  H   UNL     1      -0.611   5.888  -1.021  0.00  0.00    +0.145 HD
ENDBRANCH  10  19
BRANCH  11  22
ATOM     22  C   UNL     1      -2.312   4.249  -0.792  0.00  0.00    +0.101 C 
ATOM     23  N   UNL     1      -3.218   4.852  -1.118  0.00  0.00    -0.191 NA
ENDBRANCH  11  22
BRANCH   7  24
ATOM     24  C   UNL     1       1.084  -2.210  -0.020  0.00  0.00    +0.230 C 
BRANCH  24  25
ATOM     25  O   UNL     1       1.080  -2.693   1.325  0.00  0.00    -0.387 OA
ATOM     26  H   UNL     1       1.045  -3.657   1.397  0.00  0.00    +0.210 HD
ENDBRANCH  24  25
ENDBRANCH   7  24
TORSDOF 5
