REMARK  Name = ZINC12989861
REMARK  7 active torsions:
REMARK  status: ('A' for Active; 'I' for Inactive)
REMARK    1  A    between atoms: C_1  and  C_2
REMARK    2  A    between atoms: C_15  and  C_17
REMARK    3  A    between atoms: C_17  and  N_52
REMARK    4  A    between atoms: C_18  and  C_19
REMARK    5  A    between atoms: C_18  and  N_52
REMARK    6  A    between atoms: C_24  and  C_25
REMARK    7  A    between atoms: C_24  and  N_52
REMARK                            x       y       z     vdW  Elec       q    Type
REMARK                         _______ _______ _______ _____ _____    ______ ____
ROOT
ATOM      1  C   UNL     1      -5.828  -2.274   5.000  0.00  0.00    +0.029 C 
ATOM      2  C   UNL     1      -4.480  -2.985   4.854  0.00  0.00    +0.087 C 
ATOM      3  C   UNL     1      -4.633  -4.443   5.274  0.00  0.00    +0.118 C 
ATOM      4  C   UNL     1      -3.458  -5.245   4.782  0.00  0.00    +0.219 C 
ATOM      5  O   UNL     1      -2.592  -5.584   5.560  0.00  0.00    -0.275 OA
ATOM      6  N   UNL     1      -3.363  -5.591   3.479  0.00  0.00    -0.284 N 
ATOM      7  C   UNL     1      -4.303  -5.129   2.551  0.00  0.00    +0.055 A 
ATOM      8  C   UNL     1      -4.894  -5.996   1.648  0.00  0.00    +0.025 A 
ATOM      9  C   UNL     1      -5.779  -5.507   0.704  0.00  0.00    +0.002 A 
ATOM     10  C   UNL     1      -6.075  -4.157   0.659  0.00  0.00    +0.002 A 
ATOM     11  C   UNL     1      -5.496  -3.287   1.565  0.00  0.00    +0.025 A 
ATOM     12  C   UNL     1      -4.616  -3.770   2.519  0.00  0.00    +0.058 A 
ATOM     13  N   UNL     1      -4.038  -2.907   3.461  0.00  0.00    -0.268 N 
ATOM     14  C   UNL     1      -3.088  -2.025   3.091  0.00  0.00    +0.204 C 
ATOM     15  O   UNL     1      -2.595  -1.284   3.914  0.00  0.00    -0.277 OA
ATOM     16  H   UNL     1      -2.637  -6.164   3.185  0.00  0.00    +0.155 HD
ENDROOT
BRANCH  14  17
ATOM     17  C   UNL     1      -2.638  -1.961   1.654  0.00  0.00    +0.020 C 
BRANCH  17  18
ATOM     18  N   UNL     1      -1.518  -1.002   1.551  0.00  0.00    +0.393 N 
ATOM     19  H   UNL     1      -1.730  -0.179   2.127  0.00  0.00    -0.080 HD
BRANCH  18  20
ATOM     20  C   UNL     1      -0.272  -1.625   2.044  0.00  0.00    -0.002 C 
BRANCH  20  21
ATOM     21  C   UNL     1       0.798  -0.568   2.135  0.00  0.00    +0.089 A 
ATOM     22  C   UNL     1       1.046   0.210   3.204  0.00  0.00    +0.042 A 
ATOM     23  C   UNL     1       2.126   1.053   2.855  0.00  0.00    +0.041 A 
ATOM     24  C   UNL     1       2.473   0.740   1.594  0.00  0.00    +0.195 A 
ATOM     25  O   UNL     1       1.665  -0.242   1.163  0.00  0.00    -0.470 OA
ENDBRANCH  20  21
ENDBRANCH  18  20
BRANCH  18  26
ATOM     26  C   UNL     1      -1.347  -0.574   0.146  0.00  0.00    -0.034 C 
BRANCH  26  27
ATOM     27  C   UNL     1      -2.483   0.345  -0.222  0.00  0.00    -0.027 A 
ATOM     28  C   UNL     1      -2.603   1.680  -0.015  0.00  0.00    +0.009 A 
ATOM     29  C   UNL     1      -3.749   2.324  -0.442  0.00  0.00    +0.008 A 
ATOM     30  C   UNL     1      -4.718   1.603  -1.056  0.00  0.00    +0.045 A 
ATOM     31  S   UNL     1      -4.017  -0.039  -1.050  0.00  0.00    -0.103 S 
ENDBRANCH  26  27
ENDBRANCH  18  26
ENDBRANCH  17  18
ENDBRANCH  14  17
TORSDOF 6
