REMARK  Name = ZINC21840179
REMARK  7 active torsions:
REMARK  status: ('A' for Active; 'I' for Inactive)
REMARK    1  A    between atoms: C_1  and  C_2
REMARK    2  A    between atoms: C_5  and  C_8
REMARK    3  A    between atoms: C_8  and  C_10
REMARK    4  A    between atoms: C_10  and  O_11
REMARK    5  A    between atoms: O_11  and  C_12
REMARK    6  A    between atoms: C_12  and  C_14
REMARK    7  A    between atoms: C_14  and  C_19
REMARK                            x       y       z     vdW  Elec       q    Type
REMARK                         _______ _______ _______ _____ _____    ______ ____
ROOT
ATOM      1  C   UNL     1       3.709  -0.717  -0.049  0.00  0.00    +0.093 C 
ATOM      2  C   UNL     1       4.429  -0.477  -1.392  0.00  0.00    +0.023 C 
ATOM      3  C   UNL     1       5.097  -1.838  -1.713  0.00  0.00    +0.001 C 
ATOM      4  C   UNL     1       4.038  -2.861  -1.233  0.00  0.00    +0.001 C 
ATOM      5  C   UNL     1       3.461  -2.232   0.052  0.00  0.00    +0.023 C 
ENDROOT
BRANCH   1   6
ATOM      6  C   UNL     1       2.397   0.024  -0.027  0.00  0.00    -0.027 A 
ATOM      7  C   UNL     1       2.100   0.870   1.026  0.00  0.00    +0.008 A 
ATOM      8  C   UNL     1       0.897   1.549   1.051  0.00  0.00    +0.050 A 
ATOM      9  C   UNL     1      -0.016   1.384   0.019  0.00  0.00    +0.162 A 
ATOM     10  C   UNL     1       0.284   0.536  -1.040  0.00  0.00    +0.162 A 
ATOM     11  C   UNL     1       1.493  -0.144  -1.058  0.00  0.00    +0.054 A 
ATOM     12  O   UNL     1      -0.594   0.367  -2.066  0.00  0.00    -0.485 OA
ATOM     13  C   UNL     1      -1.946   0.772  -1.830  0.00  0.00    +0.270 C 
ATOM     14  C   UNL     1      -1.925   2.157  -1.169  0.00  0.00    +0.270 C 
ATOM     15  O   UNL     1      -1.200   2.054   0.062  0.00  0.00    -0.485 OA
ENDBRANCH   1   6
BRANCH   1  16
ATOM     16  C   UNL     1       4.580  -0.259   1.093  0.00  0.00    +0.318 C 
ATOM     17  O   UNL     1       4.959  -1.054   1.920  0.00  0.00    -0.250 OA
BRANCH  16  18
ATOM     18  O   UNL     1       4.934   1.032   1.191  0.00  0.00    -0.456 OA
BRANCH  18  19
ATOM     19  C   UNL     1       5.774   1.401   2.316  0.00  0.00    +0.311 C 
BRANCH  19  20
ATOM     20  C   UNL     1       6.066   2.879   2.261  0.00  0.00    +0.200 C 
ATOM     21  O   UNL     1       5.612   3.553   1.362  0.00  0.00    -0.288 OA
BRANCH  20  26
ATOM     22  C   UNL     1       9.336   5.315   6.313  0.00  0.00    +0.044 C 
ATOM     23  C   UNL     1       8.479   4.676   5.251  0.00  0.00    -0.050 A 
ATOM     24  C   UNL     1       7.963   5.450   4.226  0.00  0.00    +0.004 A 
ATOM     25  C   UNL     1       7.177   4.873   3.250  0.00  0.00    +0.012 A 
ATOM     26  C   UNL     1       6.903   3.502   3.298  0.00  0.00    +0.021 A 
ATOM     27  C   UNL     1       7.425   2.728   4.340  0.00  0.00    +0.012 A 
ATOM     28  C   UNL     1       8.213   3.319   5.305  0.00  0.00    +0.004 A 
ENDBRANCH  20  26
ENDBRANCH  19  20
ENDBRANCH  18  19
ENDBRANCH  16  18
ENDBRANCH   1  16
TORSDOF 6
