REMARK  Name = ZINC03091080
REMARK  10 active torsions:
REMARK  status: ('A' for Active; 'I' for Inactive)
REMARK    1  A    between atoms: C_1  and  C_2
REMARK    2  A    between atoms: C_2  and  N_3
REMARK    3  A    between atoms: N_3  and  C_4
REMARK    4  A    between atoms: N_3  and  C_6
REMARK    5  A    between atoms: C_4  and  C_5
REMARK    6  A    between atoms: C_9  and  C_12
REMARK    7  A    between atoms: N_13  and  N_14
REMARK    8  A    between atoms: C_15  and  C_17
REMARK    9  A    between atoms: C_17  and  N_18
REMARK   10  A    between atoms: N_18  and  C_19
REMARK                            x       y       z     vdW  Elec       q    Type
REMARK                         _______ _______ _______ _____ _____    ______ ____
ROOT
ATOM      1  N   UNL     1       4.209   6.090  -2.316  0.00  0.00    -0.206 N 
ATOM      2  C   UNL     1       3.853   5.324  -1.266  0.00  0.00    +0.249 C 
ATOM      3  O   UNL     1       4.623   5.165  -0.343  0.00  0.00    -0.272 OA
ATOM      4  H   UNL     1       3.510   6.234  -3.154  0.00  0.00    +0.177 HD
ENDROOT
BRANCH   1   6
ATOM      5  C   UNL     1       5.810   7.443  -3.352  0.00  0.00    +0.138 C 
ATOM      6  N   UNL     1       5.468   6.704  -2.341  0.00  0.00    -0.188 NA
BRANCH   5  10
ATOM      7  C   UNL     1       9.625   9.304  -3.426  0.00  0.00    +0.030 A 
ATOM      8  C   UNL     1       8.743   9.487  -4.487  0.00  0.00    +0.024 A 
ATOM      9  C   UNL     1       7.505   8.884  -4.466  0.00  0.00    +0.011 A 
ATOM     10  C   UNL     1       7.135   8.089  -3.378  0.00  0.00    -0.005 A 
ATOM     11  C   UNL     1       8.021   7.912  -2.312  0.00  0.00    +0.011 A 
ATOM     12  C   UNL     1       9.260   8.514  -2.342  0.00  0.00    +0.024 A 
BRANCH   7  13
ATOM     13  N   UNL     1      10.878   9.916  -3.450  0.00  0.00    -0.330 N 
BRANCH  13  15
ATOM     14  C   UNL     1      12.685   8.500  -2.605  0.00  0.00    +0.024 C 
ATOM     15  C   UNL     1      11.808   9.725  -2.335  0.00  0.00    +0.102 C 
ENDBRANCH  13  15
BRANCH  13  16
ATOM     16  C   UNL     1      11.265  10.749  -4.592  0.00  0.00    +0.102 C 
ATOM     17  C   UNL     1      10.847  12.198  -4.330  0.00  0.00    +0.024 C 
ENDBRANCH  13  16
ENDBRANCH   7  13
ENDBRANCH   5  10
ENDBRANCH   1   6
BRANCH   2  18
ATOM     18  C   UNL     1       2.499   4.663  -1.240  0.00  0.00    +0.199 C 
BRANCH  18  19
ATOM     19  N   UNL     1       2.356   3.889   0.001  0.00  0.00    -0.334 N 
ATOM     20  H   UNL     1       3.140   3.934   0.770  0.00  0.00    +0.147 HD
BRANCH  19  21
ATOM     21  C   UNL     1       1.159   3.167   0.005  0.00  0.00    +0.056 A 
ATOM     22  C   UNL     1       1.140   1.848  -0.433  0.00  0.00    +0.041 A 
ATOM     23  C   UNL     1      -0.045   1.136  -0.427  0.00  0.00    +0.037 A 
ATOM     24  C   UNL     1      -1.212   1.737   0.009  0.00  0.00    +0.043 A 
ATOM     25  C   UNL     1      -1.196   3.048   0.451  0.00  0.00    +0.037 A 
ATOM     26  C   UNL     1      -0.014   3.765   0.448  0.00  0.00    +0.041 A 
ATOM     27 BR   UNL     1       0.006   5.559   1.046  0.00  0.00    -0.048 Br
ATOM     28 CL   UNL     1      -2.700   0.842   0.009  0.00  0.00    -0.083 Cl
ATOM     29 BR   UNL     1       2.733   1.028  -1.036  0.00  0.00    -0.048 Br
ENDBRANCH  19  21
ENDBRANCH  18  19
ENDBRANCH   2  18
TORSDOF 8
