REMARK  Name = ZINC08719346
REMARK  14 active torsions:
REMARK  status: ('A' for Active; 'I' for Inactive)
REMARK    1  A    between atoms: C_1  and  C_2
REMARK    2  A    between atoms: C_2  and  C_3
REMARK    3  A    between atoms: C_2  and  N_4
REMARK    4  A    between atoms: N_4  and  S_5
REMARK    5  A    between atoms: S_5  and  C_8
REMARK    6  A    between atoms: C_11  and  N_14
REMARK    7  A    between atoms: C_15  and  C_17
REMARK    8  A    between atoms: C_17  and  C_19
REMARK    9  A    between atoms: C_17  and  N_58
REMARK   10  A    between atoms: C_20  and  N_58
REMARK   11  A    between atoms: C_21  and  C_22
REMARK   12  A    between atoms: C_21  and  N_58
REMARK   13  A    between atoms: C_27  and  O_28
REMARK   14  A    between atoms: O_28  and  C_29
REMARK                            x       y       z     vdW  Elec       q    Type
REMARK                         _______ _______ _______ _____ _____    ______ ____
ROOT
ATOM      1  N   UNL     1      -3.077   3.043   4.819  0.00  0.00    -0.287 N 
ATOM      2  C   UNL     1      -2.806   4.216   5.426  0.00  0.00    +0.203 C 
ATOM      3  O   UNL     1      -2.000   4.979   4.938  0.00  0.00    -0.277 OA
ATOM      4  H   UNL     1      -3.770   2.463   5.173  0.00  0.00    +0.155 HD
ENDROOT
BRANCH   1   8
ATOM      5  C   UNL     1      -0.940   1.910   1.427  0.00  0.00    +0.105 A 
ATOM      6  C   UNL     1      -1.351   0.952   2.336  0.00  0.00    +0.030 A 
ATOM      7  C   UNL     1      -2.055   1.325   3.464  0.00  0.00    +0.025 A 
ATOM      8  C   UNL     1      -2.360   2.663   3.680  0.00  0.00    +0.033 A 
ATOM      9  C   UNL     1      -1.951   3.622   2.763  0.00  0.00    +0.025 A 
ATOM     10  C   UNL     1      -1.242   3.243   1.639  0.00  0.00    +0.030 A 
BRANCH   5  11
ATOM     11  S   UNL     1      -0.036   1.431  -0.007  0.00  0.00    +0.059 S 
ATOM     12  O   UNL     1      -0.247   2.447  -0.978  0.00  0.00    -0.153 OA
ATOM     13  O   UNL     1      -0.354   0.068  -0.251  0.00  0.00    -0.153 OA
BRANCH  11  14
ATOM     14  N   UNL     1       1.571   1.480   0.388  0.00  0.00    -0.187 NA
ATOM     15  H   UNL     1       2.159   2.117  -0.047  0.00  0.00    +0.148 HD
BRANCH  14  17
ATOM     16  C   UNL     1       3.530   0.153   1.010  0.00  0.00    +0.025 C 
ATOM     17  C   UNL     1       2.106   0.560   1.395  0.00  0.00    +0.070 C 
ATOM     18  C   UNL     1       2.124   1.252   2.760  0.00  0.00    +0.025 C 
ENDBRANCH  14  17
ENDBRANCH  11  14
ENDBRANCH   5  11
ENDBRANCH   1   8
BRANCH   2  19
ATOM     19  C   UNL     1      -3.504   4.578   6.712  0.00  0.00    +0.016 C 
ATOM     20  C   UNL     1      -3.187   3.528   7.778  0.00  0.00    -0.004 C 
BRANCH  19  22
ATOM     21  C   UNL     1      -1.593   5.881   7.428  0.00  0.00    -0.095 C 
ATOM     22  N   UNL     1      -3.044   5.914   7.146  0.00  0.00    +0.388 N 
ATOM     23  H   UNL     1      -3.222   6.589   6.394  0.00  0.00    -0.081 HD
BRANCH  22  24
ATOM     24  C   UNL     1      -3.784   6.335   8.354  0.00  0.00    -0.039 C 
BRANCH  24  25
ATOM     25  C   UNL     1      -3.458   7.777   8.646  0.00  0.00    -0.021 A 
ATOM     26  C   UNL     1      -2.542   8.094   9.631  0.00  0.00    +0.020 A 
ATOM     27  C   UNL     1      -2.243   9.417   9.899  0.00  0.00    +0.018 A 
ATOM     28  C   UNL     1      -2.859  10.427   9.181  0.00  0.00    +0.019 A 
ATOM     29  C   UNL     1      -3.776  10.115   8.196  0.00  0.00    +0.047 A 
ATOM     30  C   UNL     1      -4.073   8.788   7.922  0.00  0.00    +0.122 A 
ATOM     31 BR   UNL     1      -0.989   9.847  11.247  0.00  0.00    -0.050 Br
BRANCH  30  32
ATOM     32  O   UNL     1      -4.969   8.479   6.948  0.00  0.00    -0.495 OA
ATOM     33  C   UNL     1      -5.564   9.570   6.243  0.00  0.00    +0.277 C 
ENDBRANCH  30  32
ENDBRANCH  24  25
ENDBRANCH  22  24
ENDBRANCH  19  22
ENDBRANCH   2  19
TORSDOF 9
