REMARK  Name = ZINC27458541
REMARK  16 active torsions:
REMARK  status: ('A' for Active; 'I' for Inactive)
REMARK    1  A    between atoms: C_1  and  C_2
REMARK    2  A    between atoms: C_5  and  C_33
REMARK    3  A    between atoms: N_8  and  S_10
REMARK    4  A    between atoms: S_10  and  C_13
REMARK    5  A    between atoms: C_15  and  C_21
REMARK    6  A    between atoms: C_18  and  O_19
REMARK    7  A    between atoms: O_19  and  C_20
REMARK    8  A    between atoms: N_23  and  C_24
REMARK    9  A    between atoms: C_24  and  C_25
REMARK   10  A    between atoms: C_25  and  N_26
REMARK   11  A    between atoms: N_26  and  C_27
REMARK   12  A    between atoms: N_26  and  C_30
REMARK   13  A    between atoms: C_27  and  C_28
REMARK   14  A    between atoms: C_27  and  C_29
REMARK   15  A    between atoms: C_30  and  C_31
REMARK   16  A    between atoms: C_30  and  C_32
REMARK                            x       y       z     vdW  Elec       q    Type
REMARK                         _______ _______ _______ _____ _____    ______ ____
ROOT
ATOM      1  C   UNL     1       0.433  -4.197  -3.976  0.00  0.00    +0.148 A 
ATOM      2  C   UNL     1       1.024  -2.976  -3.737  0.00  0.00    +0.045 A 
ATOM      3  C   UNL     1       2.129  -2.891  -2.887  0.00  0.00    +0.039 A 
ATOM      4  C   UNL     1       2.631  -4.046  -2.281  0.00  0.00    +0.017 A 
ATOM      5  C   UNL     1       2.035  -5.263  -2.525  0.00  0.00    +0.048 A 
ATOM      6  C   UNL     1       0.935  -5.344  -3.372  0.00  0.00    +0.146 A 
ENDROOT
BRANCH   3   7
ATOM      7  C   UNL     1       2.765  -1.584  -2.629  0.00  0.00    +0.244 C 
ATOM      8  O   UNL     1       2.327  -0.580  -3.156  0.00  0.00    -0.270 OA
ATOM      9  N   UNL     1       3.831  -1.504  -1.808  0.00  0.00    -0.313 N 
ATOM     10  H   UNL     1       4.227  -2.412  -1.330  0.00  0.00    +0.149 HD
BRANCH   9  11
ATOM     11  C   UNL     1       4.462  -0.207  -1.551  0.00  0.00    +0.086 C 
BRANCH  11  12
ATOM     12  C   UNL     1       5.640  -0.393  -0.593  0.00  0.00    -0.059 C 
BRANCH  12  13
ATOM     13  N   UNL     1       6.353   0.882  -0.439  0.00  0.00    +0.384 N 
ATOM     14  H   UNL     1       6.424   1.351  -1.432  0.00  0.00    -0.081 HD
BRANCH  13  15
ATOM     15  C   UNL     1       5.612   1.796   0.440  0.00  0.00    -0.074 C 
ATOM     16  C   UNL     1       4.657   2.649  -0.399  0.00  0.00    -0.014 C 
ATOM     17  C   UNL     1       4.809   0.986   1.459  0.00  0.00    -0.014 C 
ENDBRANCH  13  15
BRANCH  13  18
ATOM     18  C   UNL     1       7.718   0.665   0.057  0.00  0.00    -0.074 C 
ATOM     19  C   UNL     1       8.501   1.978  -0.013  0.00  0.00    -0.014 C 
ATOM     20  C   UNL     1       7.662   0.182   1.508  0.00  0.00    -0.014 C 
ENDBRANCH  13  18
ENDBRANCH  12  13
ENDBRANCH  11  12
ENDBRANCH   9  11
ENDBRANCH   3   7
BRANCH   1  21
ATOM     21  S   UNL     1      -0.956  -4.308  -5.054  0.00  0.00    +0.064 S 
ATOM     22  O   UNL     1      -1.947  -5.056  -4.364  0.00  0.00    -0.153 OA
ATOM     23  O   UNL     1      -1.196  -2.995  -5.543  0.00  0.00    -0.153 OA
BRANCH  21  29
ATOM     24  C   UNL     1      -1.550  -8.602  -7.693  0.00  0.00    +0.009 C 
ATOM     25  C   UNL     1      -1.461  -7.077  -7.610  0.00  0.00    +0.002 C 
ATOM     26  C   UNL     1      -0.736  -6.540  -8.846  0.00  0.00    +0.009 C 
ATOM     27  C   UNL     1      -0.676  -5.012  -8.780  0.00  0.00    +0.002 C 
ATOM     28  C   UNL     1       0.111  -4.589  -7.536  0.00  0.00    +0.112 C 
ATOM     29  N   UNL     1      -0.494  -5.221  -6.356  0.00  0.00    -0.176 NA
ATOM     30  C   UNL     1      -0.677  -6.678  -6.350  0.00  0.00    +0.112 C 
ATOM     31  C   UNL     1      -2.096  -4.448  -8.702  0.00  0.00    +0.009 C 
ENDBRANCH  21  29
ENDBRANCH   1  21
BRANCH   6  32
ATOM     32  O   UNL     1       0.350  -6.545  -3.608  0.00  0.00    -0.493 OA
ATOM     33  C   UNL     1       0.844  -7.664  -2.869  0.00  0.00    +0.277 C 
ENDBRANCH   6  32
TORSDOF 9
