REMARK  Name = ZINC63681336
REMARK  7 active torsions:
REMARK  status: ('A' for Active; 'I' for Inactive)
REMARK    1  A    between atoms: C_1  and  C_2
REMARK    2  A    between atoms: C_6  and  C_8
REMARK    3  A    between atoms: C_8  and  N_9
REMARK    4  A    between atoms: C_13  and  C_16
REMARK    5  A    between atoms: N_18  and  N_19
REMARK    6  A    between atoms: C_20  and  C_22
REMARK    7  A    between atoms: C_27  and  O_28
REMARK                            x       y       z     vdW  Elec       q    Type
REMARK                         _______ _______ _______ _____ _____    ______ ____
ROOT
ATOM      1  C   UNL     1       4.087  -1.403   4.947  0.00  0.00    +0.265 C 
ATOM      2  O   UNL     1       5.204  -1.641   5.365  0.00  0.00    -0.268 OA
ATOM      3  N   UNL     1       3.479  -0.245   5.271  0.00  0.00    -0.230 N 
ATOM      4  H   UNL     1       2.561  -0.087   5.000  0.00  0.00    +0.173 HD
ENDROOT
BRANCH   1   9
ATOM      5  N   UNL     1       1.438  -3.078   2.910  0.00  0.00    -0.310 N 
ATOM      6  C   UNL     1       2.086  -4.189   2.486  0.00  0.00    +0.089 A 
ATOM      7  C   UNL     1       3.375  -4.429   2.837  0.00  0.00    +0.019 A 
ATOM      8  C   UNL     1       4.060  -3.525   3.649  0.00  0.00    +0.020 A 
ATOM      9  C   UNL     1       3.399  -2.380   4.089  0.00  0.00    +0.103 A 
ATOM     10  C   UNL     1       2.054  -2.171   3.692  0.00  0.00    +0.264 A 
ATOM     11  O   UNL     1       1.455  -1.175   4.060  0.00  0.00    -0.267 OA
BRANCH   5  12
ATOM     12  C   UNL     1       0.046  -2.857   2.508  0.00  0.00    +0.160 C 
BRANCH  12  18
ATOM     13  C   UNL     1      -0.078   1.508   0.064  0.00  0.00    +0.044 C 
ATOM     14  C   UNL     1      -0.046   0.002   0.044  0.00  0.00    -0.050 A 
ATOM     15  C   UNL     1      -0.046  -0.674  -1.163  0.00  0.00    +0.003 A 
ATOM     16  C   UNL     1      -0.017  -2.056  -1.181  0.00  0.00    +0.001 A 
ATOM     17  C   UNL     1       0.013  -2.762   0.007  0.00  0.00    +0.005 A 
ATOM     18  C   UNL     1       0.014  -2.087   1.213  0.00  0.00    -0.027 A 
ATOM     19  C   UNL     1      -0.011  -0.705   1.231  0.00  0.00    +0.008 A 
ENDBRANCH  12  18
ENDBRANCH   5  12
ENDBRANCH   1   9
BRANCH   3  20
ATOM     20  N   UNL     1       4.173   0.732   5.998  0.00  0.00    -0.230 N 
ATOM     21  C   UNL     1       3.565   1.890   6.321  0.00  0.00    +0.264 C 
ATOM     22  O   UNL     1       2.414   2.088   5.982  0.00  0.00    -0.269 OA
ATOM     23  H   UNL     1       5.091   0.574   6.268  0.00  0.00    +0.173 HD
BRANCH  21  24
ATOM     24  C   UNL     1       4.295   2.918   7.087  0.00  0.00    +0.079 A 
ATOM     25  C   UNL     1       5.620   2.697   7.473  0.00  0.00    +0.017 A 
ATOM     26  C   UNL     1       6.296   3.661   8.188  0.00  0.00    +0.001 A 
ATOM     27  C   UNL     1       5.670   4.850   8.525  0.00  0.00    +0.004 A 
ATOM     28  C   UNL     1       4.362   5.081   8.150  0.00  0.00    +0.046 A 
ATOM     29  C   UNL     1       3.667   4.124   7.425  0.00  0.00    +0.129 A 
BRANCH  29  30
ATOM     30  O   UNL     1       2.384   4.352   7.050  0.00  0.00    -0.506 OA
ATOM     31  H   UNL     1       1.727   4.059   7.696  0.00  0.00    +0.292 HD
ENDBRANCH  29  30
ENDBRANCH  21  24
ENDBRANCH   3  20
TORSDOF 6
