REMARK  Name = ZINC54643822
REMARK  9 active torsions:
REMARK  status: ('A' for Active; 'I' for Inactive)
REMARK    1  A    between atoms: C_1  and  C_2
REMARK    2  A    between atoms: C_5  and  N_9
REMARK    3  A    between atoms: C_6  and  C_8
REMARK    4  A    between atoms: C_10  and  C_12
REMARK    5  A    between atoms: C_13  and  C_40
REMARK    6  A    between atoms: C_17  and  S_32
REMARK    7  A    between atoms: C_20  and  C_22
REMARK    8  A    between atoms: S_32  and  C_33
REMARK    9  A    between atoms: C_33  and  C_34
REMARK                            x       y       z     vdW  Elec       q    Type
REMARK                         _______ _______ _______ _____ _____    ______ ____
ROOT
ATOM      1  C   UNL     1      -0.694  -6.532  -1.380  0.00  0.00    +0.060 C 
ATOM      2  C   UNL     1      -0.966  -6.998  -2.607  0.00  0.00    +0.018 C 
ATOM      3  N   UNL     1      -1.284  -8.314  -2.836  0.00  0.00    -0.287 N 
ATOM      4  C   UNL     1      -1.062  -9.214  -1.803  0.00  0.00    +0.219 A 
ATOM      5  N   UNL     1      -1.062 -10.520  -1.812  0.00  0.00    -0.187 NA
ATOM      6  C   UNL     1      -0.792 -10.975  -0.579  0.00  0.00    +0.211 A 
ATOM      7  N   UNL     1      -0.620  -9.951   0.228  0.00  0.00    -0.141 NA
ATOM      8  N   UNL     1      -0.793  -8.801  -0.540  0.00  0.00    -0.220 N 
ATOM      9  C   UNL     1      -0.716  -7.397  -0.148  0.00  0.00    +0.179 C 
ATOM     10  C   UNL     1      -0.922  -6.045  -3.775  0.00  0.00    +0.061 C 
ATOM     11  H   UNL     1      -1.650  -8.604  -3.687  0.00  0.00    +0.155 HD
ENDROOT
BRANCH   9  12
ATOM     12  C   UNL     1      -1.919  -7.048   0.689  0.00  0.00    +0.007 A 
ATOM     13  C   UNL     1      -3.207  -7.212   0.345  0.00  0.00    +0.089 A 
ATOM     14  N   UNL     1      -4.019  -6.782   1.358  0.00  0.00    -0.360 N 
ATOM     15  H   UNL     1      -4.989  -6.800   1.341  0.00  0.00    +0.165 HD
ATOM     16  C   UNL     1      -3.255  -6.320   2.407  0.00  0.00    +0.047 A 
ATOM     17  C   UNL     1      -1.906  -6.472   2.036  0.00  0.00    +0.005 A 
ATOM     18  C   UNL     1      -0.894  -6.087   2.917  0.00  0.00    +0.010 A 
ATOM     19  C   UNL     1      -1.219  -5.567   4.138  0.00  0.00    +0.001 A 
ATOM     20  C   UNL     1      -2.548  -5.419   4.510  0.00  0.00    +0.002 A 
ATOM     21  C   UNL     1      -3.563  -5.783   3.652  0.00  0.00    +0.026 A 
ENDBRANCH   9  12
BRANCH   1  23
ATOM     22  N   UNL     1      -1.343  -4.242  -1.133  0.00  0.00    -0.281 N 
ATOM     23  C   UNL     1      -0.364  -5.163  -1.236  0.00  0.00    +0.248 C 
ATOM     24  O   UNL     1       0.803  -4.818  -1.206  0.00  0.00    -0.270 OA
ATOM     25  H   UNL     1      -2.268  -4.523  -1.055  0.00  0.00    +0.155 HD
BRANCH  22  30
ATOM     26  C   UNL     1      -0.049   1.281  -1.151  0.00  0.00    +0.044 C 
ATOM     27  C   UNL     1      -0.393  -0.186  -1.145  0.00  0.00    -0.050 A 
ATOM     28  C   UNL     1       0.507  -1.104  -0.635  0.00  0.00    +0.005 A 
ATOM     29  C   UNL     1       0.195  -2.449  -0.629  0.00  0.00    +0.024 A 
ATOM     30  C   UNL     1      -1.024  -2.880  -1.137  0.00  0.00    +0.037 A 
ATOM     31  C   UNL     1      -1.925  -1.956  -1.648  0.00  0.00    -0.029 A 
ATOM     32  C   UNL     1      -1.609  -0.611  -1.646  0.00  0.00    +0.008 A 
ATOM     33  C   UNL     1      -3.249  -2.419  -2.200  0.00  0.00    +0.045 C 
ENDBRANCH  22  30
ENDBRANCH   1  23
BRANCH   6  34
ATOM     34  S   UNL     1      -0.687 -12.672  -0.117  0.00  0.00    -0.080 S 
BRANCH  34  35
ATOM     35  C   UNL     1      -1.019 -13.569  -1.658  0.00  0.00    +0.112 C 
BRANCH  35  36
ATOM     36  C   UNL     1      -0.959 -15.052  -1.399  0.00  0.00    -0.037 A 
ATOM     37  C   UNL     1       0.240 -15.728  -1.529  0.00  0.00    +0.004 A 
ATOM     38  C   UNL     1       0.295 -17.089  -1.292  0.00  0.00    +0.000 A 
ATOM     39  C   UNL     1      -0.848 -17.773  -0.924  0.00  0.00    +0.000 A 
ATOM     40  C   UNL     1      -2.046 -17.097  -0.793  0.00  0.00    +0.000 A 
ATOM     41  C   UNL     1      -2.101 -15.736  -1.026  0.00  0.00    +0.004 A 
ENDBRANCH  35  36
ENDBRANCH  34  35
ENDBRANCH   6  34
TORSDOF 6
