REMARK  Name = ZINC64890583
REMARK  5 active torsions:
REMARK  status: ('A' for Active; 'I' for Inactive)
REMARK    1  A    between atoms: C_1  and  C_2
REMARK    2  A    between atoms: C_5  and  C_8
REMARK    3  A    between atoms: C_8  and  C_9
REMARK    4  A    between atoms: C_11  and  C_14
REMARK    5  A    between atoms: N_26  and  C_27
REMARK                            x       y       z     vdW  Elec       q    Type
REMARK                         _______ _______ _______ _____ _____    ______ ____
ROOT
ATOM      1  C   UNL     1       4.538  -5.808   1.563  0.00  0.00    +0.025 A 
ATOM      2  C   UNL     1       4.345  -5.760   2.945  0.00  0.00    +0.014 A 
ATOM      3  C   UNL     1       5.366  -6.114   3.798  0.00  0.00    +0.028 A 
ATOM      4  C   UNL     1       6.595  -6.522   3.288  0.00  0.00    +0.068 A 
ATOM      5  C   UNL     1       6.794  -6.571   1.906  0.00  0.00    +0.067 A 
ATOM      6  C   UNL     1       5.762  -6.220   1.046  0.00  0.00    +0.039 A 
ATOM      7  N   UNL     1       8.019  -6.977   1.380  0.00  0.00    -0.316 N 
ATOM      8  H   UNL     1       8.147  -7.008   0.419  0.00  0.00    +0.169 HD
ATOM      9  C   UNL     1       9.026  -7.326   2.206  0.00  0.00    +0.314 A 
ATOM     10  O   UNL     1      10.096  -7.680   1.753  0.00  0.00    -0.262 OA
ATOM     11  C   UNL     1       8.813  -7.273   3.681  0.00  0.00    +0.316 A 
ATOM     12  O   UNL     1       9.707  -7.583   4.442  0.00  0.00    -0.262 OA
ATOM     13  N   UNL     1       7.617  -6.876   4.162  0.00  0.00    -0.305 N 
ATOM     14  C   UNL     1       7.394  -6.818   5.609  0.00  0.00    +0.153 C 
ENDROOT
BRANCH   1  17
ATOM     15  C   UNL     1       1.487  -4.759  -0.032  0.00  0.00    +0.232 A 
ATOM     16  N   UNL     1       2.212  -5.014   1.020  0.00  0.00    -0.191 NA
ATOM     17  C   UNL     1       3.436  -5.427   0.646  0.00  0.00    +0.202 A 
ATOM     18  N   UNL     1       3.494  -5.435  -0.663  0.00  0.00    -0.056 NA
ATOM     19  O   UNL     1       2.221  -5.005  -1.124  0.00  0.00    -0.337 OA
BRANCH  15  20
ATOM     20  C   UNL     1       0.059  -4.275  -0.021  0.00  0.00    +0.134 C 
BRANCH  20  25
ATOM     21  C   UNL     1      -0.018   1.503   0.010  0.00  0.00    +0.044 C 
ATOM     22  C   UNL     1       0.002  -0.004   0.002  0.00  0.00    -0.050 A 
ATOM     23  C   UNL     1       0.006  -0.689  -1.199  0.00  0.00    +0.003 A 
ATOM     24  C   UNL     1       0.025  -2.071  -1.206  0.00  0.00    +0.004 A 
ATOM     25  C   UNL     1       0.040  -2.768  -0.013  0.00  0.00    -0.038 A 
ATOM     26  C   UNL     1       0.037  -2.084   1.188  0.00  0.00    +0.004 A 
ATOM     27  C   UNL     1       0.023  -0.702   1.195  0.00  0.00    +0.003 A 
ENDBRANCH  20  25
ENDBRANCH  15  20
ENDBRANCH   1  17
TORSDOF 3
