REMARK  Name = ZINC63694594
REMARK  7 active torsions:
REMARK  status: ('A' for Active; 'I' for Inactive)
REMARK    1  A    between atoms: C_1  and  C_2
REMARK    2  A    between atoms: C_7  and  N_12
REMARK    3  A    between atoms: C_15  and  C_18
REMARK    4  A    between atoms: N_20  and  C_21
REMARK    5  A    between atoms: C_21  and  C_23
REMARK    6  A    between atoms: C_21  and  C_24
REMARK    7  A    between atoms: C_24  and  C_25
REMARK                            x       y       z     vdW  Elec       q    Type
REMARK                         _______ _______ _______ _____ _____    ______ ____
ROOT
ATOM      1  N   UNL     1       1.282  -5.061   1.936  0.00  0.00    -0.266 NA
ATOM      2  C   UNL     1       2.488  -4.313   1.557  0.00  0.00    +0.089 C 
ATOM      3  C   UNL     1       3.728  -5.161   1.850  0.00  0.00    +0.028 C 
ATOM      4  C   UNL     1       3.765  -5.505   3.341  0.00  0.00    +0.077 C 
ATOM      5  C   UNL     1       2.477  -6.240   3.720  0.00  0.00    +0.028 C 
ATOM      6  C   UNL     1       1.273  -5.361   3.373  0.00  0.00    +0.089 C 
ENDROOT
BRANCH   1  13
ATOM      7  C   UNL     1      -0.018   1.503   0.010  0.00  0.00    +0.044 C 
ATOM      8  C   UNL     1       0.002  -0.004   0.002  0.00  0.00    -0.048 A 
ATOM      9  C   UNL     1       0.005  -0.672  -1.235  0.00  0.00    +0.005 A 
ATOM     10  C   UNL     1       0.022  -2.017  -1.335  0.00  0.00    +0.028 A 
ATOM     11  C   UNL     1       0.040  -2.834  -0.114  0.00  0.00    +0.061 A 
ATOM     12  N   UNL     1       0.057  -4.120   0.090  0.00  0.00    -0.351 N 
ATOM     13  C   UNL     1       0.067  -4.335   1.542  0.00  0.00    +0.252 C 
ATOM     14  N   UNL     1       0.053  -3.002   2.159  0.00  0.00    -0.351 N 
ATOM     15  C   UNL     1       0.037  -2.127   1.195  0.00  0.00    +0.061 A 
ATOM     16  C   UNL     1       0.022  -0.657   1.181  0.00  0.00    +0.030 A 
ATOM     17  H   UNL     1       0.062  -4.809  -0.593  0.00  0.00    +0.163 HD
ATOM     18  H   UNL     1       0.055  -2.810   3.109  0.00  0.00    +0.163 HD
ENDBRANCH   1  13
BRANCH   4  19
ATOM     19  C   UNL     1       4.952  -6.389   3.625  0.00  0.00    +0.216 C 
ATOM     20  O   UNL     1       5.696  -6.714   2.723  0.00  0.00    -0.276 OA
ATOM     21  N   UNL     1       5.187  -6.820   4.880  0.00  0.00    -0.312 N 
ATOM     22  H   UNL     1       4.592  -6.560   5.601  0.00  0.00    +0.149 HD
BRANCH  21  23
ATOM     23  C   UNL     1       6.340  -7.680   5.155  0.00  0.00    +0.077 C 
ATOM     24  C   UNL     1       5.966  -9.138   4.882  0.00  0.00    +0.028 C 
BRANCH  23  25
ATOM     25  C   UNL     1       6.753  -7.525   6.621  0.00  0.00    +0.096 C 
BRANCH  25  26
ATOM     26  C   UNL     1       7.239  -6.119   6.860  0.00  0.00    +0.107 A 
ATOM     27  C   UNL     1       6.477  -5.079   7.244  0.00  0.00    +0.045 A 
ATOM     28  C   UNL     1       7.334  -3.959   7.348  0.00  0.00    +0.041 A 
ATOM     29  C   UNL     1       8.569  -4.382   7.021  0.00  0.00    +0.195 A 
ATOM     30  O   UNL     1       8.506  -5.692   6.732  0.00  0.00    -0.468 OA
ENDBRANCH  25  26
ENDBRANCH  23  25
ENDBRANCH  21  23
ENDBRANCH   4  19
TORSDOF 5
