REMARK  Name = ZINC58191597
REMARK  9 active torsions:
REMARK  status: ('A' for Active; 'I' for Inactive)
REMARK    1  A    between atoms: C_1  and  C_2
REMARK    2  A    between atoms: C_2  and  C_3
REMARK    3  A    between atoms: C_2  and  C_4
REMARK    4  A    between atoms: C_2  and  O_5
REMARK    5  A    between atoms: O_5  and  C_6
REMARK    6  A    between atoms: N_8  and  C_9
REMARK    7  A    between atoms: C_9  and  C_10
REMARK    8  A    between atoms: N_16  and  C_17
REMARK    9  A    between atoms: C_17  and  C_18
REMARK                            x       y       z     vdW  Elec       q    Type
REMARK                         _______ _______ _______ _____ _____    ______ ____
ROOT
ATOM      1  C   UNL     1       4.441  -0.524  -3.872  0.00  0.00    -0.050 C 
ATOM      2  C   UNL     1       5.877  -0.103  -4.193  0.00  0.00    -0.014 C 
ATOM      3  C   UNL     1       6.351  -0.843  -5.447  0.00  0.00    -0.003 C 
ATOM      4  C   UNL     1       5.387  -0.545  -6.599  0.00  0.00    -0.019 C 
ATOM      5  C   UNL     1       3.970  -0.949  -6.189  0.00  0.00    -0.078 C 
ATOM      6  N   UNL     1       3.565  -0.188  -5.001  0.00  0.00    +0.388 N 
ATOM      7  H   UNL     1       3.633   0.800  -5.196  0.00  0.00    -0.081 HD
ENDROOT
BRANCH   1   8
ATOM      8  C   UNL     1       3.962   0.213  -2.619  0.00  0.00    +0.092 C 
BRANCH   8  11
ATOM      9  C   UNL     1       3.374   2.487  -1.972  0.00  0.00    +0.401 C 
ATOM     10  O   UNL     1       2.996   2.054  -0.901  0.00  0.00    -0.226 OA
ATOM     11  N   UNL     1       3.874   1.648  -2.900  0.00  0.00    -0.283 N 
ATOM     12  H   UNL     1       4.175   1.994  -3.755  0.00  0.00    +0.152 HD
BRANCH   9  13
ATOM     13  O   UNL     1       3.293   3.806  -2.230  0.00  0.00    -0.445 OA
BRANCH  13  15
ATOM     14  C   UNL     1       3.615   4.517   0.057  0.00  0.00    +0.055 C 
ATOM     15  C   UNL     1       2.752   4.637  -1.201  0.00  0.00    +0.107 C 
ATOM     16  C   UNL     1       1.323   4.191  -0.883  0.00  0.00    +0.055 C 
ATOM     17  C   UNL     1       2.740   6.092  -1.674  0.00  0.00    +0.055 C 
ENDBRANCH  13  15
ENDBRANCH   9  13
ENDBRANCH   8  11
ENDBRANCH   1   8
BRANCH   6  18
ATOM     18  C   UNL     1       2.176  -0.522  -4.657  0.00  0.00    +0.019 C 
BRANCH  18  19
ATOM     19  C   UNL     1       1.257  -0.024  -5.743  0.00  0.00    +0.204 C 
ATOM     20  O   UNL     1       1.714   0.552  -6.707  0.00  0.00    -0.277 OA
ATOM     21  N   UNL     1      -0.073  -0.219  -5.642  0.00  0.00    -0.242 N 
ATOM     22  C   UNL     1      -0.895   0.226  -6.612  0.00  0.00    +0.303 C 
ATOM     23  O   UNL     1      -0.437   0.803  -7.579  0.00  0.00    -0.253 OA
ATOM     24  N   UNL     1      -2.225   0.031  -6.511  0.00  0.00    -0.313 N 
ATOM     25  H   UNL     1      -0.438  -0.680  -4.870  0.00  0.00    +0.159 HD
ATOM     26  H   UNL     1      -2.590  -0.430  -5.740  0.00  0.00    +0.146 HD
ATOM     27  H   UNL     1      -2.816   0.351  -7.210  0.00  0.00    +0.146 HD
ENDBRANCH  18  19
ENDBRANCH   6  18
TORSDOF 6
