REMARK  Name = ZINC13034014
REMARK  14 active torsions:
REMARK  status: ('A' for Active; 'I' for Inactive)
REMARK    1  A    between atoms: C_1  and  C_2
REMARK    2  A    between atoms: C_2  and  C_3
REMARK    3  A    between atoms: C_10  and  C_15
REMARK    4  A    between atoms: C_15  and  N_74
REMARK    5  A    between atoms: C_16  and  N_74
REMARK    6  A    between atoms: C_22  and  C_24
REMARK    7  A    between atoms: C_22  and  C_26
REMARK    8  A    between atoms: C_22  and  N_74
REMARK    9  A    between atoms: C_24  and  C_25
REMARK   10  A    between atoms: N_30  and  C_31
REMARK   11  A    between atoms: C_31  and  C_32
REMARK   12  A    between atoms: C_31  and  C_33
REMARK   13  A    between atoms: C_31  and  C_34
REMARK   14  A    between atoms: C_34  and  C_35
REMARK                            x       y       z     vdW  Elec       q    Type
REMARK                         _______ _______ _______ _____ _____    ______ ____
ROOT
ATOM      1  N   UNL     1      -1.297   2.538   1.504  0.00  0.00    +0.391 N 
ATOM      2  H   UNL     1      -1.736   2.962   2.330  0.00  0.00    -0.080 HD
ENDROOT
BRANCH   1   3
ATOM      3  C   UNL     1       0.004   3.197   1.261  0.00  0.00    -0.067 C 
ATOM      4  C   UNL     1       0.771   2.475   0.151  0.00  0.00    -0.015 C 
ATOM      5  C   UNL     1       2.112   3.174  -0.079  0.00  0.00    -0.002 C 
ATOM      6  C   UNL     1       2.932   3.142   1.213  0.00  0.00    -0.000 C 
ATOM      7  C   UNL     1       2.165   3.863   2.322  0.00  0.00    -0.002 C 
ATOM      8  C   UNL     1       0.823   3.164   2.552  0.00  0.00    -0.015 C 
ENDBRANCH   1   3
BRANCH   1   9
ATOM      9  C   UNL     1      -2.185   2.725   0.338  0.00  0.00    -0.036 C 
BRANCH   9  17
ATOM     10  C   UNL     1      -2.537   8.730  -1.111  0.00  0.00    -0.047 A 
ATOM     11  C   UNL     1      -3.634   9.019  -0.311  0.00  0.00    +0.005 A 
ATOM     12  C   UNL     1      -4.227   8.036   0.452  0.00  0.00    +0.026 A 
ATOM     13  C   UNL     1      -3.723   6.740   0.420  0.00  0.00    +0.049 A 
ATOM     14  C   UNL     1      -2.610   6.451  -0.392  0.00  0.00    -0.001 A 
ATOM     15  C   UNL     1      -2.025   7.465  -1.157  0.00  0.00    +0.013 A 
ATOM     16  C   UNL     1      -2.084   5.085  -0.415  0.00  0.00    +0.017 A 
ATOM     17  C   UNL     1      -2.697   4.142   0.343  0.00  0.00    +0.001 A 
ATOM     18  C   UNL     1      -3.810   4.484   1.140  0.00  0.00    +0.251 A 
ATOM     19  O   UNL     1      -4.343   3.622   1.817  0.00  0.00    -0.268 OA
ATOM     20  N   UNL     1      -4.297   5.737   1.171  0.00  0.00    -0.322 N 
ATOM     21  H   UNL     1      -5.064   5.938   1.731  0.00  0.00    +0.169 HD
BRANCH  10  23
ATOM     22  C   UNL     1      -2.574   9.875  -3.310  0.00  0.00    +0.009 C 
ATOM     23  C   UNL     1      -1.905   9.822  -1.935  0.00  0.00    +0.032 C 
ENDBRANCH  10  23
ENDBRANCH   9  17
ENDBRANCH   1   9
BRANCH   1  24
ATOM     24  C   UNL     1      -1.093   1.096   1.758  0.00  0.00    +0.003 C 
BRANCH  24  25
ATOM     25  C   UNL     1      -0.835   0.364   0.465  0.00  0.00    +0.139 A 
ATOM     26  N   UNL     1      -1.373   0.624  -0.701  0.00  0.00    -0.115 NA
ATOM     27  N   UNL     1      -0.901  -0.218  -1.554  0.00  0.00    -0.023 NA
ATOM     28  N   UNL     1      -0.076  -1.009  -0.961  0.00  0.00    -0.043 NA
ATOM     29  N   UNL     1      -0.004  -0.678   0.284  0.00  0.00    -0.225 N 
BRANCH  29  30
ATOM     30  C   UNL     1       0.824  -1.320   1.308  0.00  0.00    +0.061 C 
ATOM     31  C   UNL     1       1.911  -0.346   1.769  0.00  0.00    +0.036 C 
ATOM     32  C   UNL     1      -0.051  -1.709   2.501  0.00  0.00    +0.036 C 
BRANCH  30  33
ATOM     33  C   UNL     1       1.477  -2.574   0.725  0.00  0.00    +0.026 C 
ATOM     34  C   UNL     1       2.342  -3.244   1.794  0.00  0.00    +0.006 C 
ENDBRANCH  30  33
ENDBRANCH  29  30
ENDBRANCH  24  25
BRANCH  24  35
ATOM     35  C   UNL     1      -2.350   0.531   2.421  0.00  0.00    -0.011 C 
ATOM     36  C   UNL     1      -2.544   1.189   3.789  0.00  0.00    +0.002 C 
ENDBRANCH  24  35
ENDBRANCH   1  24
TORSDOF 9
