REMARK  Name = ZINC08443790
REMARK  4 active torsions:
REMARK  status: ('A' for Active; 'I' for Inactive)
REMARK    1  A    between atoms: C_1  and  C_2
REMARK    2  A    between atoms: C_3  and  C_12
REMARK    3  A    between atoms: C_16  and  N_33
REMARK    4  A    between atoms: C_21  and  N_62
REMARK                            x       y       z     vdW  Elec       q    Type
REMARK                         _______ _______ _______ _____ _____    ______ ____
ROOT
ATOM      1  C   UNL     1      -2.152   3.367  -2.663  0.00  0.00    +0.060 C 
ATOM      2  C   UNL     1      -3.417   2.600  -2.374  0.00  0.00    +0.004 A 
ATOM      3  C   UNL     1      -4.625   3.112  -2.818  0.00  0.00    +0.040 A 
ATOM      4  C   UNL     1      -5.801   2.429  -2.582  0.00  0.00    +0.127 A 
ATOM      5  C   UNL     1      -5.777   1.228  -1.898  0.00  0.00    +0.036 A 
ATOM      6  C   UNL     1      -4.578   0.714  -1.450  0.00  0.00    +0.048 A 
ATOM      7  C   UNL     1      -3.390   1.401  -1.684  0.00  0.00    +0.122 A 
ATOM      8  O   UNL     1      -2.230   0.867  -1.223  0.00  0.00    -0.503 OA
ATOM      9  C   UNL     1      -1.002   1.343  -1.779  0.00  0.00    +0.087 C 
ATOM     10  C   UNL     1      -1.026   2.878  -1.754  0.00  0.00    +0.027 C 
ATOM     11  C   UNL     1      -1.266   3.352  -0.320  0.00  0.00    +0.006 C 
ATOM     12  C   UNL     1      -0.124   2.859   0.573  0.00  0.00    +0.000 C 
ATOM     13  C   UNL     1      -0.066   1.331   0.536  0.00  0.00    +0.002 C 
ATOM     14  C   UNL     1       0.158   0.858  -0.902  0.00  0.00    +0.029 C 
ENDROOT
BRANCH   1  17
ATOM     15  C   UNL     1      -1.271   5.694  -4.519  0.00  0.00    +0.063 C 
ATOM     16  C   UNL     1      -2.013   5.848  -3.216  0.00  0.00    +0.018 A 
ATOM     17  C   UNL     1      -2.390   4.835  -2.420  0.00  0.00    -0.012 A 
ATOM     18  C   UNL     1      -3.072   5.428  -1.266  0.00  0.00    +0.004 A 
ATOM     19  C   UNL     1      -3.671   4.904  -0.119  0.00  0.00    +0.010 A 
ATOM     20  C   UNL     1      -4.237   5.747   0.795  0.00  0.00    +0.001 A 
ATOM     21  C   UNL     1      -4.221   7.121   0.593  0.00  0.00    +0.002 A 
ATOM     22  C   UNL     1      -3.635   7.658  -0.532  0.00  0.00    +0.026 A 
ATOM     23  C   UNL     1      -3.053   6.818  -1.477  0.00  0.00    +0.047 A 
ATOM     24  N   UNL     1      -2.406   7.040  -2.672  0.00  0.00    -0.358 N 
ATOM     25  H   UNL     1      -2.248   7.912  -3.067  0.00  0.00    +0.166 HD
ENDBRANCH   1  17
BRANCH   9  31
ATOM     26  C   UNL     1      -0.881  -0.623  -3.188  0.00  0.00    -0.045 C 
ATOM     27  C   UNL     1      -0.769  -1.096  -4.640  0.00  0.00    +0.141 C 
ATOM     28  O   UNL     1       0.431  -0.572  -5.215  0.00  0.00    -0.383 OA
ATOM     29  C   UNL     1       0.503   0.856  -5.197  0.00  0.00    +0.141 C 
ATOM     30  C   UNL     1       0.404   1.348  -3.751  0.00  0.00    -0.045 C 
ATOM     31  N   UNL     1      -0.861   0.855  -3.167  0.00  0.00    +0.409 N 
ATOM     32  H   UNL     1      -1.646   1.207  -3.727  0.00  0.00    -0.076 HD
ENDBRANCH   9  31
BRANCH   4  33
ATOM     33  N   UNL     1      -7.088   2.983  -3.060  0.00  0.00    +0.056 N 
ATOM     34  O   UNL     1      -8.126   2.380  -2.851  0.00  0.00    -0.126 OA
ATOM     35  O   UNL     1      -7.109   4.041  -3.663  0.00  0.00    -0.126 OA
ENDBRANCH   4  33
TORSDOF 3
