REMARK  Name = ZINC12652288
REMARK  3 active torsions:
REMARK  status: ('A' for Active; 'I' for Inactive)
REMARK    1  A    between atoms: C_10  and  C_20
REMARK    2  A    between atoms: C_13  and  C_15
REMARK    3  A    between atoms: C_30  and  C_33
REMARK                            x       y       z     vdW  Elec       q    Type
REMARK                         _______ _______ _______ _____ _____    ______ ____
ROOT
ATOM      1  C   UNL     1       5.223   4.744  -2.421  0.00  0.00    +0.002 A 
ATOM      2  C   UNL     1       4.449   5.875  -2.233  0.00  0.00    +0.002 A 
ATOM      3  C   UNL     1       3.402   5.866  -1.329  0.00  0.00    +0.025 A 
ATOM      4  C   UNL     1       3.131   4.711  -0.610  0.00  0.00    +0.059 A 
ATOM      5  C   UNL     1       3.935   3.593  -0.770  0.00  0.00    +0.053 A 
ATOM      6  C   UNL     1       4.970   3.596  -1.688  0.00  0.00    +0.025 A 
ATOM      7  N   UNL     1       3.656   2.494   0.035  0.00  0.00    -0.316 N 
ATOM      8  C   UNL     1       2.509   1.769  -0.009  0.00  0.00    +0.017 C 
ATOM      9  C   UNL     1       1.270   2.287  -0.033  0.00  0.00    +0.037 C 
ATOM     10  C   UNL     1       0.924   3.757  -0.037  0.00  0.00    +0.147 C 
ATOM     11  N   UNL     1       2.038   4.634   0.251  0.00  0.00    -0.251 N 
ATOM     12  C   UNL     1       2.019   5.387   1.369  0.00  0.00    +0.287 C 
ATOM     13  O   UNL     1       1.069   5.327   2.127  0.00  0.00    -0.266 OA
ATOM     14  C   UNL     1       0.140   1.435  -0.070  0.00  0.00    +0.163 C 
ATOM     15  O   UNL     1      -0.969   1.932  -0.067  0.00  0.00    -0.292 OA
ATOM     16  C   UNL     1       0.265  -0.058  -0.119  0.00  0.00    +0.091 C 
ATOM     17  C   UNL     1       1.592  -0.413  -0.801  0.00  0.00    +0.068 C 
ATOM     18  C   UNL     1       2.713   0.263  -0.016  0.00  0.00    +0.063 C 
ATOM     19  H   UNL     1       4.332   2.226   0.678  0.00  0.00    +0.152 HD
ENDROOT
BRANCH  10  20
ATOM     20  C   UNL     1       0.372   4.115  -1.393  0.00  0.00    -0.022 A 
ATOM     21  C   UNL     1      -0.947   4.510  -1.520  0.00  0.00    +0.007 A 
ATOM     22  C   UNL     1      -1.452   4.843  -2.762  0.00  0.00    +0.020 A 
ATOM     23  C   UNL     1      -0.641   4.771  -3.881  0.00  0.00    +0.041 A 
ATOM     24  C   UNL     1       0.677   4.371  -3.754  0.00  0.00    +0.020 A 
ATOM     25  C   UNL     1       1.183   4.043  -2.510  0.00  0.00    +0.007 A 
ATOM     26 CL   UNL     1      -1.277   5.184  -5.442  0.00  0.00    -0.084 Cl
ENDBRANCH  10  20
BRANCH  12  27
ATOM     27  C   UNL     1       3.143   6.279   1.671  0.00  0.00    +0.190 A 
ATOM     28  C   UNL     1       3.249   7.096   2.761  0.00  0.00    +0.054 A 
ATOM     29  C   UNL     1       4.480   7.761   2.648  0.00  0.00    +0.042 A 
ATOM     30  C   UNL     1       5.060   7.334   1.505  0.00  0.00    +0.196 A 
ATOM     31  O   UNL     1       4.252   6.441   0.919  0.00  0.00    -0.458 OA
ENDBRANCH  12  27
BRANCH  17  32
ATOM     32  C   UNL     1       1.788  -1.907  -0.789  0.00  0.00    +0.109 A 
ATOM     33  C   UNL     1       1.917  -2.692  -1.874  0.00  0.00    +0.045 A 
ATOM     34  C   UNL     1       2.083  -4.016  -1.404  0.00  0.00    +0.041 A 
ATOM     35  C   UNL     1       2.038  -3.961  -0.061  0.00  0.00    +0.195 A 
ATOM     36  O   UNL     1       1.859  -2.681   0.306  0.00  0.00    -0.468 OA
ENDBRANCH  17  32
TORSDOF 3
