REMARK  Name = ZINC28056105
REMARK  7 active torsions:
REMARK  status: ('A' for Active; 'I' for Inactive)
REMARK    1  A    between atoms: C_1  and  C_2
REMARK    2  A    between atoms: C_10  and  C_18
REMARK    3  A    between atoms: C_21  and  O_24
REMARK    4  A    between atoms: O_24  and  C_25
REMARK    5  A    between atoms: C_26  and  C_29
REMARK    6  A    between atoms: C_32  and  S_35
REMARK    7  A    between atoms: S_35  and  C_36
REMARK                            x       y       z     vdW  Elec       q    Type
REMARK                         _______ _______ _______ _____ _____    ______ ____
ROOT
ATOM      1  C   UNL     1       5.021  -2.007   0.932  0.00  0.00    +0.044 C 
ATOM      2  C   UNL     1       4.614  -0.557   0.877  0.00  0.00    -0.050 A 
ATOM      3  C   UNL     1       5.548   0.430   1.142  0.00  0.00    +0.007 A 
ATOM      4  C   UNL     1       5.190   1.766   1.094  0.00  0.00    +0.046 A 
ATOM      5  C   UNL     1       3.891   2.118   0.780  0.00  0.00    +0.131 A 
ATOM      6  C   UNL     1       2.945   1.120   0.513  0.00  0.00    +0.038 A 
ATOM      7  C   UNL     1       3.312  -0.219   0.562  0.00  0.00    +0.016 A 
ATOM      8  C   UNL     1       1.560   1.533   0.182  0.00  0.00    +0.050 C 
ATOM      9  C   UNL     1       1.343   2.800  -0.176  0.00  0.00    +0.025 C 
ATOM     10  C   UNL     1      -0.032   3.320  -0.515  0.00  0.00    +0.174 C 
ATOM     11  N   UNL     1      -1.046   2.355  -0.113  0.00  0.00    -0.201 N 
ATOM     12  C   UNL     1      -0.773   1.073   0.241  0.00  0.00    +0.240 A 
ATOM     13  N   UNL     1      -1.906   0.499   0.530  0.00  0.00    -0.092 NA
ATOM     14  N   UNL     1      -2.878   1.333   0.382  0.00  0.00    -0.021 NA
ATOM     15  N   UNL     1      -2.430   2.484  -0.006  0.00  0.00    -0.042 NA
ATOM     16  N   UNL     1       0.526   0.593   0.267  0.00  0.00    -0.282 N 
ATOM     17  C   UNL     1       2.513   3.755  -0.252  0.00  0.00    +0.234 C 
ATOM     18  O   UNL     1       3.501   3.417   0.722  0.00  0.00    -0.479 OA
ATOM     19  H   UNL     1       0.762  -0.478   0.351  0.00  0.00    +0.155 HD
ENDROOT
BRANCH  10  20
ATOM     20  C   UNL     1      -0.126   3.553  -2.001  0.00  0.00    -0.018 A 
ATOM     21  C   UNL     1       0.068   2.501  -2.878  0.00  0.00    +0.009 A 
ATOM     22  C   UNL     1      -0.023   2.711  -4.240  0.00  0.00    +0.046 A 
ATOM     23  C   UNL     1      -0.297   3.980  -4.729  0.00  0.00    +0.120 A 
ATOM     24  C   UNL     1      -0.485   5.035  -3.847  0.00  0.00    +0.046 A 
ATOM     25  C   UNL     1      -0.399   4.819  -2.485  0.00  0.00    +0.009 A 
BRANCH  23  26
ATOM     26  O   UNL     1      -0.380   4.191  -6.069  0.00  0.00    -0.495 OA
ATOM     27  C   UNL     1      -0.175   3.059  -6.917  0.00  0.00    +0.277 C 
ENDBRANCH  23  26
ENDBRANCH  10  20
BRANCH  17  28
ATOM     28  C   UNL     1       3.127   3.680  -1.627  0.00  0.00    -0.003 A 
ATOM     29  C   UNL     1       2.924   4.709  -2.529  0.00  0.00    +0.008 A 
ATOM     30  C   UNL     1       3.489   4.647  -3.787  0.00  0.00    +0.015 A 
ATOM     31  C   UNL     1       4.252   3.544  -4.151  0.00  0.00    +0.008 A 
ATOM     32  C   UNL     1       4.449   2.510  -3.244  0.00  0.00    +0.015 A 
ATOM     33  C   UNL     1       3.885   2.581  -1.985  0.00  0.00    +0.008 A 
BRANCH  31  34
ATOM     34  S   UNL     1       4.970   3.458  -5.758  0.00  0.00    -0.129 S 
ATOM     35  C   UNL     1       4.446   5.001  -6.556  0.00  0.00    +0.090 C 
ENDBRANCH  31  34
ENDBRANCH  17  28
TORSDOF 4
