REMARK  Name = ZINC39337300
REMARK  12 active torsions:
REMARK  status: ('A' for Active; 'I' for Inactive)
REMARK    1  A    between atoms: C_1  and  C_2
REMARK    2  A    between atoms: C_2  and  C_4
REMARK    3  A    between atoms: C_2  and  C_14
REMARK    4  A    between atoms: C_7  and  C_10
REMARK    5  A    between atoms: C_10  and  C_11
REMARK    6  A    between atoms: C_11  and  C_12
REMARK    7  A    between atoms: C_11  and  C_13
REMARK    8  A    between atoms: C_14  and  O_16
REMARK    9  A    between atoms: O_16  and  C_17
REMARK   10  A    between atoms: C_17  and  C_19
REMARK   11  A    between atoms: C_17  and  C_29
REMARK   12  A    between atoms: C_38  and  C_40
REMARK                            x       y       z     vdW  Elec       q    Type
REMARK                         _______ _______ _______ _____ _____    ______ ____
ROOT
ATOM      1  C   UNL     1       0.620  -0.672  -3.650  0.00  0.00    +0.194 C 
ENDROOT
BRANCH   1   2
ATOM      2  C   UNL     1      -0.314  -1.848  -3.780  0.00  0.00    +0.002 A 
ATOM      3  C   UNL     1      -1.526  -1.855  -3.149  0.00  0.00    +0.027 A 
ATOM      4  C   UNL     1      -2.373  -2.952  -3.283  0.00  0.00    +0.112 A 
ATOM      5  N   UNL     1      -2.042  -3.995  -4.005  0.00  0.00    -0.255 NA
ATOM      6  C   UNL     1      -0.872  -4.052  -4.649  0.00  0.00    +0.071 A 
ATOM      7  C   UNL     1       0.035  -2.966  -4.560  0.00  0.00    +0.007 A 
ATOM      8  C   UNL     1       1.260  -3.028  -5.242  0.00  0.00    +0.010 A 
ATOM      9  C   UNL     1       1.561  -4.128  -5.986  0.00  0.00    +0.001 A 
ATOM     10  C   UNL     1       0.669  -5.194  -6.080  0.00  0.00    +0.002 A 
ATOM     11  C   UNL     1      -0.522  -5.173  -5.422  0.00  0.00    +0.028 A 
ENDBRANCH   1   2
BRANCH   1  12
ATOM     12  C   UNL     1       0.409   0.279  -4.830  0.00  0.00    -0.022 C 
ATOM     13  C   UNL     1       1.228   1.553  -4.608  0.00  0.00    -0.008 C 
ATOM     14  C   UNL     1       0.275   2.754  -4.575  0.00  0.00    -0.009 C 
ATOM     15  C   UNL     1      -0.724   2.548  -3.428  0.00  0.00    -0.015 C 
ATOM     16  C   UNL     1      -1.482   1.240  -3.664  0.00  0.00    -0.078 C 
ATOM     17  N   UNL     1      -1.013   0.612  -4.938  0.00  0.00    +0.385 N 
ATOM     18  C   UNL     1      -1.250   1.492  -6.085  0.00  0.00    -0.070 C 
ATOM     19  C   UNL     1      -0.487   2.804  -5.905  0.00  0.00    -0.003 C 
ATOM     20  H   UNL     1      -1.530  -0.241  -5.088  0.00  0.00    -0.081 HD
BRANCH  19  21
ATOM     21  C   UNL     1       0.488   2.982  -7.040  0.00  0.00    -0.033 C 
ATOM     22  C   UNL     1       0.402   4.030  -7.821  0.00  0.00    +0.004 C 
ENDBRANCH  19  21
ENDBRANCH   1  12
BRANCH   1  23
ATOM     23  O   UNL     1       0.350   0.018  -2.428  0.00  0.00    -0.458 OA
BRANCH  23  24
ATOM     24  C   UNL     1       1.036  -0.374  -1.343  0.00  0.00    +0.315 C 
ATOM     25  O   UNL     1       1.906  -1.207  -1.446  0.00  0.00    -0.250 OA
BRANCH  24  27
ATOM     26  C   UNL     1       1.654   1.412   0.263  0.00  0.00    +0.024 C 
ATOM     27  C   UNL     1       0.723   0.226   0.003  0.00  0.00    +0.125 C 
BRANCH  27  28
ATOM     28  C   UNL     1       0.924  -0.815   1.075  0.00  0.00    -0.034 A 
ATOM     29  C   UNL     1       2.167  -1.392   1.253  0.00  0.00    +0.005 A 
ATOM     30  C   UNL     1       2.351  -2.346   2.236  0.00  0.00    +0.004 A 
ATOM     31  C   UNL     1       1.293  -2.722   3.042  0.00  0.00    -0.047 A 
ATOM     32  C   UNL     1       0.050  -2.144   2.864  0.00  0.00    +0.004 A 
ATOM     33  C   UNL     1      -0.134  -1.187   1.884  0.00  0.00    +0.005 A 
BRANCH  31  34
ATOM     34  C   UNL     1       1.493  -3.763   4.113  0.00  0.00    +0.038 C 
BRANCH  34  35
ATOM     35  C   UNL     1       1.909  -3.079   5.417  0.00  0.00    -0.013 C 
ATOM     36  C   UNL     1       1.992  -4.121   6.535  0.00  0.00    +0.007 C 
ATOM     37  C   UNL     1       3.277  -2.419   5.233  0.00  0.00    +0.007 C 
ENDBRANCH  34  35
ENDBRANCH  31  34
ENDBRANCH  27  28
ENDBRANCH  24  27
ENDBRANCH  23  24
ENDBRANCH   1  23
TORSDOF 9
