REMARK  Name = ZINC40984066
REMARK  15 active torsions:
REMARK  status: ('A' for Active; 'I' for Inactive)
REMARK    1  A    between atoms: C_1  and  C_2
REMARK    2  A    between atoms: C_2  and  C_3
REMARK    3  A    between atoms: C_3  and  C_4
REMARK    4  A    between atoms: C_4  and  N_5
REMARK    5  A    between atoms: N_5  and  C_6
REMARK    6  A    between atoms: C_6  and  C_7
REMARK    7  A    between atoms: C_7  and  C_8
REMARK    8  A    between atoms: C_8  and  C_9
REMARK    9  A    between atoms: C_10  and  C_12
REMARK   10  A    between atoms: N_15  and  C_18
REMARK   11  A    between atoms: C_18  and  C_19
REMARK   12  A    between atoms: C_20  and  C_33
REMARK   13  A    between atoms: C_22  and  C_24
REMARK   14  A    between atoms: C_29  and  O_30
REMARK   15  A    between atoms: O_30  and  C_31
REMARK                            x       y       z     vdW  Elec       q    Type
REMARK                         _______ _______ _______ _____ _____    ______ ____
ROOT
ATOM      1  C   UNL     1      -4.797  -3.412   1.199  0.00  0.00    +0.072 C 
ATOM      2  C   UNL     1      -5.740  -2.570   0.334  0.00  0.00    -0.006 C 
ATOM      3  C   UNL     1      -7.152  -3.153   0.412  0.00  0.00    -0.078 C 
ATOM      4  N   UNL     1      -7.616  -3.135   1.805  0.00  0.00    +0.383 N 
ATOM      5  C   UNL     1      -6.759  -3.997   2.627  0.00  0.00    -0.078 C 
ATOM      6  C   UNL     1      -5.332  -3.446   2.634  0.00  0.00    -0.006 C 
ATOM      7  H   UNL     1      -7.579  -2.190   2.158  0.00  0.00    -0.081 HD
ENDROOT
BRANCH   1   9
ATOM      8  N   UNL     1      -2.640  -2.912   0.095  0.00  0.00    -0.301 N 
ATOM      9  C   UNL     1      -3.421  -2.798   1.188  0.00  0.00    +0.219 C 
ATOM     10  O   UNL     1      -3.016  -2.201   2.163  0.00  0.00    -0.275 OA
BRANCH   8  11
ATOM     11  C   UNL     1      -1.267  -2.405   0.120  0.00  0.00    +0.108 C 
BRANCH  11  12
ATOM     12  C   UNL     1      -1.254  -0.945  -0.339  0.00  0.00    +0.019 C 
BRANCH  12  14
ATOM     13  C   UNL     1       0.193   1.045  -0.771  0.00  0.00    +0.004 C 
ATOM     14  C   UNL     1       0.181  -0.414  -0.313  0.00  0.00    -0.002 C 
ENDBRANCH  12  14
ENDBRANCH  11  12
ENDBRANCH   8  11
BRANCH   8  15
ATOM     15  C   UNL     1      -3.166  -3.545  -1.117  0.00  0.00    +0.108 C 
BRANCH  15  16
ATOM     16  C   UNL     1      -2.761  -5.020  -1.140  0.00  0.00    +0.019 C 
BRANCH  16  17
ATOM     17  C   UNL     1      -3.310  -5.680  -2.406  0.00  0.00    -0.002 C 
ATOM     18  C   UNL     1      -2.905  -7.155  -2.429  0.00  0.00    +0.004 C 
ENDBRANCH  16  17
ENDBRANCH  15  16
ENDBRANCH   8  15
ENDBRANCH   1   9
BRANCH   4  19
ATOM     19  C   UNL     1      -9.001  -3.622   1.865  0.00  0.00    -0.019 C 
BRANCH  19  20
ATOM     20  C   UNL     1      -9.520  -3.489   3.273  0.00  0.00    +0.066 A 
ATOM     21  C   UNL     1      -9.426  -4.415   4.243  0.00  0.00    +0.124 A 
ATOM     22  O   UNL     1     -10.011  -3.904   5.345  0.00  0.00    -0.440 OA
ATOM     23  C   UNL     1     -10.456  -2.673   5.037  0.00  0.00    +0.231 A 
ATOM     24  N   UNL     1     -10.153  -2.421   3.784  0.00  0.00    -0.216 NA
ATOM     25  C   UNL     1      -8.786  -5.774   4.122  0.00  0.00    +0.088 C 
BRANCH  23  26
ATOM     26  C   UNL     1     -11.161  -1.756   5.955  0.00  0.00    +0.079 A 
ATOM     27  C   UNL     1     -11.578  -0.500   5.509  0.00  0.00    +0.032 A 
ATOM     28  C   UNL     1     -12.237   0.352   6.371  0.00  0.00    +0.019 A 
ATOM     29  C   UNL     1     -12.486  -0.033   7.678  0.00  0.00    +0.019 A 
ATOM     30  C   UNL     1     -12.078  -1.273   8.130  0.00  0.00    +0.047 A 
ATOM     31  C   UNL     1     -11.420  -2.143   7.275  0.00  0.00    +0.132 A 
ATOM     32 BR   UNL     1     -12.802   2.052   5.766  0.00  0.00    -0.050 Br
BRANCH  31  33
ATOM     33  O   UNL     1     -11.024  -3.364   7.717  0.00  0.00    -0.494 OA
ATOM     34  C   UNL     1     -11.323  -3.691   9.076  0.00  0.00    +0.277 C 
ENDBRANCH  31  33
ENDBRANCH  23  26
ENDBRANCH  19  20
ENDBRANCH   4  19
TORSDOF 11
