REMARK  Name = ZINC63405381
REMARK  7 active torsions:
REMARK  status: ('A' for Active; 'I' for Inactive)
REMARK    1  A    between atoms: C_1  and  C_2
REMARK    2  A    between atoms: C_2  and  C_4
REMARK    3  A    between atoms: C_2  and  S_18
REMARK    4  A    between atoms: C_4  and  C_6
REMARK    5  A    between atoms: C_15  and  C_17
REMARK    6  A    between atoms: S_18  and  C_19
REMARK    7  A    between atoms: C_23  and  C_25
REMARK                            x       y       z     vdW  Elec       q    Type
REMARK                         _______ _______ _______ _____ _____    ______ ____
ROOT
ATOM      1  S   UNL     1       0.881  -0.613   1.470  0.00  0.00    -0.085 S 
ENDROOT
BRANCH   1   2
ATOM      2  C   UNL     1       2.584  -0.035   1.233  0.00  0.00    +0.340 C 
ATOM      3  N   UNL     1       3.135  -0.562  -0.028  0.00  0.00    -0.219 N 
ATOM      4  N   UNL     1       3.432   0.564  -0.808  0.00  0.00    -0.145 NA
ATOM      5  C   UNL     1       3.124   1.655  -0.159  0.00  0.00    +0.238 C 
ATOM      6  O   UNL     1       2.612   1.390   1.071  0.00  0.00    -0.443 OA
ATOM      7  H   UNL     1       3.265  -1.493  -0.267  0.00  0.00    +0.173 HD
BRANCH   5   8
ATOM      8  C   UNL     1       3.302   2.948  -0.670  0.00  0.00    +0.043 C 
ATOM      9  C   UNL     1       3.815   3.298  -1.921  0.00  0.00    +0.008 A 
ATOM     10  C   UNL     1       4.290   2.530  -3.004  0.00  0.00    +0.010 A 
ATOM     11  C   UNL     1       4.741   3.152  -4.124  0.00  0.00    +0.001 A 
ATOM     12  C   UNL     1       4.748   4.544  -4.235  0.00  0.00    +0.002 A 
ATOM     13  C   UNL     1       4.306   5.344  -3.233  0.00  0.00    +0.026 A 
ATOM     14  C   UNL     1       3.820   4.766  -2.032  0.00  0.00    +0.043 A 
ATOM     15  N   UNL     1       3.343   5.314  -0.931  0.00  0.00    -0.380 N 
ATOM     16  C   UNL     1       2.972   4.256   0.014  0.00  0.00    +0.154 C 
ATOM     17  H   UNL     1       3.250   6.266  -0.773  0.00  0.00    +0.160 HD
ENDBRANCH   5   8
ENDBRANCH   1   2
BRANCH   1  19
ATOM     18  C   UNL     1      -0.015   1.520   0.010  0.00  0.00    +0.027 C 
ATOM     19  C   UNL     1       0.004  -0.010   0.001  0.00  0.00    +0.119 C 
BRANCH  19  20
ATOM     20  C   UNL     1      -1.410  -0.530   0.012  0.00  0.00    +0.176 C 
ATOM     21  O   UNL     1      -1.937  -0.832   1.062  0.00  0.00    -0.291 OA
BRANCH  20  22
ATOM     22  C   UNL     1      -2.150  -0.673  -1.248  0.00  0.00    +0.019 A 
ATOM     23  C   UNL     1      -1.544  -0.332  -2.465  0.00  0.00    +0.013 A 
ATOM     24  C   UNL     1      -2.232  -0.464  -3.633  0.00  0.00    +0.024 A 
ATOM     25  C   UNL     1      -3.549  -0.940  -3.636  0.00  0.00    +0.040 A 
ATOM     26  C   UNL     1      -4.152  -1.279  -2.431  0.00  0.00    -0.024 A 
ATOM     27  C   UNL     1      -3.464  -1.155  -1.245  0.00  0.00    +0.017 A 
ATOM     28  C   UNL     1      -5.557  -1.760  -2.715  0.00  0.00    +0.056 C 
ATOM     29  C   UNL     1      -5.697  -1.657  -4.243  0.00  0.00    +0.118 C 
ATOM     30  N   UNL     1      -4.408  -1.143  -4.713  0.00  0.00    -0.271 N 
ATOM     31  C   UNL     1      -4.099  -0.901  -6.003  0.00  0.00    +0.217 C 
ATOM     32  O   UNL     1      -3.037  -0.388  -6.285  0.00  0.00    -0.276 OA
ATOM     33  C   UNL     1      -5.072  -1.268  -7.093  0.00  0.00    +0.109 C 
ENDBRANCH  20  22
ENDBRANCH  19  20
ENDBRANCH   1  19
TORSDOF 5
