REMARK  Name = ZINC09122839
REMARK  14 active torsions:
REMARK  status: ('A' for Active; 'I' for Inactive)
REMARK    1  A    between atoms: C_1  and  C_2
REMARK    2  A    between atoms: C_2  and  C_3
REMARK    3  A    between atoms: C_2  and  C_4
REMARK    4  A    between atoms: C_2  and  C_5
REMARK    5  A    between atoms: C_8  and  C_11
REMARK    6  A    between atoms: C_14  and  C_15
REMARK    7  A    between atoms: C_14  and  O_24
REMARK    8  A    between atoms: C_18  and  O_22
REMARK    9  A    between atoms: O_22  and  C_23
REMARK   10  A    between atoms: N_29  and  C_30
REMARK   11  A    between atoms: C_30  and  C_31
REMARK   12  A    between atoms: C_31  and  N_64
REMARK   13  A    between atoms: C_32  and  N_64
REMARK   14  A    between atoms: C_33  and  N_64
REMARK                            x       y       z     vdW  Elec       q    Type
REMARK                         _______ _______ _______ _____ _____    ______ ____
ROOT
ATOM      1  C   UNL     1       4.022   2.181   0.012  0.00  0.00    +0.144 C 
ATOM      2  C   UNL     1       4.274   2.691  -1.388  0.00  0.00    +0.071 C 
ATOM      3  C   UNL     1       4.110   1.991  -2.568  0.00  0.00    +0.133 C 
ATOM      4  C   UNL     1       4.710   4.017  -1.249  0.00  0.00    +0.249 C 
ATOM      5  O   UNL     1       5.014   4.768  -2.158  0.00  0.00    -0.282 OA
ATOM      6  C   UNL     1       4.735   4.347   0.202  0.00  0.00    +0.288 C 
ATOM      7  O   UNL     1       5.067   5.419   0.666  0.00  0.00    -0.266 OA
ATOM      8  N   UNL     1       4.338   3.285   0.923  0.00  0.00    -0.285 N 
ENDROOT
BRANCH   3   9
ATOM      9  C   UNL     1       4.258   2.681  -3.859  0.00  0.00    +0.019 A 
ATOM     10  C   UNL     1       3.553   3.865  -4.107  0.00  0.00    +0.015 A 
ATOM     11  C   UNL     1       3.698   4.509  -5.315  0.00  0.00    +0.048 A 
ATOM     12  C   UNL     1       4.535   3.982  -6.292  0.00  0.00    +0.138 A 
ATOM     13  C   UNL     1       5.234   2.802  -6.053  0.00  0.00    +0.083 A 
ATOM     14  C   UNL     1       5.099   2.152  -4.846  0.00  0.00    +0.035 A 
ATOM     15 CL   UNL     1       6.276   2.149  -7.277  0.00  0.00    -0.080 Cl
BRANCH  12  16
ATOM     16  O   UNL     1       4.670   4.619  -7.482  0.00  0.00    -0.494 OA
ATOM     17  C   UNL     1       3.925   5.824  -7.662  0.00  0.00    +0.277 C 
ENDBRANCH  12  16
ENDBRANCH   3   9
BRANCH   1  21
ATOM     18  C   UNL     1      -0.076   1.056   0.443  0.00  0.00    -0.042 A 
ATOM     19  C   UNL     1       0.281   2.391   0.469  0.00  0.00    +0.004 A 
ATOM     20  C   UNL     1       1.607   2.755   0.331  0.00  0.00    +0.006 A 
ATOM     21  C   UNL     1       2.576   1.784   0.164  0.00  0.00    -0.022 A 
ATOM     22  C   UNL     1       2.220   0.449   0.138  0.00  0.00    +0.006 A 
ATOM     23  C   UNL     1       0.894   0.085   0.277  0.00  0.00    +0.004 A 
BRANCH  18  25
ATOM     24  C   UNL     1      -2.343   1.283  -0.536  0.00  0.00    +0.015 C 
ATOM     25  C   UNL     1      -1.522   0.658   0.594  0.00  0.00    -0.013 C 
ATOM     26  C   UNL     1      -1.641  -0.866   0.529  0.00  0.00    +0.015 C 
ATOM     27  C   UNL     1      -2.048   1.155   1.942  0.00  0.00    +0.015 C 
ENDBRANCH  18  25
ENDBRANCH   1  21
BRANCH   3  28
ATOM     28  O   UNL     1       3.814   0.674  -2.537  0.00  0.00    -0.506 OA
ATOM     29  H   UNL     1       3.731   0.329  -3.471  0.00  0.00    +0.292 HD
ENDBRANCH   3  28
BRANCH   8  30
ATOM     30  C   UNL     1       4.237   3.238   2.384  0.00  0.00    +0.090 C 
BRANCH  30  31
ATOM     31  C   UNL     1       5.568   2.765   2.972  0.00  0.00    -0.060 C 
BRANCH  31  34
ATOM     32  C   UNL     1       6.634   2.048   5.024  0.00  0.00    -0.097 C 
ATOM     33  C   UNL     1       5.296   4.066   4.996  0.00  0.00    -0.097 C 
ATOM     34  N   UNL     1       5.443   2.703   4.444  0.00  0.00    +0.377 N 
ATOM     35  H   UNL     1       4.610   2.154   4.685  0.00  0.00    -0.083 HD
ENDBRANCH  31  34
ENDBRANCH  30  31
ENDBRANCH   8  30
TORSDOF 8
