REMARK  Name = ZINC43250225
REMARK  8 active torsions:
REMARK  status: ('A' for Active; 'I' for Inactive)
REMARK    1  A    between atoms: C_1  and  C_2
REMARK    2  A    between atoms: C_2  and  C_3
REMARK    3  A    between atoms: C_3  and  C_5
REMARK    4  A    between atoms: C_3  and  N_21
REMARK    5  A    between atoms: C_5  and  C_7
REMARK    6  A    between atoms: C_5  and  O_13
REMARK    7  A    between atoms: C_8  and  C_12
REMARK    8  A    between atoms: O_13  and  C_14
REMARK                            x       y       z     vdW  Elec       q    Type
REMARK                         _______ _______ _______ _____ _____    ______ ____
ROOT
ATOM      1  C   UNL     1      -1.407  -2.054   0.132  0.00  0.00    +0.196 C 
ENDROOT
BRANCH   1   2
ATOM      2  C   UNL     1      -2.731  -2.773   0.191  0.00  0.00    +0.031 A 
ATOM      3  C   UNL     1      -3.403  -3.237   1.273  0.00  0.00    -0.037 A 
ATOM      4  C   UNL     1      -4.616  -3.872   1.087  0.00  0.00    +0.011 A 
ATOM      5  C   UNL     1      -5.098  -4.012  -0.172  0.00  0.00    +0.046 A 
ATOM      6  S   UNL     1      -3.824  -3.227  -1.145  0.00  0.00    -0.098 S 
ATOM      7  C   UNL     1      -2.835  -3.063   2.658  0.00  0.00    +0.045 C 
ENDBRANCH   1   2
BRANCH   1   8
ATOM      8  C   UNL     1      -1.646  -0.567  -0.137  0.00  0.00    -0.029 C 
BRANCH   8   9
ATOM      9  N   UNL     1      -2.451  -0.413  -1.355  0.00  0.00    +0.383 N 
ATOM     10  H   UNL     1      -3.337  -0.879  -1.234  0.00  0.00    -0.089 HD
ATOM     11  H   UNL     1      -2.608   0.568  -1.533  0.00  0.00    -0.089 HD
ATOM     12  H   UNL     1      -1.960  -0.822  -2.137  0.00  0.00    -0.089 HD
ENDBRANCH   8   9
BRANCH   8  14
ATOM     13  C   UNL     1      -0.533   1.645  -0.465  0.00  0.00    +0.002 C 
ATOM     14  C   UNL     1      -0.301   0.140  -0.320  0.00  0.00    -0.016 C 
ENDBRANCH   8  14
ENDBRANCH   1   8
BRANCH   1  15
ATOM     15  O   UNL     1      -0.612  -2.607  -0.918  0.00  0.00    -0.485 OA
BRANCH  15  16
ATOM     16  C   UNL     1       0.112  -3.719  -0.625  0.00  0.00    +0.121 A 
ATOM     17  C   UNL     1       0.995  -4.240  -1.559  0.00  0.00    +0.046 A 
ATOM     18  C   UNL     1       1.730  -5.371  -1.259  0.00  0.00    +0.018 A 
ATOM     19  C   UNL     1       1.586  -5.983  -0.027  0.00  0.00    +0.014 A 
ATOM     20  C   UNL     1       0.706  -5.465   0.907  0.00  0.00    +0.018 A 
ATOM     21  C   UNL     1      -0.027  -4.332   0.612  0.00  0.00    +0.046 A 
ATOM     22  I   UNL     1       2.702  -7.697   0.426  0.00  0.00    -0.044 I 
ENDBRANCH  15  16
ENDBRANCH   1  15
TORSDOF 6
