REMARK  Name = ZINC35706608
REMARK  13 active torsions:
REMARK  status: ('A' for Active; 'I' for Inactive)
REMARK    1  A    between atoms: C_1  and  C_2
REMARK    2  A    between atoms: C_2  and  C_3
REMARK    3  A    between atoms: C_2  and  N_4
REMARK    4  A    between atoms: N_4  and  C_5
REMARK    5  A    between atoms: N_4  and  C_13
REMARK    6  A    between atoms: C_5  and  C_6
REMARK    7  A    between atoms: C_13  and  C_14
REMARK    8  A    between atoms: C_17  and  C_19
REMARK    9  A    between atoms: N_21  and  C_22
REMARK   10  A    between atoms: N_21  and  C_30
REMARK   11  A    between atoms: C_22  and  C_23
REMARK   12  A    between atoms: C_23  and  C_24
REMARK   13  A    between atoms: C_30  and  C_31
REMARK                            x       y       z     vdW  Elec       q    Type
REMARK                         _______ _______ _______ _____ _____    ______ ____
ROOT
ATOM      1  C   UNL     1      -3.167   1.015  -0.887  0.00  0.00    +0.090 A 
ATOM      2  C   UNL     1      -2.566   2.194  -1.160  0.00  0.00    +0.043 A 
ATOM      3  C   UNL     1      -3.448   3.210  -0.758  0.00  0.00    +0.055 A 
ATOM      4  C   UNL     1      -4.555   2.591  -0.253  0.00  0.00    +0.190 A 
ATOM      5  O   UNL     1      -4.367   1.258  -0.345  0.00  0.00    -0.457 OA
ENDROOT
BRANCH   4   6
ATOM      6  C   UNL     1      -5.743   3.258   0.290  0.00  0.00    +0.282 C 
ATOM      7  O   UNL     1      -5.855   4.466   0.205  0.00  0.00    -0.267 OA
ATOM      8  N   UNL     1      -6.712   2.532   0.883  0.00  0.00    -0.290 N 
BRANCH   8   9
ATOM      9  C   UNL     1      -7.961   3.176   1.295  0.00  0.00    +0.113 C 
BRANCH   9  10
ATOM     10  C   UNL     1      -8.971   3.111   0.147  0.00  0.00    +0.054 C 
BRANCH  10  11
ATOM     11  C   UNL     1     -10.257   3.773   0.571  0.00  0.00    -0.046 A 
ATOM     12  C   UNL     1     -11.248   3.030   1.185  0.00  0.00    +0.004 A 
ATOM     13  C   UNL     1     -12.427   3.637   1.574  0.00  0.00    +0.000 A 
ATOM     14  C   UNL     1     -12.615   4.988   1.349  0.00  0.00    +0.000 A 
ATOM     15  C   UNL     1     -11.624   5.732   0.736  0.00  0.00    +0.000 A 
ATOM     16  C   UNL     1     -10.443   5.125   0.351  0.00  0.00    +0.004 A 
ENDBRANCH  10  11
ENDBRANCH   9  10
ENDBRANCH   8   9
BRANCH   8  17
ATOM     17  C   UNL     1      -6.514   1.099   1.117  0.00  0.00    +0.143 C 
BRANCH  17  18
ATOM     18  C   UNL     1      -5.828   0.896   2.442  0.00  0.00    -0.030 A 
ATOM     19  C   UNL     1      -4.451   0.983   2.528  0.00  0.00    +0.005 A 
ATOM     20  C   UNL     1      -3.821   0.796   3.745  0.00  0.00    +0.000 A 
ATOM     21  C   UNL     1      -4.568   0.523   4.875  0.00  0.00    +0.000 A 
ATOM     22  C   UNL     1      -5.945   0.437   4.789  0.00  0.00    +0.000 A 
ATOM     23  C   UNL     1      -6.575   0.627   3.574  0.00  0.00    +0.005 A 
ENDBRANCH  17  18
ENDBRANCH   8  17
ENDBRANCH   4   6
BRANCH   1  24
ATOM     24  C   UNL     1      -2.584  -0.349  -1.154  0.00  0.00    -0.002 C 
BRANCH  24  25
ATOM     25  N   UNL     1      -1.941  -0.854   0.066  0.00  0.00    +0.389 N 
ATOM     26  H   UNL     1      -2.595  -0.812   0.833  0.00  0.00    -0.080 HD
BRANCH  25  28
ATOM     27  C   UNL     1      -0.356  -0.255   1.834  0.00  0.00    -0.013 C 
ATOM     28  C   UNL     1      -0.766  -0.029   0.378  0.00  0.00    -0.074 C 
ATOM     29  C   UNL     1       0.391  -0.420  -0.544  0.00  0.00    -0.013 C 
ENDBRANCH  25  28
BRANCH  25  30
ATOM     30  C   UNL     1      -1.520  -2.246  -0.142  0.00  0.00    -0.041 C 
BRANCH  30  31
ATOM     31  C   UNL     1      -1.052  -2.831   1.165  0.00  0.00    -0.046 A 
ATOM     32  C   UNL     1       0.251  -3.273   1.298  0.00  0.00    +0.003 A 
ATOM     33  C   UNL     1       0.680  -3.809   2.497  0.00  0.00    +0.000 A 
ATOM     34  C   UNL     1      -0.193  -3.904   3.565  0.00  0.00    +0.001 A 
ATOM     35  C   UNL     1      -1.496  -3.462   3.433  0.00  0.00    +0.020 A 
ATOM     36  C   UNL     1      -1.925  -2.920   2.235  0.00  0.00    +0.042 A 
ATOM     37 CL   UNL     1      -3.559  -2.359   2.071  0.00  0.00    -0.083 Cl
ENDBRANCH  30  31
ENDBRANCH  25  30
ENDBRANCH  24  25
ENDBRANCH   1  24
TORSDOF 11
