REMARK  Name = ZINC39211719
REMARK  6 active torsions:
REMARK  status: ('A' for Active; 'I' for Inactive)
REMARK    1  A    between atoms: C_1  and  C_2
REMARK    2  A    between atoms: C_2  and  C_30
REMARK    3  A    between atoms: C_19  and  C_21
REMARK    4  A    between atoms: C_24  and  O_29
REMARK    5  A    between atoms: C_25  and  O_27
REMARK    6  A    between atoms: O_27  and  C_28
REMARK                            x       y       z     vdW  Elec       q    Type
REMARK                         _______ _______ _______ _____ _____    ______ ____
ROOT
ATOM      1  C   UNL     1      -0.019   1.526   0.010  0.00  0.00    +0.011 C 
ATOM      2  C   UNL     1       0.002  -0.004   0.002  0.00  0.00    -0.024 C 
ATOM      3  C   UNL     1      -1.428  -0.535   0.029  0.00  0.00    +0.040 C 
ATOM      4  C   UNL     1      -2.118  -0.199   1.324  0.00  0.00    -0.036 C 
ATOM      5  C   UNL     1      -1.442   0.075   2.444  0.00  0.00    +0.075 C 
ATOM      6  C   UNL     1       0.032   0.056   2.452  0.00  0.00    +0.178 C 
ATOM      7  O   UNL     1       0.656   0.486   3.399  0.00  0.00    -0.291 OA
ATOM      8  C   UNL     1       0.744  -0.515   1.245  0.00  0.00    +0.087 C 
ATOM      9  N   UNL     1      -2.108   0.399   3.635  0.00  0.00    -0.301 N 
ATOM     10  C   UNL     1      -3.423   0.116   3.781  0.00  0.00    +0.106 C 
ATOM     11  N   UNL     1      -4.079   0.539   4.828  0.00  0.00    -0.151 NA
ATOM     12  C   UNL     1      -5.402   0.388   4.952  0.00  0.00    +0.331 C 
ATOM     13  O   UNL     1      -5.937   0.699   6.000  0.00  0.00    -0.250 OA
ATOM     14  N   UNL     1      -6.158  -0.095   3.953  0.00  0.00    -0.238 N 
ATOM     15  C   UNL     1      -5.596  -0.598   2.839  0.00  0.00    +0.231 C 
ATOM     16  O   UNL     1      -6.302  -0.986   1.933  0.00  0.00    -0.275 OA
ATOM     17  C   UNL     1      -4.107  -0.685   2.706  0.00  0.00    +0.148 C 
ATOM     18  C   UNL     1      -3.634  -0.188   1.342  0.00  0.00    +0.066 C 
ATOM     19  C   UNL     1       0.712  -0.500  -1.259  0.00  0.00    +0.011 C 
ATOM     20  H   UNL     1      -1.623   0.828   4.358  0.00  0.00    +0.153 HD
ATOM     21  H   UNL     1      -7.125  -0.081   4.035  0.00  0.00    +0.159 HD
ENDROOT
BRANCH  18  22
ATOM     22  C   UNL     1      -4.132   1.216   1.115  0.00  0.00    -0.035 A 
ATOM     23  C   UNL     1      -3.777   2.225   1.991  0.00  0.00    +0.008 A 
ATOM     24  C   UNL     1      -4.231   3.514   1.787  0.00  0.00    +0.049 A 
ATOM     25  C   UNL     1      -5.045   3.799   0.702  0.00  0.00    +0.158 A 
ATOM     26  C   UNL     1      -5.403   2.784  -0.180  0.00  0.00    +0.162 A 
ATOM     27  C   UNL     1      -4.940   1.494   0.028  0.00  0.00    +0.053 A 
BRANCH  26  28
ATOM     28  O   UNL     1      -6.201   3.057  -1.246  0.00  0.00    -0.491 OA
ATOM     29  C   UNL     1      -6.527   1.966  -2.110  0.00  0.00    +0.277 C 
ENDBRANCH  26  28
BRANCH  25  30
ATOM     30  O   UNL     1      -5.493   5.066   0.500  0.00  0.00    -0.503 OA
ATOM     31  H   UNL     1      -4.909   5.608  -0.048  0.00  0.00    +0.292 HD
ENDBRANCH  25  30
ENDBRANCH  18  22
TORSDOF 3
