REMARK  Name = ZINC44786412
REMARK  6 active torsions:
REMARK  status: ('A' for Active; 'I' for Inactive)
REMARK    1  A    between atoms: C_1  and  C_2
REMARK    2  A    between atoms: C_2  and  C_4
REMARK    3  A    between atoms: C_2  and  N_11
REMARK    4  A    between atoms: C_12  and  C_14
REMARK    5  A    between atoms: C_14  and  C_19
REMARK    6  A    between atoms: N_20  and  O_21
REMARK                            x       y       z     vdW  Elec       q    Type
REMARK                         _______ _______ _______ _____ _____    ______ ____
ROOT
ATOM      1  N   UNL     1      -1.491  -0.461   0.187  0.00  0.00    -0.308 N 
ATOM      2  C   UNL     1      -2.071  -0.597  -1.022  0.00  0.00    +0.227 C 
ATOM      3  O   UNL     1      -1.510  -0.180  -2.013  0.00  0.00    -0.275 OA
ATOM      4  H   UNL     1      -1.971  -0.724   0.988  0.00  0.00    +0.149 HD
ENDROOT
BRANCH   2   5
ATOM      5  C   UNL     1      -3.416  -1.266  -1.142  0.00  0.00    +0.105 C 
ATOM      6  C   UNL     1      -3.830  -1.355  -2.621  0.00  0.00    +0.024 C 
ATOM      7  C   UNL     1      -5.144  -0.559  -2.759  0.00  0.00    +0.001 C 
ATOM      8  C   UNL     1      -5.116   0.430  -1.567  0.00  0.00    +0.001 C 
ATOM      9  C   UNL     1      -4.493  -0.419  -0.432  0.00  0.00    +0.024 C 
BRANCH   5  10
ATOM     10  C   UNL     1      -3.361  -2.645  -0.536  0.00  0.00    +0.147 C 
ATOM     11  N   UNL     1      -4.147  -2.952   0.443  0.00  0.00    -0.076 NA
ATOM     12  N   UNL     1      -2.474  -3.578  -1.026  0.00  0.00    -0.343 N 
ATOM     13  H   UNL     1      -1.940  -3.374  -1.810  0.00  0.00    +0.144 HD
ATOM     14  H   UNL     1      -2.384  -4.438  -0.587  0.00  0.00    +0.144 HD
BRANCH  11  15
ATOM     15  O   UNL     1      -4.096  -4.248   1.012  0.00  0.00    -0.408 OA
ATOM     16  H   UNL     1      -4.720  -4.383   1.738  0.00  0.00    +0.328 HD
ENDBRANCH  11  15
ENDBRANCH   5  10
ENDBRANCH   2   5
BRANCH   1  18
ATOM     17  C   UNL     1      -0.199   1.612   0.315  0.00  0.00    +0.033 C 
ATOM     18  C   UNL     1      -0.135   0.083   0.292  0.00  0.00    +0.100 C 
BRANCH  18  19
ATOM     19  C   UNL     1       0.508  -0.411   1.563  0.00  0.00    -0.026 A 
ATOM     20  C   UNL     1      -0.236  -0.500   2.725  0.00  0.00    +0.005 A 
ATOM     21  C   UNL     1       0.353  -0.953   3.890  0.00  0.00    +0.001 A 
ATOM     22  C   UNL     1       1.686  -1.319   3.894  0.00  0.00    +0.015 A 
ATOM     23  C   UNL     1       2.430  -1.231   2.732  0.00  0.00    +0.018 A 
ATOM     24  C   UNL     1       1.839  -0.782   1.564  0.00  0.00    +0.020 A 
ATOM     25 BR   UNL     1       4.254  -1.730   2.737  0.00  0.00    -0.050 Br
ENDBRANCH  18  19
ENDBRANCH   1  18
TORSDOF 5
