REMARK  Name = ZINC40014755
REMARK  15 active torsions:
REMARK  status: ('A' for Active; 'I' for Inactive)
REMARK    1  A    between atoms: C_1  and  C_2
REMARK    2  A    between atoms: C_2  and  C_3
REMARK    3  A    between atoms: C_3  and  C_4
REMARK    4  A    between atoms: C_4  and  N_5
REMARK    5  A    between atoms: N_5  and  C_6
REMARK    6  A    between atoms: N_5  and  C_10
REMARK    7  A    between atoms: C_6  and  C_7
REMARK    8  A    between atoms: C_7  and  C_8
REMARK    9  A    between atoms: C_8  and  C_9
REMARK   10  A    between atoms: C_10  and  C_11
REMARK   11  A    between atoms: C_11  and  C_12
REMARK   12  A    between atoms: C_12  and  N_13
REMARK   13  A    between atoms: C_14  and  C_30
REMARK   14  A    between atoms: C_33  and  S_36
REMARK   15  A    between atoms: S_36  and  C_37
REMARK                            x       y       z     vdW  Elec       q    Type
REMARK                         _______ _______ _______ _____ _____    ______ ____
ROOT
ATOM      1  N   UNL     1       2.891  -6.543  -5.152  0.00  0.00    -0.284 N 
ATOM      2  C   UNL     1       2.433  -6.658  -6.546  0.00  0.00    +0.144 C 
ATOM      3  C   UNL     1       3.604  -7.173  -7.317  0.00  0.00    +0.072 A 
ATOM      4  C   UNL     1       3.757  -7.498  -8.740  0.00  0.00    +0.199 A 
ATOM      5  O   UNL     1       2.924  -7.214  -9.582  0.00  0.00    -0.287 OA
ATOM      6  C   UNL     1       5.024  -8.204  -9.055  0.00  0.00    +0.066 A 
ATOM      7  C   UNL     1       5.229  -8.756 -10.320  0.00  0.00    +0.035 A 
ATOM      8  C   UNL     1       6.408  -9.413 -10.594  0.00  0.00    +0.042 A 
ATOM      9  C   UNL     1       7.386  -9.524  -9.613  0.00  0.00    +0.023 A 
ATOM     10  C   UNL     1       7.195  -8.983  -8.362  0.00  0.00    +0.048 A 
ATOM     11  C   UNL     1       6.011  -8.310  -8.062  0.00  0.00    +0.140 A 
ATOM     12  O   UNL     1       5.854  -7.779  -6.827  0.00  0.00    -0.450 OA
ATOM     13  C   UNL     1       4.642  -7.332  -6.444  0.00  0.00    +0.199 A 
ATOM     14  C   UNL     1       4.181  -6.933  -5.102  0.00  0.00    +0.283 C 
ATOM     15  O   UNL     1       4.863  -6.955  -4.097  0.00  0.00    -0.267 OA
ATOM     16 CL   UNL     1       6.673 -10.102 -12.165  0.00  0.00    -0.084 Cl
ENDROOT
BRANCH   2  17
ATOM     17  C   UNL     1       2.016  -5.309  -7.070  0.00  0.00    -0.022 A 
ATOM     18  C   UNL     1       2.758  -4.186  -6.752  0.00  0.00    +0.007 A 
ATOM     19  C   UNL     1       2.379  -2.947  -7.230  0.00  0.00    +0.015 A 
ATOM     20  C   UNL     1       1.250  -2.830  -8.032  0.00  0.00    +0.008 A 
ATOM     21  C   UNL     1       0.507  -3.960  -8.350  0.00  0.00    +0.015 A 
ATOM     22  C   UNL     1       0.896  -5.196  -7.873  0.00  0.00    +0.007 A 
BRANCH  20  23
ATOM     23  S   UNL     1       0.762  -1.251  -8.644  0.00  0.00    -0.129 S 
ATOM     24  C   UNL     1      -0.730  -1.600  -9.616  0.00  0.00    +0.090 C 
ENDBRANCH  20  23
ENDBRANCH   2  17
BRANCH   1  25
ATOM     25  C   UNL     1       2.088  -6.078  -4.018  0.00  0.00    +0.107 C 
BRANCH  25  26
ATOM     26  C   UNL     1       2.230  -4.561  -3.880  0.00  0.00    +0.000 C 
BRANCH  26  27
ATOM     27  C   UNL     1       1.391  -4.076  -2.696  0.00  0.00    -0.077 C 
BRANCH  27  28
ATOM     28  N   UNL     1       1.625  -2.641  -2.486  0.00  0.00    +0.380 N 
ATOM     29  H   UNL     1       2.614  -2.473  -2.376  0.00  0.00    -0.082 HD
BRANCH  28  30
ATOM     30  C   UNL     1       1.127  -1.889  -3.646  0.00  0.00    -0.079 C 
BRANCH  30  31
ATOM     31  C   UNL     1       1.481  -0.409  -3.484  0.00  0.00    -0.019 C 
BRANCH  31  33
ATOM     32  C   UNL     1       1.317   1.854  -4.530  0.00  0.00    +0.004 C 
ATOM     33  C   UNL     1       0.963   0.374  -4.692  0.00  0.00    -0.005 C 
ENDBRANCH  31  33
ENDBRANCH  30  31
ENDBRANCH  28  30
BRANCH  28  34
ATOM     34  C   UNL     1       0.916  -2.201  -1.276  0.00  0.00    -0.079 C 
BRANCH  34  35
ATOM     35  C   UNL     1       1.541  -2.867  -0.049  0.00  0.00    -0.019 C 
BRANCH  35  36
ATOM     36  C   UNL     1       0.755  -2.471   1.202  0.00  0.00    -0.005 C 
ATOM     37  C   UNL     1       1.380  -3.136   2.430  0.00  0.00    +0.004 C 
ENDBRANCH  35  36
ENDBRANCH  34  35
ENDBRANCH  28  34
ENDBRANCH  27  28
ENDBRANCH  26  27
ENDBRANCH  25  26
ENDBRANCH   1  25
TORSDOF 12
