REMARK  Name = ZINC15731225
REMARK  9 active torsions:
REMARK  status: ('A' for Active; 'I' for Inactive)
REMARK    1  A    between atoms: C_1  and  C_2
REMARK    2  A    between atoms: C_9  and  S_15
REMARK    3  A    between atoms: S_15  and  N_18
REMARK    4  A    between atoms: N_18  and  C_19
REMARK    5  A    between atoms: N_18  and  C_28
REMARK    6  A    between atoms: C_19  and  C_20
REMARK    7  A    between atoms: C_25  and  O_26
REMARK    8  A    between atoms: O_26  and  C_27
REMARK    9  A    between atoms: C_33  and  N_64
REMARK                            x       y       z     vdW  Elec       q    Type
REMARK                         _______ _______ _______ _____ _____    ______ ____
ROOT
ATOM      1  N   UNL     1      -3.299   4.310  -1.541  0.00  0.00    -0.169 NA
ENDROOT
BRANCH   1   2
ATOM      2  C   UNL     1      -3.196   5.592  -2.244  0.00  0.00    +0.077 C 
ATOM      3  C   UNL     1      -4.590   6.207  -2.390  0.00  0.00    +0.002 C 
ATOM      4  C   UNL     1      -4.485   7.515  -3.178  0.00  0.00    -0.078 C 
ATOM      5  C   UNL     1      -2.550   6.699  -4.386  0.00  0.00    -0.078 C 
ATOM      6  C   UNL     1      -2.598   5.366  -3.635  0.00  0.00    +0.002 C 
ATOM      7  C   UNL     1      -3.919   8.455  -5.336  0.00  0.00    -0.096 C 
ATOM      8  N   UNL     1      -3.925   7.226  -4.515  0.00  0.00    +0.378 N 
ATOM      9  H   UNL     1      -4.511   6.521  -4.976  0.00  0.00    -0.082 HD
ENDBRANCH   1   2
BRANCH   1  10
ATOM     10  S   UNL     1      -2.364   4.021  -0.205  0.00  0.00    +0.061 S 
ATOM     11  O   UNL     1      -3.037   3.026   0.554  0.00  0.00    -0.153 OA
ATOM     12  O   UNL     1      -2.024   5.291   0.335  0.00  0.00    -0.153 OA
BRANCH  10  20
ATOM     13  C   UNL     1       6.044   4.021  -2.088  0.00  0.00    +0.018 C 
ATOM     14  C   UNL     1       4.638   3.511  -2.411  0.00  0.00    +0.082 C 
ATOM     15  C   UNL     1       4.395   2.240  -1.650  0.00  0.00    +0.087 C 
ATOM     16  S   UNL     1       2.962   1.328  -2.204  0.00  0.00    -0.123 S 
ATOM     17  C   UNL     1       1.531   2.170  -1.662  0.00  0.00    +0.029 A 
ATOM     18  C   UNL     1       0.428   1.372  -1.326  0.00  0.00    +0.018 A 
ATOM     19  C   UNL     1      -0.755   1.921  -0.891  0.00  0.00    +0.030 A 
ATOM     20  C   UNL     1      -0.861   3.295  -0.768  0.00  0.00    +0.107 A 
ATOM     21  C   UNL     1       0.211   4.090  -1.093  0.00  0.00    +0.053 A 
ATOM     22  C   UNL     1       1.426   3.547  -1.546  0.00  0.00    +0.049 A 
ATOM     23  N   UNL     1       2.393   4.475  -1.830  0.00  0.00    -0.284 N 
ATOM     24  C   UNL     1       3.653   4.573  -2.070  0.00  0.00    +0.221 C 
ATOM     25  O   UNL     1       4.105   5.697  -2.010  0.00  0.00    -0.275 OA
ATOM     26  H   UNL     1       1.992   5.358  -1.862  0.00  0.00    +0.155 HD
ENDBRANCH  10  20
ENDBRANCH   1  10
BRANCH   1  27
ATOM     27  C   UNL     1      -4.228   3.284  -2.021  0.00  0.00    +0.148 C 
BRANCH  27  28
ATOM     28  C   UNL     1      -5.284   3.034  -0.975  0.00  0.00    +0.010 A 
ATOM     29  C   UNL     1      -5.176   1.945  -0.131  0.00  0.00    +0.008 A 
ATOM     30  C   UNL     1      -6.142   1.718   0.832  0.00  0.00    +0.001 A 
ATOM     31  C   UNL     1      -7.223   2.573   0.946  0.00  0.00    +0.004 A 
ATOM     32  C   UNL     1      -7.337   3.660   0.101  0.00  0.00    +0.046 A 
ATOM     33  C   UNL     1      -6.367   3.893  -0.863  0.00  0.00    +0.125 A 
BRANCH  33  34
ATOM     34  O   UNL     1      -6.477   4.962  -1.695  0.00  0.00    -0.495 OA
ATOM     35  C   UNL     1      -7.676   5.734  -1.604  0.00  0.00    +0.277 C 
ENDBRANCH  33  34
ENDBRANCH  27  28
ENDBRANCH   1  27
TORSDOF 6
