REMARK  Name = ZINC39482583
REMARK  9 active torsions:
REMARK  status: ('A' for Active; 'I' for Inactive)
REMARK    1  A    between atoms: C_1  and  C_2
REMARK    2  A    between atoms: C_9  and  C_16
REMARK    3  A    between atoms: C_11  and  O_12
REMARK    4  A    between atoms: C_16  and  O_17
REMARK    5  A    between atoms: O_17  and  C_18
REMARK    6  A    between atoms: C_18  and  C_20
REMARK    7  A    between atoms: C_23  and  O_26
REMARK    8  A    between atoms: O_26  and  C_27
REMARK    9  A    between atoms: C_27  and  C_28
REMARK                            x       y       z     vdW  Elec       q    Type
REMARK                         _______ _______ _______ _____ _____    ______ ____
ROOT
ATOM      1  C   UNL     1      -2.238  -7.529   0.057  0.00  0.00    +0.269 C 
ENDROOT
BRANCH   1  10
ATOM      2  C   UNL     1       5.184  -6.617  -4.635  0.00  0.00    +0.109 C 
ATOM      3  C   UNL     1       4.149  -6.603  -3.540  0.00  0.00    +0.214 C 
ATOM      4  O   UNL     1       4.408  -6.096  -2.463  0.00  0.00    -0.276 OA
ATOM      5  N   UNL     1       2.962  -7.139  -3.747  0.00  0.00    -0.286 N 
ATOM      6  C   UNL     1       1.984  -7.012  -2.808  0.00  0.00    +0.037 A 
ATOM      7  C   UNL     1       0.864  -7.862  -2.845  0.00  0.00    +0.024 A 
ATOM      8  C   UNL     1      -0.118  -7.745  -1.914  0.00  0.00    +0.014 A 
ATOM      9  C   UNL     1      -0.017  -6.770  -0.906  0.00  0.00    +0.024 A 
ATOM     10  C   UNL     1      -1.026  -6.633   0.070  0.00  0.00    +0.007 A 
ATOM     11  C   UNL     1      -0.879  -5.660   1.039  0.00  0.00    +0.095 A 
ATOM     12  C   UNL     1       0.243  -4.844   1.035  0.00  0.00    +0.285 A 
ATOM     13  O   UNL     1       1.197  -4.977   0.107  0.00  0.00    -0.425 OA
ATOM     14  C   UNL     1       1.104  -5.911  -0.861  0.00  0.00    +0.141 A 
ATOM     15  C   UNL     1       2.101  -6.042  -1.811  0.00  0.00    +0.070 A 
ATOM     16  H   UNL     1       2.786  -7.625  -4.568  0.00  0.00    +0.155 HD
BRANCH  12  17
ATOM     17  O   UNL     1       0.374  -3.899   1.985  0.00  0.00    -0.480 OA
ATOM     18  H   UNL     1       1.183  -3.375   1.910  0.00  0.00    +0.295 HD
ENDBRANCH  12  17
ENDBRANCH   1  10
BRANCH   1  19
ATOM     19  O   UNL     1      -3.421  -6.730  -0.016  0.00  0.00    -0.456 OA
BRANCH  19  20
ATOM     20  C   UNL     1      -4.593  -7.383  -0.136  0.00  0.00    +0.340 C 
ATOM     21  O   UNL     1      -4.620  -8.597  -0.095  0.00  0.00    -0.245 OA
BRANCH  20  22
ATOM     22  C   UNL     1      -5.844  -6.623  -0.318  0.00  0.00    +0.059 A 
ATOM     23  C   UNL     1      -5.804  -5.236  -0.484  0.00  0.00    +0.018 A 
ATOM     24  C   UNL     1      -6.974  -4.530  -0.654  0.00  0.00    +0.046 A 
ATOM     25  C   UNL     1      -8.195  -5.196  -0.661  0.00  0.00    +0.121 A 
ATOM     26  C   UNL     1      -8.239  -6.576  -0.497  0.00  0.00    +0.046 A 
ATOM     27  C   UNL     1      -7.073  -7.290  -0.332  0.00  0.00    +0.018 A 
BRANCH  25  28
ATOM     28  O   UNL     1      -9.346  -4.498  -0.829  0.00  0.00    -0.487 OA
BRANCH  28  29
ATOM     29  C   UNL     1     -10.564  -5.244  -0.826  0.00  0.00    +0.264 C 
BRANCH  29  30
ATOM     30  C   UNL     1     -11.728  -4.307  -1.023  0.00  0.00    -0.010 A 
ATOM     31  C   UNL     1     -12.343  -3.730   0.072  0.00  0.00    +0.007 A 
ATOM     32  C   UNL     1     -13.411  -2.870  -0.109  0.00  0.00    +0.000 A 
ATOM     33  C   UNL     1     -13.863  -2.588  -1.384  0.00  0.00    +0.000 A 
ATOM     34  C   UNL     1     -13.247  -3.165  -2.479  0.00  0.00    +0.000 A 
ATOM     35  C   UNL     1     -12.176  -4.021  -2.299  0.00  0.00    +0.007 A 
ENDBRANCH  29  30
ENDBRANCH  28  29
ENDBRANCH  25  28
ENDBRANCH  20  22
ENDBRANCH  19  20
ENDBRANCH   1  19
TORSDOF 8
