REMARK  Name = ZINC51092322
REMARK  4 active torsions:
REMARK  status: ('A' for Active; 'I' for Inactive)
REMARK    1  A    between atoms: C_1  and  C_2
REMARK    2  A    between atoms: C_12  and  C_14
REMARK    3  A    between atoms: C_19  and  N_20
REMARK    4  A    between atoms: N_20  and  N_21
REMARK                            x       y       z     vdW  Elec       q    Type
REMARK                         _______ _______ _______ _____ _____    ______ ____
ROOT
ATOM      1  C   UNL     1      -0.470   0.999  -0.199  0.00  0.00    +0.029 C 
ATOM      2  C   UNL     1      -0.373  -0.502   0.084  0.00  0.00    +0.083 C 
ATOM      3  C   UNL     1       0.236  -1.234  -1.123  0.00  0.00    +0.059 C 
ATOM      4  C   UNL     1       1.502  -1.863  -0.586  0.00  0.00    -0.024 A 
ATOM      5  C   UNL     1       2.461  -2.640  -1.207  0.00  0.00    +0.005 A 
ATOM      6  C   UNL     1       3.548  -3.105  -0.491  0.00  0.00    +0.000 A 
ATOM      7  C   UNL     1       3.674  -2.791   0.850  0.00  0.00    +0.002 A 
ATOM      8  C   UNL     1       2.721  -2.015   1.473  0.00  0.00    +0.024 A 
ATOM      9  C   UNL     1       1.620  -1.541   0.757  0.00  0.00    +0.040 A 
ATOM     10  N   UNL     1       0.550  -0.751   1.194  0.00  0.00    -0.264 N 
ATOM     11  C   UNL     1       0.393  -0.286   2.449  0.00  0.00    +0.253 C 
ATOM     12  O   UNL     1       1.182  -0.605   3.319  0.00  0.00    -0.270 OA
ENDROOT
BRANCH  11  13
ATOM     13  C   UNL     1      -0.734   0.608   2.768  0.00  0.00    +0.059 A 
ATOM     14  C   UNL     1      -2.034   0.265   2.386  0.00  0.00    +0.015 A 
ATOM     15  C   UNL     1      -3.083   1.105   2.688  0.00  0.00    +0.001 A 
ATOM     16  C   UNL     1      -2.858   2.291   3.369  0.00  0.00    +0.002 A 
ATOM     17  C   UNL     1      -1.581   2.644   3.752  0.00  0.00    +0.025 A 
ATOM     18  C   UNL     1      -0.510   1.807   3.462  0.00  0.00    +0.053 A 
BRANCH  18  19
ATOM     19  N   UNL     1       0.776   2.158   3.852  0.00  0.00    -0.282 N 
ATOM     20  H   UNL     1       1.531   1.611   3.583  0.00  0.00    +0.166 HD
BRANCH  19  21
ATOM     21  N   UNL     1       0.978   3.273   4.615  0.00  0.00    -0.256 NA
ATOM     22  H   UNL     1       0.434   3.234   5.464  0.00  0.00    +0.140 HD
ATOM     23  H   UNL     1       1.958   3.399   4.819  0.00  0.00    +0.140 HD
ENDBRANCH  19  21
ENDBRANCH  18  19
ENDBRANCH  11  13
TORSDOF 3
