REMARK  Name = ZINC22758226
REMARK  5 active torsions:
REMARK  status: ('A' for Active; 'I' for Inactive)
REMARK    1  A    between atoms: C_1  and  C_2
REMARK    2  A    between atoms: C_5  and  C_8
REMARK    3  A    between atoms: C_13  and  C_25
REMARK    4  A    between atoms: C_29  and  O_31
REMARK    5  A    between atoms: O_31  and  C_32
REMARK                            x       y       z     vdW  Elec       q    Type
REMARK                         _______ _______ _______ _____ _____    ______ ____
ROOT
ATOM      1  C   UNL     1      -1.522  -5.979  -0.831  0.00  0.00    +0.032 C 
ATOM      2  C   UNL     1      -2.547  -6.541   0.155  0.00  0.00    +0.060 C 
ATOM      3  C   UNL     1      -2.202  -7.975   0.483  0.00  0.00    +0.020 C 
ATOM      4  C   UNL     1      -0.919  -8.393   0.497  0.00  0.00    +0.039 C 
ATOM      5  C   UNL     1      -0.538  -9.816   0.837  0.00  0.00    +0.156 C 
ATOM      6  N   UNL     1      -1.714 -10.679   0.785  0.00  0.00    -0.300 N 
ATOM      7  C   UNL     1      -1.803 -12.041   0.759  0.00  0.00    +0.071 A 
ATOM      8  C   UNL     1      -0.848 -13.051   0.763  0.00  0.00    +0.028 A 
ATOM      9  C   UNL     1      -1.310 -14.357   0.729  0.00  0.00    +0.002 A 
ATOM     10  C   UNL     1      -2.661 -14.657   0.693  0.00  0.00    +0.002 A 
ATOM     11  C   UNL     1      -3.631 -13.671   0.687  0.00  0.00    +0.030 A 
ATOM     12  C   UNL     1      -3.188 -12.344   0.720  0.00  0.00    +0.091 A 
ATOM     13  N   UNL     1      -3.856 -11.173   0.722  0.00  0.00    -0.214 NA
ATOM     14  C   UNL     1      -3.001 -10.187   0.756  0.00  0.00    +0.202 A 
ATOM     15  N   UNL     1      -3.245  -8.825   0.760  0.00  0.00    -0.288 N 
ATOM     16  C   UNL     1       0.131  -7.508   0.186  0.00  0.00    +0.164 C 
ATOM     17  O   UNL     1       1.277  -7.910   0.223  0.00  0.00    -0.292 OA
ATOM     18  C   UNL     1      -0.133  -6.077  -0.191  0.00  0.00    +0.088 C 
ATOM     19  H   UNL     1      -4.131  -8.479   0.954  0.00  0.00    +0.155 HD
ENDROOT
BRANCH   1  24
ATOM     20  C   UNL     1      -2.754  -0.450  -1.976  0.00  0.00    +0.044 C 
ATOM     21  C   UNL     1      -2.433  -1.892  -1.677  0.00  0.00    -0.050 A 
ATOM     22  C   UNL     1      -2.400  -2.819  -2.702  0.00  0.00    +0.003 A 
ATOM     23  C   UNL     1      -2.105  -4.142  -2.428  0.00  0.00    +0.004 A 
ATOM     24  C   UNL     1      -1.842  -4.537  -1.130  0.00  0.00    -0.043 A 
ATOM     25  C   UNL     1      -1.874  -3.609  -0.105  0.00  0.00    +0.004 A 
ATOM     26  C   UNL     1      -2.165  -2.286  -0.380  0.00  0.00    +0.003 A 
ENDBRANCH   1  24
BRANCH   5  27
ATOM     27  C   UNL     1       0.048  -9.857   2.225  0.00  0.00    -0.017 A 
ATOM     28  C   UNL     1      -0.710  -9.449   3.307  0.00  0.00    +0.006 A 
ATOM     29  C   UNL     1      -0.176  -9.487   4.582  0.00  0.00    +0.004 A 
ATOM     30  C   UNL     1       1.117  -9.932   4.777  0.00  0.00    +0.046 A 
ATOM     31  C   UNL     1       1.879 -10.342   3.693  0.00  0.00    +0.129 A 
ATOM     32  C   UNL     1       1.339 -10.309   2.416  0.00  0.00    +0.052 A 
BRANCH  31  33
ATOM     33  O   UNL     1       3.152 -10.780   3.883  0.00  0.00    -0.456 OA
BRANCH  33  34
ATOM     34  C   UNL     1       3.864 -11.162   2.791  0.00  0.00    +0.128 A 
ATOM     35  C   UNL     1       4.634 -10.235   2.103  0.00  0.00    +0.046 A 
ATOM     36  C   UNL     1       5.357 -10.626   0.993  0.00  0.00    +0.004 A 
ATOM     37  C   UNL     1       5.314 -11.941   0.567  0.00  0.00    +0.000 A 
ATOM     38  C   UNL     1       4.548 -12.867   1.250  0.00  0.00    +0.004 A 
ATOM     39  C   UNL     1       3.828 -12.482   2.365  0.00  0.00    +0.046 A 
ENDBRANCH  33  34
ENDBRANCH  31  33
ENDBRANCH   5  27
TORSDOF 4
