REMARK  Name = ZINC39506962
REMARK  3 active torsions:
REMARK  status: ('A' for Active; 'I' for Inactive)
REMARK    1  A    between atoms: C_4  and  O_7
REMARK    2  A    between atoms: O_7  and  S_8
REMARK    3  A    between atoms: S_8  and  C_11
REMARK                            x       y       z     vdW  Elec       q    Type
REMARK                         _______ _______ _______ _____ _____    ______ ____
ROOT
ATOM      1  C   UNL     1       3.125  -2.313   1.960  0.00  0.00    +0.188 C 
ATOM      2  C   UNL     1       3.626  -2.798   3.347  0.00  0.00    +0.054 C 
ATOM      3  C   UNL     1       3.179  -4.269   3.377  0.00  0.00    +0.035 C 
ATOM      4  C   UNL     1       1.880  -4.415   4.179  0.00  0.00    +0.024 C 
ATOM      5  C   UNL     1       2.197  -5.365   5.354  0.00  0.00    +0.016 C 
ATOM      6  C   UNL     1       3.418  -6.182   4.864  0.00  0.00    +0.054 C 
ATOM      7  C   UNL     1       4.243  -5.131   4.077  0.00  0.00    +0.037 C 
ATOM      8  I   UNL     1       4.548  -6.952   6.538  0.00  0.00    -0.082 I 
ATOM      9  N   UNL     1       2.988  -4.710   1.990  0.00  0.00    -0.234 NA
ATOM     10  C   UNL     1       3.323  -3.582   1.092  0.00  0.00    +0.127 C 
ATOM     11 BR   UNL     1       4.033  -6.190   1.614  0.00  0.00    +0.013 Br
ENDROOT
BRANCH   1  12
ATOM     12  S   UNL     1       4.140  -0.941   1.346  0.00  0.00    +0.125 S 
ATOM     13  O   UNL     1       5.471  -1.383   1.113  0.00  0.00    -0.136 OA
ATOM     14  O   UNL     1       3.889   0.232   2.108  0.00  0.00    -0.136 OA
BRANCH  12  15
ATOM     15  O   UNL     1       3.586  -0.632  -0.037  0.00  0.00    -0.346 OA
BRANCH  15  19
ATOM     16  C   UNL     1      -0.017   1.378   0.010  0.00  0.00    +0.000 A 
ATOM     17  C   UNL     1       1.170   2.088   0.002  0.00  0.00    +0.004 A 
ATOM     18  C   UNL     1       2.377   1.417  -0.013  0.00  0.00    +0.048 A 
ATOM     19  C   UNL     1       2.399   0.030  -0.021  0.00  0.00    +0.156 A 
ATOM     20  C   UNL     1       1.207  -0.680  -0.013  0.00  0.00    +0.048 A 
ATOM     21  C   UNL     1       0.002  -0.004   0.002  0.00  0.00    +0.004 A 
ENDBRANCH  15  19
ENDBRANCH  12  15
ENDBRANCH   1  12
TORSDOF 3
