REMARK  Name = ZINC33937366
REMARK  12 active torsions:
REMARK  status: ('A' for Active; 'I' for Inactive)
REMARK    1  A    between atoms: C_1  and  C_2
REMARK    2  A    between atoms: C_2  and  C_3
REMARK    3  A    between atoms: C_3  and  C_4
REMARK    4  A    between atoms: C_4  and  C_6
REMARK    5  A    between atoms: C_4  and  N_18
REMARK    6  A    between atoms: N_10  and  C_11
REMARK    7  A    between atoms: C_11  and  C_12
REMARK    8  A    between atoms: N_18  and  C_19
REMARK    9  A    between atoms: N_18  and  C_25
REMARK   10  A    between atoms: C_19  and  C_20
REMARK   11  A    between atoms: C_25  and  C_26
REMARK   12  A    between atoms: C_30  and  C_38
REMARK                            x       y       z     vdW  Elec       q    Type
REMARK                         _______ _______ _______ _____ _____    ______ ____
ROOT
ATOM      1  N   UNL     1       2.224  -2.338   0.279  0.00  0.00    +0.392 N 
ATOM      2  H   UNL     1       3.096  -1.934  -0.031  0.00  0.00    -0.080 HD
ENDROOT
BRANCH   1   3
ATOM      3  C   UNL     1       1.143  -1.918  -0.623  0.00  0.00    +0.003 C 
BRANCH   3   4
ATOM      4  C   UNL     1      -0.165  -2.491  -0.140  0.00  0.00    +0.138 A 
ATOM      5  N   UNL     1      -0.375  -3.714   0.281  0.00  0.00    -0.115 NA
ATOM      6  N   UNL     1      -1.618  -3.815   0.606  0.00  0.00    -0.023 NA
ATOM      7  N   UNL     1      -2.205  -2.688   0.402  0.00  0.00    -0.044 NA
ATOM      8  N   UNL     1      -1.342  -1.844  -0.053  0.00  0.00    -0.228 N 
BRANCH   8   9
ATOM      9  C   UNL     1      -1.595  -0.447  -0.410  0.00  0.00    +0.178 C 
BRANCH   9  10
ATOM     10  C   UNL     1      -2.155  -0.377  -1.833  0.00  0.00    +0.140 C 
ATOM     11  C   UNL     1      -2.516   1.085  -2.198  0.00  0.00    +0.035 C 
ATOM     12  C   UNL     1      -2.419   1.034  -3.747  0.00  0.00    +0.031 C 
ATOM     13  C   UNL     1      -1.269   0.027  -3.971  0.00  0.00    +0.160 C 
ATOM     14  O   UNL     1      -1.152  -0.767  -2.783  0.00  0.00    -0.375 OA
ENDBRANCH   9  10
ENDBRANCH   8   9
ENDBRANCH   3   4
BRANCH   3  15
ATOM     15  C   UNL     1       1.432  -2.427  -2.037  0.00  0.00    -0.008 C 
BRANCH  15  17
ATOM     16  C   UNL     1       3.070  -2.380  -3.923  0.00  0.00    +0.004 C 
ATOM     17  C   UNL     1       2.722  -1.789  -2.555  0.00  0.00    -0.005 C 
ENDBRANCH  15  17
ENDBRANCH   3  15
ENDBRANCH   1   3
BRANCH   1  18
ATOM     18  C   UNL     1       1.929  -1.879   1.643  0.00  0.00    -0.034 C 
BRANCH  18  19
ATOM     19  C   UNL     1       1.968  -0.373   1.686  0.00  0.00    -0.027 A 
ATOM     20  C   UNL     1       0.945   0.510   1.587  0.00  0.00    +0.009 A 
ATOM     21  C   UNL     1       1.219   1.864   1.655  0.00  0.00    +0.008 A 
ATOM     22  C   UNL     1       2.503   2.267   1.818  0.00  0.00    +0.045 A 
ATOM     23  S   UNL     1       3.373   0.710   1.888  0.00  0.00    -0.103 S 
ENDBRANCH  18  19
ENDBRANCH   1  18
BRANCH   1  24
ATOM     24  C   UNL     1       2.331  -3.803   0.267  0.00  0.00    -0.036 C 
BRANCH  24  25
ATOM     25  C   UNL     1       3.529  -4.225   1.078  0.00  0.00    +0.001 A 
ATOM     26  C   UNL     1       3.372  -4.595   2.373  0.00  0.00    +0.017 A 
ATOM     27  C   UNL     1       4.556  -5.001   3.133  0.00  0.00    -0.001 A 
ATOM     28  C   UNL     1       4.457  -5.393   4.472  0.00  0.00    +0.013 A 
ATOM     29  C   UNL     1       5.580  -5.766   5.153  0.00  0.00    -0.050 A 
ATOM     30  C   UNL     1       6.820  -5.760   4.529  0.00  0.00    +0.005 A 
ATOM     31  C   UNL     1       6.941  -5.377   3.210  0.00  0.00    +0.026 A 
ATOM     32  C   UNL     1       5.811  -4.993   2.496  0.00  0.00    +0.049 A 
ATOM     33  N   UNL     1       5.903  -4.607   1.176  0.00  0.00    -0.322 N 
ATOM     34  H   UNL     1       6.769  -4.602   0.739  0.00  0.00    +0.169 HD
ATOM     35  C   UNL     1       4.810  -4.241   0.484  0.00  0.00    +0.251 A 
ATOM     36  O   UNL     1       4.928  -3.910  -0.683  0.00  0.00    -0.268 OA
ATOM     37  C   UNL     1       5.473  -6.188   6.596  0.00  0.00    +0.044 C 
ENDBRANCH  24  25
ENDBRANCH   1  24
TORSDOF 10
