REMARK  Name = ZINC04150802
REMARK  7 active torsions:
REMARK  status: ('A' for Active; 'I' for Inactive)
REMARK    1  A    between atoms: C_4  and  C_7
REMARK    2  A    between atoms: C_13  and  C_15
REMARK    3  A    between atoms: N_17  and  N_18
REMARK    4  A    between atoms: C_19  and  C_20
REMARK    5  A    between atoms: C_24  and  O_26
REMARK    6  A    between atoms: O_26  and  C_27
REMARK    7  A    between atoms: C_27  and  C_29
REMARK                            x       y       z     vdW  Elec       q    Type
REMARK                         _______ _______ _______ _____ _____    ______ ____
ROOT
ATOM      1  N   UNL     1      -3.797   0.727   3.180  0.00  0.00    -0.188 NA
ATOM      2  C   UNL     1      -4.246   0.578   4.388  0.00  0.00    +0.138 C 
ENDROOT
BRANCH   2   3
ATOM      3  C   UNL     1      -3.961  -0.664   5.133  0.00  0.00    -0.002 A 
ATOM      4  C   UNL     1      -2.964  -1.535   4.687  0.00  0.00    +0.010 A 
ATOM      5  C   UNL     1      -2.696  -2.692   5.389  0.00  0.00    +0.004 A 
ATOM      6  C   UNL     1      -3.420  -2.999   6.527  0.00  0.00    +0.046 A 
ATOM      7  C   UNL     1      -4.417  -2.142   6.975  0.00  0.00    +0.133 A 
ATOM      8  C   UNL     1      -4.690  -0.975   6.281  0.00  0.00    +0.055 A 
BRANCH   7   9
ATOM      9  O   UNL     1      -5.125  -2.449   8.093  0.00  0.00    -0.422 OA
BRANCH   9  10
ATOM     10  C   UNL     1      -6.378  -2.911   7.916  0.00  0.00    +0.344 C 
ATOM     11  O   UNL     1      -6.795  -3.124   6.795  0.00  0.00    -0.245 OA
BRANCH  10  12
ATOM     12  C   UNL     1      -7.246  -3.159   9.086  0.00  0.00    +0.060 A 
ATOM     13  C   UNL     1      -6.768  -2.921  10.377  0.00  0.00    +0.015 A 
ATOM     14  C   UNL     1      -7.585  -3.150  11.464  0.00  0.00    +0.002 A 
ATOM     15  C   UNL     1      -8.872  -3.624  11.280  0.00  0.00    +0.015 A 
ATOM     16  C   UNL     1      -9.350  -3.868  10.004  0.00  0.00    +0.019 A 
ATOM     17  C   UNL     1      -8.545  -3.638   8.906  0.00  0.00    +0.030 A 
ATOM     18 BR   UNL     1     -11.110  -4.517   9.763  0.00  0.00    -0.050 Br
ENDBRANCH  10  12
ENDBRANCH   9  10
ENDBRANCH   7   9
ENDBRANCH   2   3
BRANCH   1  21
ATOM     19  C   UNL     1      -2.850  -0.236   1.220  0.00  0.00    +0.245 C 
ATOM     20  O   UNL     1      -2.641   0.879   0.790  0.00  0.00    -0.273 OA
ATOM     21  N   UNL     1      -3.433  -0.395   2.425  0.00  0.00    -0.206 N 
ATOM     22  H   UNL     1      -3.600  -1.286   2.768  0.00  0.00    +0.177 HD
BRANCH  19  28
ATOM     23  C   UNL     1      -0.923  -1.626   0.415  0.00  0.00    +0.057 C 
ATOM     24  C   UNL     1      -0.509  -0.881  -0.873  0.00  0.00    +0.113 C 
ATOM     25  N   UNL     1      -1.689  -0.923  -1.746  0.00  0.00    -0.314 N 
ATOM     26  C   UNL     1      -2.798  -1.231  -1.052  0.00  0.00    +0.226 C 
ATOM     27  O   UNL     1      -3.910  -1.326  -1.527  0.00  0.00    -0.275 OA
ATOM     28  C   UNL     1      -2.458  -1.442   0.407  0.00  0.00    +0.171 C 
ATOM     29  H   UNL     1      -1.670  -0.752  -2.700  0.00  0.00    +0.149 HD
BRANCH  23  33
ATOM     30  C   UNL     1       0.815   0.203   3.863  0.00  0.00    +0.000 A 
ATOM     31  C   UNL     1       0.723  -1.174   3.783  0.00  0.00    +0.000 A 
ATOM     32  C   UNL     1       0.160  -1.766   2.668  0.00  0.00    +0.004 A 
ATOM     33  C   UNL     1      -0.310  -0.981   1.632  0.00  0.00    -0.042 A 
ATOM     34  C   UNL     1      -0.212   0.396   1.709  0.00  0.00    +0.004 A 
ATOM     35  C   UNL     1       0.347   0.988   2.826  0.00  0.00    +0.000 A 
ENDBRANCH  23  33
ENDBRANCH  19  28
ENDBRANCH   1  21
TORSDOF 7
