REMARK  Name = ZINC35179812
REMARK  3 active torsions:
REMARK  status: ('A' for Active; 'I' for Inactive)
REMARK    1  A    between atoms: C_1  and  C_2
REMARK    2  A    between atoms: C_2  and  C_4
REMARK    3  A    between atoms: C_2  and  N_14
REMARK                            x       y       z     vdW  Elec       q    Type
REMARK                         _______ _______ _______ _____ _____    ______ ____
ROOT
ATOM      1  C   UNL     1      -0.019   1.526   0.010  0.00  0.00    +0.028 C 
ATOM      2  C   UNL     1       0.002  -0.004   0.002  0.00  0.00    +0.075 C 
ENDROOT
BRANCH   2   3
ATOM      3  N   UNL     1      -1.372  -0.511   0.012  0.00  0.00    -0.320 N 
ATOM      4  C   UNL     1      -2.075  -0.647  -1.185  0.00  0.00    +0.204 A 
ATOM      5  C   UNL     1      -3.458  -1.150  -1.188  0.00  0.00    +0.294 A 
ATOM      6  O   UNL     1      -4.007  -1.453  -0.145  0.00  0.00    -0.264 OA
ATOM      7  N   UNL     1      -4.111  -1.270  -2.363  0.00  0.00    -0.271 N 
ATOM      8  H   UNL     1      -5.023  -1.599  -2.379  0.00  0.00    +0.174 HD
ATOM      9  C   UNL     1      -3.497  -0.931  -3.512  0.00  0.00    +0.343 A 
ATOM     10  O   UNL     1      -4.096  -1.044  -4.565  0.00  0.00    -0.245 OA
ATOM     11  N   UNL     1      -2.234  -0.471  -3.516  0.00  0.00    -0.226 N 
ATOM     12  H   UNL     1      -1.814  -0.234  -4.358  0.00  0.00    +0.194 HD
ATOM     13  N   UNL     1      -1.516  -0.326  -2.323  0.00  0.00    -0.149 NA
ATOM     14  H   UNL     1      -1.794  -0.752   0.852  0.00  0.00    +0.148 HD
ENDBRANCH   2   3
BRANCH   2  15
ATOM     15  C   UNL     1       0.742  -0.511   1.242  0.00  0.00    -0.010 C 
ATOM     16  C   UNL     1       0.763  -2.041   1.233  0.00  0.00    +0.012 C 
ATOM     17  C   UNL     1       1.503  -2.548   2.473  0.00  0.00    -0.010 C 
ATOM     18  C   UNL     1       2.938  -2.018   2.462  0.00  0.00    +0.007 C 
ATOM     19  C   UNL     1       2.917  -0.488   2.470  0.00  0.00    -0.010 C 
ATOM     20  C   UNL     1       2.178   0.019   1.231  0.00  0.00    +0.012 C 
ATOM     21  C   UNL     1       2.201   0.005   3.729  0.00  0.00    +0.007 C 
ATOM     22  C   UNL     1       0.766  -0.524   3.740  0.00  0.00    -0.010 C 
ATOM     23  C   UNL     1       0.787  -2.054   3.732  0.00  0.00    +0.007 C 
ATOM     24  C   UNL     1       0.026  -0.018   2.500  0.00  0.00    +0.012 C 
ENDBRANCH   2  15
TORSDOF 2
