REMARK  Name = ZINC28536180
REMARK  5 active torsions:
REMARK  status: ('A' for Active; 'I' for Inactive)
REMARK    1  A    between atoms: N_4  and  N_6
REMARK    2  A    between atoms: C_12  and  S_13
REMARK    3  A    between atoms: S_13  and  C_14
REMARK    4  A    between atoms: C_14  and  C_15
REMARK    5  A    between atoms: N_20  and  C_21
REMARK                            x       y       z     vdW  Elec       q    Type
REMARK                         _______ _______ _______ _____ _____    ______ ____
ROOT
ATOM      1  N   UNL     1      -2.449   1.400  -0.042  0.00  0.00    -0.184 N 
ATOM      2  C   UNL     1      -2.721   0.078  -0.130  0.00  0.00    +0.314 A 
ATOM      3  O   UNL     1      -1.824  -0.742  -0.233  0.00  0.00    -0.262 OA
ATOM      4  C   UNL     1      -4.082  -0.327  -0.100  0.00  0.00    +0.212 A 
ATOM      5  N   UNL     1      -5.022   0.587   0.012  0.00  0.00    -0.126 NA
ATOM      6  N   UNL     1      -4.734   1.837   0.094  0.00  0.00    -0.120 NA
ATOM      7  C   UNL     1      -3.491   2.274   0.077  0.00  0.00    +0.213 A 
ATOM      8  N   UNL     1      -4.419  -1.678  -0.187  0.00  0.00    -0.294 N 
ATOM      9  H   UNL     1      -3.628  -2.444  -0.180  0.00  0.00    +0.154 HD
ENDROOT
BRANCH   8  10
ATOM     10  C   UNL     1      -5.759  -2.059  -0.282  0.00  0.00    +0.035 A 
ATOM     11  C   UNL     1      -6.189  -3.243   0.304  0.00  0.00    +0.043 A 
ATOM     12  C   UNL     1      -7.517  -3.615   0.212  0.00  0.00    +0.044 A 
ATOM     13  C   UNL     1      -8.416  -2.815  -0.471  0.00  0.00    +0.040 A 
ATOM     14  C   UNL     1      -7.989  -1.638  -1.061  0.00  0.00    +0.044 A 
ATOM     15  C   UNL     1      -6.663  -1.258  -0.968  0.00  0.00    +0.043 A 
ATOM     16 CL   UNL     1      -9.119  -0.637  -1.917  0.00  0.00    -0.083 Cl
ATOM     17 CL   UNL     1      -8.057  -5.091   0.950  0.00  0.00    -0.083 Cl
ENDBRANCH   8  10
BRANCH   1  21
ATOM     18  C   UNL     1       0.737   2.872   0.516  0.00  0.00    +0.021 A 
ATOM     19  C   UNL     1       0.937   2.233  -0.725  0.00  0.00    +0.021 A 
ATOM     20  C   UNL     1      -0.218   1.621  -1.054  0.00  0.00    +0.111 A 
ATOM     21  N   UNL     1      -1.126   1.862  -0.066  0.00  0.00    -0.258 N 
ATOM     22  C   UNL     1      -0.533   2.625   0.896  0.00  0.00    +0.111 A 
ENDBRANCH   1  21
BRANCH   7  23
ATOM     23  S   UNL     1      -3.171   4.003   0.202  0.00  0.00    -0.076 S 
BRANCH  23  24
ATOM     24  C   UNL     1      -4.865   4.627   0.331  0.00  0.00    +0.151 C 
BRANCH  24  25
ATOM     25  C   UNL     1      -4.839   6.129   0.451  0.00  0.00    +0.115 A 
ATOM     26  C   UNL     1      -4.875   7.001  -0.572  0.00  0.00    +0.045 A 
ATOM     27  C   UNL     1      -4.831   8.297  -0.008  0.00  0.00    +0.041 A 
ATOM     28  C   UNL     1      -4.770   8.139   1.326  0.00  0.00    +0.195 A 
ATOM     29  O   UNL     1      -4.781   6.824   1.599  0.00  0.00    -0.467 OA
ENDBRANCH  24  25
ENDBRANCH  23  24
ENDBRANCH   7  23
TORSDOF 5
