REMARK  Name = ZINC42021616
REMARK  12 active torsions:
REMARK  status: ('A' for Active; 'I' for Inactive)
REMARK    1  A    between atoms: C_1  and  C_2
REMARK    2  A    between atoms: C_2  and  O_3
REMARK    3  A    between atoms: O_3  and  C_4
REMARK    4  A    between atoms: N_6  and  C_7
REMARK    5  A    between atoms: C_7  and  C_9
REMARK    6  A    between atoms: C_7  and  C_13
REMARK    7  A    between atoms: C_9  and  C_10
REMARK    8  A    between atoms: C_10  and  C_11
REMARK    9  A    between atoms: C_10  and  C_12
REMARK   10  A    between atoms: C_13  and  N_14
REMARK   11  A    between atoms: C_15  and  C_17
REMARK   12  A    between atoms: N_19  and  C_20
REMARK                            x       y       z     vdW  Elec       q    Type
REMARK                         _______ _______ _______ _____ _____    ______ ____
ROOT
ATOM      1  N   UNL     1       3.966  -3.455   2.819  0.00  0.00    -0.306 N 
ATOM      2  C   UNL     1       5.168  -3.611   3.409  0.00  0.00    +0.299 C 
ATOM      3  O   UNL     1       5.263  -4.258   4.431  0.00  0.00    -0.265 OA
ATOM      4  H   UNL     1       3.890  -2.937   2.002  0.00  0.00    +0.149 HD
ENDROOT
BRANCH   2   5
ATOM      5  C   UNL     1       6.383  -2.987   2.804  0.00  0.00    +0.303 C 
ATOM      6  O   UNL     1       6.287  -2.339   1.782  0.00  0.00    -0.265 OA
ATOM      7  N   UNL     1       7.584  -3.143   3.394  0.00  0.00    -0.275 N 
ATOM      8  H   UNL     1       7.651  -3.604   4.245  0.00  0.00    +0.155 HD
BRANCH   7   9
ATOM      9  C   UNL     1       8.735  -2.639   2.780  0.00  0.00    +0.071 A 
ATOM     10  C   UNL     1       8.675  -1.457   2.054  0.00  0.00    +0.046 A 
ATOM     11  C   UNL     1       9.815  -0.961   1.448  0.00  0.00    +0.043 A 
ATOM     12  C   UNL     1      11.015  -1.641   1.565  0.00  0.00    +0.023 A 
ATOM     13  C   UNL     1      11.079  -2.818   2.288  0.00  0.00    +0.041 A 
ATOM     14  C   UNL     1       9.944  -3.317   2.901  0.00  0.00    +0.145 A 
ATOM     15  F   UNL     1      10.007  -4.464   3.611  0.00  0.00    -0.204 F 
ATOM     16 CL   UNL     1       9.741   0.516   0.539  0.00  0.00    -0.083 Cl
ENDBRANCH   7   9
ENDBRANCH   2   5
BRANCH   1  17
ATOM     17  C   UNL     1       2.774  -4.067   3.412  0.00  0.00    +0.127 C 
BRANCH  17  18
ATOM     18  C   UNL     1       1.551  -3.739   2.553  0.00  0.00    +0.093 C 
BRANCH  18  21
ATOM     19  C   UNL     1       0.803  -1.774   1.321  0.00  0.00    +0.401 C 
ATOM     20  O   UNL     1       0.316  -2.516   0.491  0.00  0.00    -0.226 OA
ATOM     21  N   UNL     1       1.443  -2.287   2.390  0.00  0.00    -0.277 N 
ATOM     22  H   UNL     1       1.832  -1.695   3.053  0.00  0.00    +0.152 HD
BRANCH  19  23
ATOM     23  O   UNL     1       0.704  -0.440   1.172  0.00  0.00    -0.451 OA
BRANCH  23  25
ATOM     24  C   UNL     1       0.002   1.564   0.018  0.00  0.00    +0.048 C 
ATOM     25  C   UNL     1       0.012   0.034   0.015  0.00  0.00    +0.230 C 
ENDBRANCH  23  25
ENDBRANCH  19  23
ENDBRANCH  18  21
BRANCH  18  26
ATOM     26  C   UNL     1       0.290  -4.271   3.236  0.00  0.00    +0.027 C 
BRANCH  26  27
ATOM     27  C   UNL     1      -0.916  -4.055   2.320  0.00  0.00    -0.015 C 
ATOM     28  C   UNL     1      -0.754  -4.900   1.055  0.00  0.00    +0.007 C 
ATOM     29  C   UNL     1      -2.193  -4.472   3.052  0.00  0.00    +0.007 C 
ENDBRANCH  26  27
ENDBRANCH  18  26
ENDBRANCH  17  18
ENDBRANCH   1  17
TORSDOF 9
