REMARK  Name = ZINC28009205
REMARK  2 active torsions:
REMARK  status: ('A' for Active; 'I' for Inactive)
REMARK    1  A    between atoms: C_3  and  N_17
REMARK    2  A    between atoms: C_6  and  C_7
REMARK                            x       y       z     vdW  Elec       q    Type
REMARK                         _______ _______ _______ _____ _____    ______ ____
ROOT
ATOM      1  C   UNL     1      -0.996  -0.873   0.304  0.00  0.00    +0.070 A 
ATOM      2  C   UNL     1       0.002  -0.004   0.002  0.00  0.00    +0.015 A 
ATOM      3  C   UNL     1       1.138  -0.752  -0.343  0.00  0.00    +0.069 A 
ATOM      4  N   UNL     1       0.847  -2.015  -0.252  0.00  0.00    -0.178 NA
ATOM      5  N   UNL     1      -0.492  -2.134   0.153  0.00  0.00    -0.276 N 
ATOM      6  H   UNL     1      -1.131  -3.008   0.347  0.00  0.00    +0.189 HD
ATOM      7  C   UNL     1       2.443  -0.106  -0.747  0.00  0.00    +0.072 C 
ATOM      8  C   UNL     1       2.151   1.363  -1.085  0.00  0.00    +0.087 C 
ATOM      9  N   UNL     1       1.376   1.980  -0.000  0.00  0.00    -0.312 NA
ATOM     10  C   UNL     1      -0.018   1.504   0.010  0.00  0.00    +0.120 C 
ATOM     11  H   UNL     1       1.835   1.729   0.967  0.00  0.00    +0.122 HD
ENDROOT
BRANCH   1  17
ATOM     12  C   UNL     1      -2.581   0.472   1.678  0.00  0.00    +0.012 A 
ATOM     13  C   UNL     1      -3.866   0.800   2.057  0.00  0.00    +0.033 A 
ATOM     14  C   UNL     1      -4.946   0.140   1.497  0.00  0.00    +0.126 A 
ATOM     15  C   UNL     1      -4.744  -0.849   0.551  0.00  0.00    +0.033 A 
ATOM     16  C   UNL     1      -3.464  -1.182   0.159  0.00  0.00    +0.012 A 
ATOM     17  C   UNL     1      -2.371  -0.520   0.720  0.00  0.00    +0.000 A 
BRANCH  14  18
ATOM     18  N   UNL     1      -6.322   0.492   1.913  0.00  0.00    +0.056 N 
ATOM     19  O   UNL     1      -7.274  -0.088   1.423  0.00  0.00    -0.126 OA
ATOM     20  O   UNL     1      -6.502   1.362   2.747  0.00  0.00    -0.126 OA
ENDBRANCH  14  18
ENDBRANCH   1  17
TORSDOF 2
