REMARK  Name = ZINC32962521
REMARK  9 active torsions:
REMARK  status: ('A' for Active; 'I' for Inactive)
REMARK    1  A    between atoms: C_1  and  C_2
REMARK    2  A    between atoms: C_5  and  S_8
REMARK    3  A    between atoms: S_8  and  N_11
REMARK    4  A    between atoms: N_11  and  C_12
REMARK    5  A    between atoms: C_12  and  C_14
REMARK    6  A    between atoms: C_12  and  C_18
REMARK    7  A    between atoms: C_14  and  C_15
REMARK    8  A    between atoms: C_15  and  C_16
REMARK    9  A    between atoms: C_15  and  C_17
REMARK                            x       y       z     vdW  Elec       q    Type
REMARK                         _______ _______ _______ _____ _____    ______ ____
ROOT
ATOM      1  C   UNL     1      -0.021   9.290  -2.597  0.00  0.00    +0.162 C 
ENDROOT
BRANCH   1   2
ATOM      2  C   UNL     1       0.488   8.835  -1.253  0.00  0.00    +0.234 C 
ATOM      3  O   UNL     1       1.389   9.438  -0.710  0.00  0.00    -0.274 OA
ATOM      4  N   UNL     1      -0.059   7.758  -0.655  0.00  0.00    -0.297 N 
ATOM      5  C   UNL     1       0.497   7.227   0.599  0.00  0.00    +0.126 C 
ATOM      6  C   UNL     1       0.732   5.723   0.428  0.00  0.00    +0.125 C 
ATOM      7  N   UNL     1      -0.512   5.083  -0.018  0.00  0.00    -0.314 N 
ATOM      8  C   UNL     1      -0.925   5.584  -1.337  0.00  0.00    +0.125 C 
ATOM      9  C   UNL     1      -1.228   7.083  -1.238  0.00  0.00    +0.126 C 
ATOM     10  C   UNL     1      -0.386   3.699  -0.028  0.00  0.00    +0.099 A 
ATOM     11  C   UNL     1      -1.463   2.911  -0.423  0.00  0.00    +0.042 A 
ATOM     12  C   UNL     1      -1.321   1.536  -0.433  0.00  0.00    +0.005 A 
ATOM     13  C   UNL     1      -0.107   0.991  -0.036  0.00  0.00    +0.018 A 
ATOM     14  C   UNL     1       0.919   1.833   0.344  0.00  0.00    +0.084 A 
ATOM     15  N   UNL     1       0.758   3.142   0.339  0.00  0.00    -0.350 N 
ATOM     16  H   UNL     1       1.603   3.775   0.649  0.00  0.00    +0.166 HD
ENDBRANCH   1   2
BRANCH   1  17
ATOM     17  N   UNL     1       0.978  10.155  -3.229  0.00  0.00    -0.178 NA
ATOM     18  H   UNL     1       0.889  11.249  -3.148  0.00  0.00    +0.149 HD
BRANCH  17  19
ATOM     19  S   UNL     1       2.094   9.510  -4.268  0.00  0.00    +0.059 S 
ATOM     20  O   UNL     1       2.870  10.596  -4.756  0.00  0.00    -0.153 OA
ATOM     21  O   UNL     1       2.675   8.398  -3.600  0.00  0.00    -0.153 OA
BRANCH  19  26
ATOM     22  C   UNL     1      -0.935   7.295  -8.993  0.00  0.00    +0.044 C 
ATOM     23  C   UNL     1      -0.178   7.848  -7.813  0.00  0.00    -0.050 A 
ATOM     24  C   UNL     1       0.355   9.122  -7.869  0.00  0.00    +0.005 A 
ATOM     25  C   UNL     1       1.050   9.630  -6.787  0.00  0.00    +0.029 A 
ATOM     26  C   UNL     1       1.210   8.863  -5.648  0.00  0.00    +0.105 A 
ATOM     27  C   UNL     1       0.680   7.588  -5.593  0.00  0.00    +0.029 A 
ATOM     28  C   UNL     1      -0.018   7.082  -6.673  0.00  0.00    +0.005 A 
ENDBRANCH  19  26
ENDBRANCH  17  19
ENDBRANCH   1  17
BRANCH   1  29
ATOM     29  C   UNL     1      -1.326  10.067  -2.412  0.00  0.00    +0.032 C 
BRANCH  29  30
ATOM     30  C   UNL     1      -1.931  10.380  -3.782  0.00  0.00    -0.015 C 
ATOM     31  C   UNL     1      -3.315  11.005  -3.597  0.00  0.00    +0.007 C 
ATOM     32  C   UNL     1      -1.024  11.361  -4.528  0.00  0.00    +0.007 C 
ENDBRANCH  29  30
ENDBRANCH   1  29
TORSDOF 6
