REMARK  Name = ZINC16569967
REMARK  8 active torsions:
REMARK  status: ('A' for Active; 'I' for Inactive)
REMARK    1  A    between atoms: C_1  and  C_2
REMARK    2  A    between atoms: C_2  and  O_3
REMARK    3  A    between atoms: O_3  and  C_4
REMARK    4  A    between atoms: C_9  and  N_10
REMARK    5  A    between atoms: N_13  and  C_14
REMARK    6  A    between atoms: N_13  and  C_38
REMARK    7  A    between atoms: C_14  and  C_15
REMARK    8  A    between atoms: C_29  and  C_31
REMARK                            x       y       z     vdW  Elec       q    Type
REMARK                         _______ _______ _______ _____ _____    ______ ____
ROOT
ATOM      1  C   UNL     1       3.108  -2.910  -0.345  0.00  0.00    +0.238 C 
ATOM      2  O   UNL     1       3.190  -4.116  -0.450  0.00  0.00    -0.273 OA
ATOM      3  N   UNL     1       2.425  -2.367   0.682  0.00  0.00    -0.255 N 
ATOM      4  C   UNL     1       1.735  -3.195   1.578  0.00  0.00    +0.061 A 
ATOM      5  C   UNL     1       1.234  -4.419   1.163  0.00  0.00    +0.025 A 
ATOM      6  C   UNL     1       0.570  -5.233   2.062  0.00  0.00    +0.002 A 
ATOM      7  C   UNL     1       0.398  -4.833   3.375  0.00  0.00    +0.002 A 
ATOM      8  C   UNL     1       0.889  -3.610   3.798  0.00  0.00    +0.028 A 
ATOM      9  C   UNL     1       1.553  -2.792   2.905  0.00  0.00    +0.068 A 
ATOM     10  N   UNL     1       2.056  -1.539   3.284  0.00  0.00    -0.316 N 
ATOM     11  C   UNL     1       2.230  -1.002   4.515  0.00  0.00    +0.092 A 
ATOM     12  C   UNL     1       2.754   0.235   4.366  0.00  0.00    +0.020 A 
ATOM     13  C   UNL     1       2.907   0.469   2.981  0.00  0.00    +0.025 A 
ATOM     14  C   UNL     1       2.474  -0.623   2.342  0.00  0.00    +0.049 A 
ATOM     15  C   UNL     1       2.405  -0.906   0.861  0.00  0.00    +0.159 C 
ENDROOT
BRANCH  15  16
ATOM     16  C   UNL     1       1.129  -0.340   0.291  0.00  0.00    -0.021 A 
ATOM     17  C   UNL     1      -0.058  -1.032   0.434  0.00  0.00    +0.008 A 
ATOM     18  C   UNL     1      -1.229  -0.512  -0.083  0.00  0.00    +0.038 A 
ATOM     19  C   UNL     1      -1.211   0.699  -0.754  0.00  0.00    +0.123 A 
ATOM     20  C   UNL     1      -0.020   1.390  -0.901  0.00  0.00    +0.038 A 
ATOM     21  C   UNL     1       1.149   0.870  -0.379  0.00  0.00    +0.008 A 
ATOM     22  F   UNL     1      -2.354   1.207  -1.265  0.00  0.00    -0.205 F 
ENDBRANCH  15  16
BRANCH   1  23
ATOM     23  C   UNL     1       3.771  -2.019  -1.364  0.00  0.00    +0.205 C 
BRANCH  23  27
ATOM     24  N   UNL     1       2.584  -2.817  -3.722  0.00  0.00    -0.266 N 
ATOM     25  C   UNL     1       3.831  -3.256  -3.462  0.00  0.00    +0.307 C 
ATOM     26  O   UNL     1       4.378  -4.024  -4.230  0.00  0.00    -0.252 OA
ATOM     27  N   UNL     1       4.473  -2.843  -2.351  0.00  0.00    -0.274 N 
ATOM     28  H   UNL     1       2.177  -2.146  -3.152  0.00  0.00    +0.156 HD
BRANCH  24  34
ATOM     29  C   UNL     1       0.850  -2.586  -5.396  0.00  0.00    +0.142 A 
ATOM     30  C   UNL     1       0.155  -3.096  -6.480  0.00  0.00    +0.047 A 
ATOM     31  C   UNL     1       0.472  -4.346  -6.979  0.00  0.00    +0.004 A 
ATOM     32  C   UNL     1       1.486  -5.088  -6.402  0.00  0.00    +0.002 A 
ATOM     33  C   UNL     1       2.187  -4.584  -5.322  0.00  0.00    +0.027 A 
ATOM     34  C   UNL     1       1.875  -3.330  -4.817  0.00  0.00    +0.077 A 
BRANCH  29  35
ATOM     35  O   UNL     1       0.535  -1.359  -4.901  0.00  0.00    -0.490 OA
BRANCH  35  37
ATOM     36  C   UNL     1      -0.734   0.697  -4.855  0.00  0.00    +0.048 C 
ATOM     37  C   UNL     1      -0.527  -0.652  -5.545  0.00  0.00    +0.226 C 
ENDBRANCH  35  37
ENDBRANCH  29  35
ENDBRANCH  24  34
BRANCH  27  38
ATOM     38  C   UNL     1       5.872  -3.219  -2.130  0.00  0.00    +0.078 C 
ATOM     39  C   UNL     1       6.668  -3.716  -3.338  0.00  0.00    +0.024 C 
ATOM     40  C   UNL     1       6.232  -4.701  -2.250  0.00  0.00    +0.024 C 
ENDBRANCH  27  38
ENDBRANCH  23  27
ENDBRANCH   1  23
TORSDOF 7
