REMARK  Name = ZINC39713048
REMARK  13 active torsions:
REMARK  status: ('A' for Active; 'I' for Inactive)
REMARK    1  A    between atoms: C_1  and  C_2
REMARK    2  A    between atoms: C_2  and  N_3
REMARK    3  A    between atoms: N_3  and  C_4
REMARK    4  A    between atoms: N_3  and  C_6
REMARK    5  A    between atoms: C_4  and  C_5
REMARK    6  A    between atoms: C_6  and  C_7
REMARK    7  A    between atoms: C_7  and  N_8
REMARK    8  A    between atoms: C_19  and  C_21
REMARK    9  A    between atoms: C_21  and  C_22
REMARK   10  A    between atoms: C_22  and  S_23
REMARK   11  A    between atoms: S_23  and  C_24
REMARK   12  A    between atoms: C_27  and  O_30
REMARK   13  A    between atoms: O_30  and  C_31
REMARK                            x       y       z     vdW  Elec       q    Type
REMARK                         _______ _______ _______ _____ _____    ______ ____
ROOT
ATOM      1  N   UNL     1      -1.382  -3.580  -1.830  0.00  0.00    -0.252 N 
ATOM      2  C   UNL     1      -1.542  -4.435  -0.752  0.00  0.00    +0.168 A 
ATOM      3  N   UNL     1      -1.529  -4.155   0.530  0.00  0.00    -0.224 NA
ATOM      4  C   UNL     1      -1.701  -5.098   1.482  0.00  0.00    +0.080 A 
ATOM      5  C   UNL     1      -1.708  -4.931   2.886  0.00  0.00    +0.030 A 
ATOM      6  C   UNL     1      -1.897  -6.003   3.718  0.00  0.00    +0.017 A 
ATOM      7  C   UNL     1      -2.088  -7.284   3.219  0.00  0.00    +0.019 A 
ATOM      8  C   UNL     1      -2.087  -7.484   1.850  0.00  0.00    +0.032 A 
ATOM      9  C   UNL     1      -1.898  -6.416   1.009  0.00  0.00    +0.042 A 
ATOM     10  S   UNL     1      -1.829  -6.200  -0.753  0.00  0.00    -0.052 S 
ATOM     11 BR   UNL     1      -2.346  -8.741   4.397  0.00  0.00    -0.050 Br
ATOM     12  C   UNL     1      -1.435  -4.063  -3.087  0.00  0.00    +0.222 C 
ATOM     13  O   UNL     1      -1.623  -5.247  -3.274  0.00  0.00    -0.275 OA
ENDROOT
BRANCH   1  14
ATOM     14  C   UNL     1      -1.155  -2.151  -1.603  0.00  0.00    +0.097 C 
BRANCH  14  15
ATOM     15  C   UNL     1       0.348  -1.884  -1.496  0.00  0.00    -0.059 C 
BRANCH  15  16
ATOM     16  N   UNL     1       0.576  -0.451  -1.269  0.00  0.00    +0.380 N 
ATOM     17  H   UNL     1       0.124   0.081  -1.998  0.00  0.00    -0.082 HD
BRANCH  16  19
ATOM     18  C   UNL     1       0.128   1.449   0.210  0.00  0.00    -0.017 C 
ATOM     19  C   UNL     1       0.019  -0.067   0.035  0.00  0.00    -0.082 C 
ENDBRANCH  16  19
BRANCH  16  20
ATOM     20  C   UNL     1       2.019  -0.176  -1.285  0.00  0.00    -0.082 C 
ATOM     21  C   UNL     1       2.573  -0.440  -2.687  0.00  0.00    -0.017 C 
ENDBRANCH  16  20
ENDBRANCH  15  16
ENDBRANCH  14  15
ENDBRANCH   1  14
BRANCH  12  22
ATOM     22  C   UNL     1      -1.260  -3.133  -4.260  0.00  0.00    +0.107 C 
BRANCH  22  23
ATOM     23  C   UNL     1      -1.363  -3.930  -5.562  0.00  0.00    +0.083 C 
BRANCH  23  24
ATOM     24  S   UNL     1      -1.153  -2.810  -6.974  0.00  0.00    -0.125 S 
BRANCH  24  25
ATOM     25  C   UNL     1      -1.295  -3.864  -8.379  0.00  0.00    +0.008 A 
ATOM     26  C   UNL     1      -1.525  -5.223  -8.207  0.00  0.00    +0.018 A 
ATOM     27  C   UNL     1      -1.637  -6.048  -9.309  0.00  0.00    +0.047 A 
ATOM     28  C   UNL     1      -1.519  -5.520 -10.586  0.00  0.00    +0.120 A 
ATOM     29  C   UNL     1      -1.290  -4.163 -10.758  0.00  0.00    +0.047 A 
ATOM     30  C   UNL     1      -1.184  -3.335  -9.658  0.00  0.00    +0.018 A 
BRANCH  28  31
ATOM     31  O   UNL     1      -1.629  -6.334 -11.671  0.00  0.00    -0.495 OA
ATOM     32  C   UNL     1      -1.498  -5.723 -12.956  0.00  0.00    +0.277 C 
ENDBRANCH  28  31
ENDBRANCH  24  25
ENDBRANCH  23  24
ENDBRANCH  22  23
ENDBRANCH  12  22
TORSDOF 10
