REMARK  Name = ZINC28357835
REMARK  8 active torsions:
REMARK  status: ('A' for Active; 'I' for Inactive)
REMARK    1  A    between atoms: C_1  and  C_2
REMARK    2  A    between atoms: C_2  and  C_3
REMARK    3  A    between atoms: C_2  and  C_4
REMARK    4  A    between atoms: C_9  and  S_10
REMARK    5  A    between atoms: S_10  and  C_11
REMARK    6  A    between atoms: C_14  and  C_21
REMARK    7  A    between atoms: C_16  and  C_17
REMARK    8  A    between atoms: N_30  and  C_33
REMARK                            x       y       z     vdW  Elec       q    Type
REMARK                         _______ _______ _______ _____ _____    ______ ____
ROOT
ATOM      1  C   UNL     1      -1.091   3.941   0.178  0.00  0.00    +0.024 A 
ATOM      2  C   UNL     1       0.254   4.298   0.158  0.00  0.00    +0.016 A 
ATOM      3  C   UNL     1       0.617   5.622   0.275  0.00  0.00    +0.009 A 
ATOM      4  C   UNL     1      -0.363   6.603   0.423  0.00  0.00    -0.017 A 
ATOM      5  C   UNL     1      -1.710   6.242   0.448  0.00  0.00    +0.022 A 
ATOM      6  C   UNL     1      -2.070   4.917   0.326  0.00  0.00    +0.069 A 
ENDROOT
BRANCH   4   7
ATOM      7  C   UNL     1       0.026   8.028   0.554  0.00  0.00    -0.013 A 
ATOM      8  C   UNL     1      -0.945   9.027   0.697  0.00  0.00    +0.026 A 
ATOM      9  C   UNL     1      -0.544  10.339   0.821  0.00  0.00    +0.085 A 
ATOM     10  N   UNL     1       0.736  10.665   0.796  0.00  0.00    -0.350 N 
ATOM     11  C   UNL     1       1.687   9.754   0.656  0.00  0.00    +0.099 A 
ATOM     12  C   UNL     1       1.368   8.408   0.531  0.00  0.00    +0.050 A 
ATOM     13  N   UNL     1       3.020  10.149   0.636  0.00  0.00    -0.314 N 
ATOM     14  C   UNL     1       3.792   9.454   1.675  0.00  0.00    +0.122 C 
ATOM     15  C   UNL     1       5.265   9.855   1.568  0.00  0.00    +0.103 C 
ATOM     16  N   UNL     1       5.384  11.313   1.714  0.00  0.00    -0.302 NA
ATOM     17  C   UNL     1       4.612  12.008   0.675  0.00  0.00    +0.103 C 
ATOM     18  C   UNL     1       3.139  11.607   0.782  0.00  0.00    +0.122 C 
ATOM     19  C   UNL     1       6.792  11.730   1.692  0.00  0.00    +0.105 C 
ATOM     20  H   UNL     1       1.037  11.718   0.892  0.00  0.00    +0.166 HD
ENDBRANCH   4   7
BRANCH   6  21
ATOM     21  C   UNL     1      -3.525   4.527   0.352  0.00  0.00    +0.418 C 
ATOM     22  F   UNL     1      -4.313   5.672   0.509  0.00  0.00    -0.166 F 
ATOM     23  F   UNL     1      -3.860   3.892  -0.849  0.00  0.00    -0.166 F 
ATOM     24  F   UNL     1      -3.754   3.653   1.421  0.00  0.00    -0.166 F 
ENDBRANCH   6  21
BRANCH   1  25
ATOM     25  S   UNL     1      -1.553   2.248   0.022  0.00  0.00    -0.089 S 
BRANCH  25  31
ATOM     26  C   UNL     1       0.650   1.179   1.244  0.00  0.00    -0.031 A 
ATOM     27  C   UNL     1       1.850   0.496   1.258  0.00  0.00    +0.005 A 
ATOM     28  C   UNL     1       2.386   0.014   0.078  0.00  0.00    +0.000 A 
ATOM     29  C   UNL     1       1.724   0.214  -1.120  0.00  0.00    +0.001 A 
ATOM     30  C   UNL     1       0.524   0.897  -1.141  0.00  0.00    +0.015 A 
ATOM     31  C   UNL     1      -0.018   1.383   0.043  0.00  0.00    +0.016 A 
BRANCH  26  33
ATOM     32  C   UNL     1      -0.185   0.538   3.490  0.00  0.00    +0.012 C 
ATOM     33  C   UNL     1       0.066   1.704   2.530  0.00  0.00    +0.014 C 
ATOM     34  C   UNL     1       1.045   2.690   3.171  0.00  0.00    +0.012 C 
ENDBRANCH  26  33
ENDBRANCH  25  31
ENDBRANCH   1  25
TORSDOF 5
