REMARK  Name = ZINC38959673
REMARK  13 active torsions:
REMARK  status: ('A' for Active; 'I' for Inactive)
REMARK    1  A    between atoms: C_1  and  C_2
REMARK    2  A    between atoms: C_8  and  C_14
REMARK    3  A    between atoms: C_14  and  N_15
REMARK    4  A    between atoms: N_15  and  C_16
REMARK    5  A    between atoms: C_20  and  O_22
REMARK    6  A    between atoms: O_22  and  C_23
REMARK    7  A    between atoms: C_24  and  C_26
REMARK    8  A    between atoms: C_28  and  O_36
REMARK    9  A    between atoms: C_29  and  O_34
REMARK   10  A    between atoms: C_30  and  O_32
REMARK   11  A    between atoms: O_32  and  C_33
REMARK   12  A    between atoms: O_34  and  C_35
REMARK   13  A    between atoms: O_36  and  C_37
REMARK                            x       y       z     vdW  Elec       q    Type
REMARK                         _______ _______ _______ _____ _____    ______ ____
ROOT
ATOM      1  N   UNL     1       2.680  -4.331   6.821  0.00  0.00    -0.266 N 
ATOM      2  C   UNL     1       3.061  -3.481   5.847  0.00  0.00    +0.251 C 
ATOM      3  O   UNL     1       3.408  -2.350   6.129  0.00  0.00    -0.270 OA
ENDROOT
BRANCH   1   4
ATOM      4  C   UNL     1       2.814  -3.962   8.163  0.00  0.00    +0.040 A 
ATOM      5  C   UNL     1       3.080  -4.927   9.127  0.00  0.00    +0.024 A 
ATOM      6  C   UNL     1       3.213  -4.562  10.453  0.00  0.00    +0.005 A 
ATOM      7  C   UNL     1       3.082  -3.238  10.824  0.00  0.00    +0.046 A 
ATOM      8  C   UNL     1       2.817  -2.269   9.866  0.00  0.00    +0.122 A 
ATOM      9  C   UNL     1       2.688  -2.630   8.534  0.00  0.00    +0.069 A 
BRANCH   8  10
ATOM     10  O   UNL     1       2.689  -0.967  10.233  0.00  0.00    -0.495 OA
ATOM     11  C   UNL     1       2.947  -0.650  11.602  0.00  0.00    +0.277 C 
ENDBRANCH   8  10
ENDBRANCH   1   4
BRANCH   2  12
ATOM     12  C   UNL     1       3.057  -3.922   4.439  0.00  0.00    +0.044 A 
ATOM     13  C   UNL     1       1.957  -4.614   3.925  0.00  0.00    +0.062 A 
ATOM     14  C   UNL     1       1.956  -5.026   2.606  0.00  0.00    +0.166 A 
ATOM     15  C   UNL     1       3.050  -4.754   1.790  0.00  0.00    +0.204 A 
ATOM     16  C   UNL     1       4.148  -4.065   2.299  0.00  0.00    +0.166 A 
ATOM     17  C   UNL     1       4.152  -3.645   3.616  0.00  0.00    +0.062 A 
BRANCH  16  18
ATOM     18  O   UNL     1       5.215  -3.801   1.499  0.00  0.00    -0.491 OA
ATOM     19  C   UNL     1       6.307  -3.091   2.087  0.00  0.00    +0.277 C 
ENDBRANCH  16  18
BRANCH  15  20
ATOM     20  O   UNL     1       3.047  -5.161   0.493  0.00  0.00    -0.488 OA
ATOM     21  C   UNL     1       2.513  -4.252  -0.471  0.00  0.00    +0.277 C 
ENDBRANCH  15  20
BRANCH  14  22
ATOM     22  O   UNL     1       0.885  -5.699   2.106  0.00  0.00    -0.491 OA
ATOM     23  C   UNL     1      -0.055  -6.217   3.049  0.00  0.00    +0.277 C 
ENDBRANCH  14  22
ENDBRANCH   2  12
BRANCH   1  24
ATOM     24  C   UNL     1       2.124  -5.641   6.474  0.00  0.00    +0.131 C 
BRANCH  24  32
ATOM     25  C   UNL     1      -3.824  -4.206   5.991  0.00  0.00    +0.045 C 
ATOM     26  C   UNL     1      -3.107  -5.529   5.911  0.00  0.00    -0.029 A 
ATOM     27  C   UNL     1      -3.744  -6.611   5.390  0.00  0.00    +0.005 A 
ATOM     28  C   UNL     1      -3.139  -7.863   5.287  0.00  0.00    +0.001 A 
ATOM     29  C   UNL     1      -1.865  -8.070   5.708  0.00  0.00    +0.009 A 
ATOM     30  C   UNL     1      -1.120  -6.948   6.280  0.00  0.00    -0.007 A 
ATOM     31  C   UNL     1       0.162  -7.109   6.715  0.00  0.00    -0.003 C 
ATOM     32  C   UNL     1       0.857  -5.891   7.294  0.00  0.00    +0.116 C 
ATOM     33  C   UNL     1       0.073  -4.600   7.340  0.00  0.00    +0.226 C 
ATOM     34  O   UNL     1       0.582  -3.592   7.794  0.00  0.00    -0.275 OA
ATOM     35  N   UNL     1      -1.169  -4.569   6.886  0.00  0.00    -0.284 N 
ATOM     36  C   UNL     1      -1.782  -5.635   6.372  0.00  0.00    +0.043 A 
ATOM     37  H   UNL     1      -1.655  -3.730   6.925  0.00  0.00    +0.155 HD
ENDBRANCH  24  32
ENDBRANCH   1  24
TORSDOF 8
