REMARK  Name = ZINC03841351
REMARK  5 active torsions:
REMARK  status: ('A' for Active; 'I' for Inactive)
REMARK    1  A    between atoms: C_6  and  S_7
REMARK    2  A    between atoms: S_7  and  N_10
REMARK    3  A    between atoms: N_10  and  C_11
REMARK    4  A    between atoms: C_26  and  C_27
REMARK    5  A    between atoms: C_26  and  N_62
REMARK                            x       y       z     vdW  Elec       q    Type
REMARK                         _______ _______ _______ _____ _____    ______ ____
ROOT
ATOM      1  C   UNL     1      -1.073   1.391  -0.846  0.00  0.00    +0.112 A 
ATOM      2  C   UNL     1      -0.825   2.497  -1.611  0.00  0.00    +0.031 A 
ATOM      3  C   UNL     1       0.434   3.105  -1.534  0.00  0.00    +0.023 A 
ATOM      4  C   UNL     1       1.397   2.597  -0.723  0.00  0.00    +0.023 A 
ATOM      5  N   UNL     1       1.184   1.450  -0.031  0.00  0.00    -0.310 N 
ATOM      6  C   UNL     1      -0.050   0.890  -0.017  0.00  0.00    +0.274 A 
ATOM      7  O   UNL     1      -0.276  -0.059   0.718  0.00  0.00    -0.266 OA
ATOM      8  C   UNL     1       2.248   0.736   0.675  0.00  0.00    +0.127 C 
ATOM      9  C   UNL     1       3.431   1.635   0.995  0.00  0.00    -0.007 C 
ATOM     10  C   UNL     1       3.828   2.422  -0.257  0.00  0.00    +0.011 C 
ATOM     11  C   UNL     1       2.680   3.385  -0.584  0.00  0.00    +0.020 C 
ATOM     12  C   UNL     1       2.509   4.343   0.605  0.00  0.00    -0.069 C 
ATOM     13  C   UNL     1       3.125   2.580   2.149  0.00  0.00    -0.074 C 
ATOM     14  N   UNL     1       2.068   3.538   1.766  0.00  0.00    +0.381 N 
ATOM     15  H   UNL     1       1.222   3.016   1.507  0.00  0.00    -0.082 HD
ENDROOT
BRANCH   1  16
ATOM     16  N   UNL     1      -2.326   0.767  -0.883  0.00  0.00    -0.211 N 
ATOM     17  H   UNL     1      -2.474  -0.055  -0.390  0.00  0.00    +0.174 HD
BRANCH  16  18
ATOM     18  S   UNL     1      -3.557   1.434  -1.768  0.00  0.00    +0.072 S 
ATOM     19  O   UNL     1      -3.008   1.779  -3.032  0.00  0.00    -0.150 OA
ATOM     20  O   UNL     1      -4.672   0.564  -1.633  0.00  0.00    -0.150 OA
BRANCH  18  26
ATOM     21  C   UNL     1      -4.900   2.943   0.068  0.00  0.00    +0.030 A 
ATOM     22  C   UNL     1      -5.245   4.129   0.688  0.00  0.00    +0.022 A 
ATOM     23  C   UNL     1      -4.700   5.323   0.249  0.00  0.00    +0.041 A 
ATOM     24  C   UNL     1      -3.806   5.327  -0.807  0.00  0.00    +0.022 A 
ATOM     25  C   UNL     1      -3.457   4.140  -1.422  0.00  0.00    +0.030 A 
ATOM     26  C   UNL     1      -4.002   2.948  -0.983  0.00  0.00    +0.109 A 
ATOM     27 CL   UNL     1      -5.138   6.814   1.023  0.00  0.00    -0.084 Cl
ENDBRANCH  18  26
ENDBRANCH  16  18
ENDBRANCH   1  16
BRANCH  14  28
ATOM     28  C   UNL     1       1.754   4.423   2.906  0.00  0.00    -0.075 C 
BRANCH  28  29
ATOM     29  C   UNL     1       3.009   5.163   3.374  0.00  0.00    -0.028 C 
ATOM     30  C   UNL     1       2.935   5.386   4.886  0.00  0.00    +0.002 C 
ATOM     31  C   UNL     1       4.190   6.125   5.354  0.00  0.00    +0.000 C 
ATOM     32  C   UNL     1       4.281   7.477   4.644  0.00  0.00    +0.000 C 
ATOM     33  C   UNL     1       4.354   7.254   3.132  0.00  0.00    +0.000 C 
ATOM     34  C   UNL     1       3.099   6.515   2.663  0.00  0.00    +0.002 C 
ENDBRANCH  28  29
ENDBRANCH  14  28
TORSDOF 5
