REMARK  Name = ZINC19333503
REMARK  6 active torsions:
REMARK  status: ('A' for Active; 'I' for Inactive)
REMARK    1  A    between atoms: C_6  and  C_7
REMARK    2  A    between atoms: C_7  and  N_8
REMARK    3  A    between atoms: N_11  and  C_23
REMARK    4  A    between atoms: C_12  and  C_13
REMARK    5  A    between atoms: C_15  and  N_20
REMARK    6  A    between atoms: C_23  and  C_24
REMARK                            x       y       z     vdW  Elec       q    Type
REMARK                         _______ _______ _______ _____ _____    ______ ____
ROOT
ATOM      1  N   UNL     1      -1.581  -1.034  -1.592  0.00  0.00    +0.376 N 
ATOM      2  C   UNL     1      -0.756  -2.073  -2.264  0.00  0.00    -0.099 C 
ATOM      3  C   UNL     1      -1.784  -2.748  -3.205  0.00  0.00    -0.099 C 
ATOM      4  N   UNL     1      -3.037  -2.739  -2.413  0.00  0.00    +0.376 N 
ATOM      5  C   UNL     1      -2.903  -1.671  -1.405  0.00  0.00    -0.095 C 
ATOM      6  H   UNL     1      -1.665  -0.216  -2.177  0.00  0.00    -0.083 HD
ATOM      7  H   UNL     1      -3.161  -3.631  -1.956  0.00  0.00    -0.083 HD
ENDROOT
BRANCH   5   8
ATOM      8  C   UNL     1      -3.994  -0.650  -1.595  0.00  0.00    -0.028 A 
ATOM      9  C   UNL     1      -3.773   0.458  -2.391  0.00  0.00    +0.036 A 
ATOM     10  C   UNL     1      -4.774   1.395  -2.566  0.00  0.00    +0.127 A 
ATOM     11  C   UNL     1      -5.998   1.228  -1.946  0.00  0.00    +0.036 A 
ATOM     12  C   UNL     1      -6.224   0.122  -1.149  0.00  0.00    +0.053 A 
ATOM     13  C   UNL     1      -5.223  -0.823  -0.977  0.00  0.00    +0.179 A 
ATOM     14  O   UNL     1      -5.445  -1.915  -0.198  0.00  0.00    -0.288 OA
BRANCH  10  15
ATOM     15  N   UNL     1      -4.534   2.581  -3.419  0.00  0.00    +0.056 N 
ATOM     16  O   UNL     1      -3.463   2.729  -3.961  0.00  0.00    -0.126 OA
ATOM     17  O   UNL     1      -5.408   3.402  -3.573  0.00  0.00    -0.126 OA
ENDBRANCH  10  15
ENDBRANCH   5   8
BRANCH   1  18
ATOM     18  C   UNL     1      -0.997  -0.676  -0.292  0.00  0.00    -0.045 C 
BRANCH  18  24
ATOM     19  C   UNL     1       0.241   1.476  -0.614  0.00  0.00    +0.003 A 
ATOM     20  C   UNL     1       1.410   2.185  -0.814  0.00  0.00    +0.020 A 
ATOM     21  C   UNL     1       2.617   1.516  -0.913  0.00  0.00    +0.041 A 
ATOM     22  C   UNL     1       2.653   0.137  -0.810  0.00  0.00    +0.020 A 
ATOM     23  C   UNL     1       1.484  -0.572  -0.609  0.00  0.00    +0.003 A 
ATOM     24  C   UNL     1       0.278   0.097  -0.511  0.00  0.00    -0.064 A 
ATOM     25 CL   UNL     1       4.086   2.407  -1.165  0.00  0.00    -0.084 Cl
ENDBRANCH  18  24
ENDBRANCH   1  18
BRANCH   4  26
ATOM     26  C   UNL     1      -4.182  -2.459  -3.291  0.00  0.00    -0.045 C 
BRANCH  26  27
ATOM     27  C   UNL     1      -4.345  -3.584  -4.279  0.00  0.00    -0.064 A 
ATOM     28  C   UNL     1      -3.690  -3.536  -5.495  0.00  0.00    +0.003 A 
ATOM     29  C   UNL     1      -3.839  -4.568  -6.403  0.00  0.00    +0.020 A 
ATOM     30  C   UNL     1      -4.644  -5.650  -6.093  0.00  0.00    +0.041 A 
ATOM     31  C   UNL     1      -5.299  -5.698  -4.875  0.00  0.00    +0.020 A 
ATOM     32  C   UNL     1      -5.145  -4.667  -3.967  0.00  0.00    +0.003 A 
ATOM     33 CL   UNL     1      -4.833  -6.946  -7.232  0.00  0.00    -0.084 Cl
ENDBRANCH  26  27
ENDBRANCH   4  26
TORSDOF 6
