REMARK  Name = ZINC08798610
REMARK  13 active torsions:
REMARK  status: ('A' for Active; 'I' for Inactive)
REMARK    1  A    between atoms: C_1  and  C_2
REMARK    2  A    between atoms: C_2  and  N_3
REMARK    3  A    between atoms: C_5  and  O_35
REMARK    4  A    between atoms: C_8  and  O_33
REMARK    5  A    between atoms: N_12  and  C_13
REMARK    6  A    between atoms: C_13  and  C_15
REMARK    7  A    between atoms: C_18  and  S_21
REMARK    8  A    between atoms: S_21  and  N_24
REMARK    9  A    between atoms: N_24  and  C_25
REMARK   10  A    between atoms: N_24  and  C_27
REMARK   11  A    between atoms: C_25  and  C_26
REMARK   12  A    between atoms: O_33  and  C_34
REMARK   13  A    between atoms: O_35  and  C_36
REMARK                            x       y       z     vdW  Elec       q    Type
REMARK                         _______ _______ _______ _____ _____    ______ ____
ROOT
ATOM      1  C   UNL     1      -0.153   1.089  -1.327  0.00  0.00    +0.269 C 
ATOM      2  O   UNL     1      -1.140   1.803  -1.273  0.00  0.00    -0.268 OA
ENDROOT
BRANCH   1  12
ATOM      3  N   UNL     1       2.342   3.688  -1.513  0.00  0.00    -0.318 N 
ATOM      4  C   UNL     1       2.283   5.071  -1.521  0.00  0.00    +0.103 A 
ATOM      5  C   UNL     1       3.348   5.990  -1.599  0.00  0.00    +0.145 A 
ATOM      6  C   UNL     1       3.109   7.347  -1.594  0.00  0.00    +0.051 A 
ATOM      7  C   UNL     1       1.820   7.848  -1.513  0.00  0.00    +0.050 A 
ATOM      8  C   UNL     1       0.753   6.965  -1.436  0.00  0.00    +0.136 A 
ATOM      9  C   UNL     1       0.992   5.606  -1.440  0.00  0.00    +0.084 A 
ATOM     10  S   UNL     1      -0.043   4.167  -1.367  0.00  0.00    -0.048 S 
ATOM     11  C   UNL     1       1.198   2.958  -1.431  0.00  0.00    +0.167 A 
ATOM     12  N   UNL     1       1.063   1.635  -1.412  0.00  0.00    -0.152 NA
BRANCH   3  14
ATOM     13  C   UNL     1       3.607   1.745  -0.733  0.00  0.00    +0.027 C 
ATOM     14  C   UNL     1       3.639   3.010  -1.592  0.00  0.00    +0.121 C 
ENDBRANCH   3  14
BRANCH   8  15
ATOM     15  O   UNL     1      -0.521   7.436  -1.355  0.00  0.00    -0.494 OA
ATOM     16  C   UNL     1      -0.689   8.855  -1.356  0.00  0.00    +0.277 C 
ENDBRANCH   8  15
BRANCH   5  17
ATOM     17  O   UNL     1       4.627   5.532  -1.680  0.00  0.00    -0.493 OA
ATOM     18  C   UNL     1       5.663   6.513  -1.758  0.00  0.00    +0.277 C 
ENDBRANCH   5  17
ENDBRANCH   1  12
BRANCH   1  19
ATOM     19  C   UNL     1      -0.304  -0.385  -1.305  0.00  0.00    +0.039 A 
ATOM     20  C   UNL     1       0.822  -1.204  -1.379  0.00  0.00    +0.015 A 
ATOM     21  C   UNL     1       0.676  -2.576  -1.353  0.00  0.00    +0.029 A 
ATOM     22  C   UNL     1      -0.585  -3.139  -1.265  0.00  0.00    +0.109 A 
ATOM     23  C   UNL     1      -1.706  -2.331  -1.197  0.00  0.00    +0.029 A 
ATOM     24  C   UNL     1      -1.572  -0.958  -1.217  0.00  0.00    +0.015 A 
BRANCH  22  25
ATOM     25  S   UNL     1      -0.763  -4.892  -1.238  0.00  0.00    +0.075 S 
ATOM     26  O   UNL     1       0.468  -5.418  -0.764  0.00  0.00    -0.150 OA
ATOM     27  O   UNL     1      -2.004  -5.164  -0.602  0.00  0.00    -0.150 OA
BRANCH  25  28
ATOM     28  N   UNL     1      -0.918  -5.392  -2.810  0.00  0.00    -0.203 N 
BRANCH  28  29
ATOM     29  C   UNL     1      -2.187  -5.574  -3.363  0.00  0.00    +0.051 A 
ATOM     30  C   UNL     1      -2.601  -4.788  -4.430  0.00  0.00    +0.025 A 
ATOM     31  C   UNL     1      -3.855  -4.974  -4.978  0.00  0.00    +0.002 A 
ATOM     32  C   UNL     1      -4.703  -5.936  -4.458  0.00  0.00    +0.000 A 
ATOM     33  C   UNL     1      -4.296  -6.717  -3.392  0.00  0.00    +0.002 A 
ATOM     34  C   UNL     1      -3.041  -6.539  -2.843  0.00  0.00    +0.025 A 
ENDBRANCH  28  29
BRANCH  28  35
ATOM     35  C   UNL     1       0.277  -5.643  -3.619  0.00  0.00    +0.128 C 
ATOM     36  C   UNL     1       0.627  -7.131  -3.563  0.00  0.00    +0.026 C 
ENDBRANCH  28  35
ENDBRANCH  25  28
ENDBRANCH  22  25
ENDBRANCH   1  19
TORSDOF 9
