REMARK  Name = ZINC27520363
REMARK  10 active torsions:
REMARK  status: ('A' for Active; 'I' for Inactive)
REMARK    1  A    between atoms: C_1  and  C_2
REMARK    2  A    between atoms: C_2  and  O_3
REMARK    3  A    between atoms: O_3  and  C_4
REMARK    4  A    between atoms: C_4  and  C_6
REMARK    5  A    between atoms: C_10  and  N_11
REMARK    6  A    between atoms: C_13  and  C_23
REMARK    7  A    between atoms: C_18  and  O_22
REMARK    8  A    between atoms: N_25  and  C_26
REMARK    9  A    between atoms: C_29  and  O_32
REMARK   10  A    between atoms: O_32  and  C_33
REMARK                            x       y       z     vdW  Elec       q    Type
REMARK                         _______ _______ _______ _____ _____    ______ ____
ROOT
ATOM      1  N   UNL     1      -2.345  -0.306  -3.768  0.00  0.00    -0.319 N 
ATOM      2  C   UNL     1      -3.305  -0.873  -4.476  0.00  0.00    +0.212 A 
ATOM      3  C   UNL     1      -3.884  -2.168  -4.076  0.00  0.00    +0.098 A 
ATOM      4  C   UNL     1      -5.181  -2.444  -4.492  0.00  0.00    +0.030 A 
ATOM      5  C   UNL     1      -5.845  -1.481  -5.292  0.00  0.00    +0.018 A 
ATOM      6  C   UNL     1      -7.211  -1.620  -5.584  0.00  0.00    +0.015 A 
ATOM      7  C   UNL     1      -7.846  -0.670  -6.329  0.00  0.00    +0.046 A 
ATOM      8  C   UNL     1      -7.146   0.433  -6.814  0.00  0.00    +0.120 A 
ATOM      9  C   UNL     1      -5.790   0.574  -6.559  0.00  0.00    +0.092 A 
ATOM     10  C   UNL     1      -5.127  -0.385  -5.811  0.00  0.00    +0.141 A 
ATOM     11  O   UNL     1      -3.797  -0.281  -5.593  0.00  0.00    -0.438 OA
ATOM     12  H   UNL     1      -1.964  -0.801  -2.862  0.00  0.00    +0.169 HD
ENDROOT
BRANCH   1  17
ATOM     13  C   UNL     1      -0.822   1.639  -3.551  0.00  0.00    +0.093 A 
ATOM     14  C   UNL     1      -0.461   2.897  -4.182  0.00  0.00    -0.021 A 
ATOM     15  C   UNL     1      -1.133   3.216  -5.310  0.00  0.00    -0.004 A 
ATOM     16  S   UNL     1      -2.267   1.878  -5.566  0.00  0.00    -0.075 S 
ATOM     17  C   UNL     1      -1.833   0.878  -4.154  0.00  0.00    +0.095 A 
ATOM     18  C   UNL     1      -0.958   4.442  -6.153  0.00  0.00    +0.043 C 
ATOM     19  C   UNL     1      -0.161   5.478  -5.342  0.00  0.00    +0.005 C 
ATOM     20  C   UNL     1       1.061   4.782  -4.735  0.00  0.00    +0.005 C 
ATOM     21  C   UNL     1       0.617   3.825  -3.629  0.00  0.00    +0.037 C 
BRANCH  13  22
ATOM     22  C   UNL     1      -0.180   1.200  -2.365  0.00  0.00    +0.342 C 
ATOM     23  O   UNL     1       0.820   0.510  -2.435  0.00  0.00    -0.245 OA
BRANCH  22  24
ATOM     24  O   UNL     1      -0.677   1.549  -1.160  0.00  0.00    -0.461 OA
BRANCH  24  26
ATOM     25  C   UNL     1      -0.685   1.564   1.257  0.00  0.00    +0.048 C 
ATOM     26  C   UNL     1       0.021   1.071  -0.008  0.00  0.00    +0.229 C 
ENDBRANCH  24  26
ENDBRANCH  22  24
ENDBRANCH  13  22
ENDBRANCH   1  17
BRANCH   3  27
ATOM     27  C   UNL     1      -3.118  -3.132  -3.268  0.00  0.00    +0.253 C 
ATOM     28  O   UNL     1      -1.984  -2.866  -2.917  0.00  0.00    -0.270 OA
ATOM     29  N   UNL     1      -3.674  -4.309  -2.917  0.00  0.00    -0.281 N 
ATOM     30  H   UNL     1      -4.724  -4.518  -3.169  0.00  0.00    +0.155 HD
BRANCH  29  31
ATOM     31  C   UNL     1      -2.914  -5.265  -2.232  0.00  0.00    +0.034 A 
ATOM     32  C   UNL     1      -3.119  -6.617  -2.474  0.00  0.00    +0.027 A 
ATOM     33  C   UNL     1      -2.366  -7.560  -1.801  0.00  0.00    +0.047 A 
ATOM     34  C   UNL     1      -1.413  -7.156  -0.878  0.00  0.00    +0.120 A 
ATOM     35  C   UNL     1      -1.212  -5.806  -0.632  0.00  0.00    +0.047 A 
ATOM     36  C   UNL     1      -1.960  -4.862  -1.308  0.00  0.00    +0.027 A 
BRANCH  34  37
ATOM     37  O   UNL     1      -0.675  -8.085  -0.212  0.00  0.00    -0.495 OA
ATOM     38  C   UNL     1      -0.935  -9.457  -0.514  0.00  0.00    +0.277 C 
ENDBRANCH  34  37
ENDBRANCH  29  31
ENDBRANCH   3  27
BRANCH   8  39
ATOM     39  O   UNL     1      -7.795   1.377  -7.542  0.00  0.00    -0.507 OA
ATOM     40  H   UNL     1      -7.246   2.249  -7.926  0.00  0.00    +0.292 HD
ENDBRANCH   8  39
TORSDOF 8
