REMARK  Name = ZINC13032193
REMARK  15 active torsions:
REMARK  status: ('A' for Active; 'I' for Inactive)
REMARK    1  A    between atoms: C_1  and  C_2
REMARK    2  A    between atoms: C_2  and  C_3
REMARK    3  A    between atoms: C_3  and  C_4
REMARK    4  A    between atoms: C_3  and  C_5
REMARK    5  A    between atoms: C_3  and  N_6
REMARK    6  A    between atoms: C_7  and  C_9
REMARK    7  A    between atoms: C_9  and  C_11
REMARK    8  A    between atoms: C_9  and  N_17
REMARK    9  A    between atoms: C_14  and  C_16
REMARK   10  A    between atoms: N_17  and  C_18
REMARK   11  A    between atoms: C_23  and  O_24
REMARK   12  A    between atoms: O_24  and  C_25
REMARK   13  A    between atoms: C_25  and  C_26
REMARK   14  A    between atoms: C_27  and  C_29
REMARK   15  A    between atoms: C_29  and  N_30
REMARK                            x       y       z     vdW  Elec       q    Type
REMARK                         _______ _______ _______ _____ _____    ______ ____
ROOT
ATOM      1  N   UNL     1      -4.728   3.744  -2.568  0.00  0.00    -0.247 N 
ATOM      2  C   UNL     1      -3.656   3.872  -3.375  0.00  0.00    +0.242 C 
ATOM      3  O   UNL     1      -3.811   4.086  -4.559  0.00  0.00    -0.273 OA
ENDROOT
BRANCH   1   4
ATOM      4  C   UNL     1      -4.549   3.497  -1.200  0.00  0.00    +0.079 A 
ATOM      5  C   UNL     1      -4.419   2.195  -0.740  0.00  0.00    +0.027 A 
ATOM      6  C   UNL     1      -4.242   1.954   0.610  0.00  0.00    +0.002 A 
ATOM      7  C   UNL     1      -4.194   3.008   1.503  0.00  0.00    +0.004 A 
ATOM      8  C   UNL     1      -4.322   4.308   1.052  0.00  0.00    +0.047 A 
ATOM      9  C   UNL     1      -4.495   4.558  -0.300  0.00  0.00    +0.142 A 
BRANCH   9  10
ATOM     10  O   UNL     1      -4.616   5.837  -0.746  0.00  0.00    -0.490 OA
BRANCH  10  11
ATOM     11  C   UNL     1      -4.433   6.880   0.214  0.00  0.00    +0.226 C 
ATOM     12  C   UNL     1      -4.481   8.236  -0.491  0.00  0.00    +0.048 C 
ENDBRANCH  10  11
ENDBRANCH   9  10
ENDBRANCH   1   4
BRANCH   1  13
ATOM     13  C   UNL     1      -6.079   3.862  -3.120  0.00  0.00    +0.233 C 
BRANCH  13  14
ATOM     14  C   UNL     1      -6.858   4.882  -2.330  0.00  0.00    +0.135 A 
ATOM     15  C   UNL     1      -7.522   5.934  -2.841  0.00  0.00    +0.047 A 
ATOM     16  C   UNL     1      -8.104   6.620  -1.751  0.00  0.00    +0.045 A 
ATOM     17  C   UNL     1      -7.761   5.946  -0.638  0.00  0.00    +0.102 A 
ATOM     18  O   UNL     1      -7.011   4.891  -0.995  0.00  0.00    -0.462 OA
ATOM     19  C   UNL     1      -8.157   6.310   0.769  0.00  0.00    +0.086 C 
ENDBRANCH  13  14
BRANCH  13  21
ATOM     20  N   UNL     1      -7.732   2.210  -3.932  0.00  0.00    -0.308 N 
ATOM     21  C   UNL     1      -6.774   2.526  -3.039  0.00  0.00    +0.242 C 
ATOM     22  O   UNL     1      -6.470   1.737  -2.170  0.00  0.00    -0.273 OA
ATOM     23  H   UNL     1      -7.976   2.842  -4.627  0.00  0.00    +0.149 HD
BRANCH  20  24
ATOM     24  C   UNL     1      -8.407   0.912  -3.852  0.00  0.00    +0.029 C 
ATOM     25  C   UNL     1      -7.377  -0.209  -4.004  0.00  0.00    +0.031 C 
ATOM     26  C   UNL     1      -9.107   0.783  -2.498  0.00  0.00    +0.031 C 
BRANCH  24  28
ATOM     27  C   UNL     1     -10.149  -0.548  -4.891  0.00  0.00    +0.006 C 
ATOM     28  C   UNL     1      -9.444   0.807  -4.973  0.00  0.00    +0.022 C 
ENDBRANCH  24  28
ENDBRANCH  20  24
ENDBRANCH  13  21
ENDBRANCH   1  13
BRANCH   2  29
ATOM     29  C   UNL     1      -2.266   3.751  -2.807  0.00  0.00    +0.242 C 
BRANCH  29  30
ATOM     30  N   UNL     1      -1.283   3.928  -3.879  0.00  0.00    -0.235 N 
ATOM     31  C   UNL     1      -0.747   2.944  -4.675  0.00  0.00    +0.090 A 
ATOM     32  C   UNL     1      -0.920   1.566  -4.756  0.00  0.00    +0.029 A 
ATOM     33  C   UNL     1      -0.217   0.847  -5.681  0.00  0.00    +0.002 A 
ATOM     34  C   UNL     1       0.664   1.480  -6.549  0.00  0.00    +0.002 A 
ATOM     35  C   UNL     1       0.848   2.831  -6.492  0.00  0.00    +0.032 A 
ATOM     36  C   UNL     1       0.142   3.591  -5.550  0.00  0.00    +0.113 A 
ATOM     37  N   UNL     1       0.115   4.907  -5.261  0.00  0.00    -0.129 NA
ATOM     38  N   UNL     1      -0.704   5.136  -4.295  0.00  0.00    -0.064 NA
ENDBRANCH  29  30
ENDBRANCH   2  29
TORSDOF 10
