REMARK  Name = ZINC03035539
REMARK  9 active torsions:
REMARK  status: ('A' for Active; 'I' for Inactive)
REMARK    1  A    between atoms: C_1  and  C_2
REMARK    2  A    between atoms: C_4  and  C_27
REMARK    3  A    between atoms: C_5  and  C_9
REMARK    4  A    between atoms: C_6  and  C_8
REMARK    5  A    between atoms: C_9  and  C_10
REMARK    6  A    between atoms: C_11  and  C_26
REMARK    7  A    between atoms: C_14  and  C_20
REMARK    8  A    between atoms: C_18  and  C_19
REMARK    9  A    between atoms: N_22  and  C_23
REMARK                            x       y       z     vdW  Elec       q    Type
REMARK                         _______ _______ _______ _____ _____    ______ ____
ROOT
ATOM      1  C   UNL     1       0.710  -1.865  -1.266  0.00  0.00    -0.001 A 
ATOM      2  C   UNL     1      -0.378  -1.841  -2.147  0.00  0.00    +0.046 A 
ATOM      3  N   UNL     1      -0.644  -2.891  -2.893  0.00  0.00    -0.232 NA
ATOM      4  C   UNL     1       0.105  -3.992  -2.818  0.00  0.00    +0.168 A 
ATOM      5  C   UNL     1       0.043  -5.232  -3.483  0.00  0.00    +0.100 A 
ATOM      6  C   UNL     1       1.103  -6.013  -2.991  0.00  0.00    +0.150 A 
ATOM      7  N   UNL     1       1.761  -5.317  -2.102  0.00  0.00    -0.172 NA
ATOM      8  N   UNL     1       1.171  -4.056  -1.967  0.00  0.00    -0.218 N 
ATOM      9  C   UNL     1       1.476  -2.982  -1.184  0.00  0.00    +0.047 A 
ATOM     10  C   UNL     1       2.649  -3.035  -0.239  0.00  0.00    +0.066 C 
ATOM     11  C   UNL     1      -1.241  -0.610  -2.244  0.00  0.00    +0.066 C 
ENDROOT
BRANCH   5  12
ATOM     12  C   UNL     1      -0.941  -5.632  -4.493  0.00  0.00    +0.249 C 
ATOM     13  O   UNL     1      -1.815  -4.856  -4.832  0.00  0.00    -0.270 OA
ATOM     14  N   UNL     1      -0.877  -6.859  -5.048  0.00  0.00    -0.308 N 
ATOM     15  H   UNL     1      -0.180  -7.477  -4.777  0.00  0.00    +0.149 HD
BRANCH  14  16
ATOM     16  C   UNL     1      -1.860  -7.258  -6.058  0.00  0.00    +0.073 C 
ATOM     17  C   UNL     1      -2.459  -8.661  -5.944  0.00  0.00    +0.024 C 
ATOM     18  C   UNL     1      -1.449  -8.347  -7.051  0.00  0.00    +0.024 C 
ENDBRANCH  14  16
ENDBRANCH   5  12
BRANCH   1  19
ATOM     19  C   UNL     1       1.023  -0.663  -0.412  0.00  0.00    +0.074 C 
BRANCH  19  24
ATOM     20  C   UNL     1       6.366   1.196  -1.589  0.00  0.00    +0.044 C 
ATOM     21  C   UNL     1       4.973   0.712  -1.282  0.00  0.00    -0.050 A 
ATOM     22  C   UNL     1       3.991   0.771  -2.253  0.00  0.00    +0.007 A 
ATOM     23  C   UNL     1       2.712   0.327  -1.971  0.00  0.00    -0.046 A 
ATOM     24  C   UNL     1       2.416  -0.178  -0.719  0.00  0.00    -0.037 A 
ATOM     25  C   UNL     1       3.398  -0.238   0.252  0.00  0.00    -0.046 A 
ATOM     26  C   UNL     1       4.676   0.207  -0.029  0.00  0.00    +0.007 A 
ATOM     27  C   UNL     1       3.075  -0.787   1.618  0.00  0.00    +0.044 C 
ATOM     28  C   UNL     1       1.642   0.392  -3.030  0.00  0.00    +0.044 C 
ENDBRANCH  19  24
ENDBRANCH   1  19
TORSDOF 4
