REMARK  Name = ZINC08929429
REMARK  12 active torsions:
REMARK  status: ('A' for Active; 'I' for Inactive)
REMARK    1  A    between atoms: C_1  and  C_2
REMARK    2  A    between atoms: C_2  and  C_3
REMARK    3  A    between atoms: C_2  and  C_4
REMARK    4  A    between atoms: C_4  and  C_6
REMARK    5  A    between atoms: C_4  and  S_12
REMARK    6  A    between atoms: S_12  and  C_13
REMARK    7  A    between atoms: C_16  and  C_23
REMARK    8  A    between atoms: N_17  and  C_18
REMARK    9  A    between atoms: C_26  and  C_29
REMARK   10  A    between atoms: C_29  and  C_30
REMARK   11  A    between atoms: C_29  and  C_31
REMARK   12  A    between atoms: C_29  and  C_32
REMARK                            x       y       z     vdW  Elec       q    Type
REMARK                         _______ _______ _______ _____ _____    ______ ____
ROOT
ATOM      1  C   UNL     1      -1.610  -0.944  -2.606  0.00  0.00    +0.193 A 
ATOM      2  N   UNL     1      -2.099  -1.375  -1.464  0.00  0.00    -0.122 NA
ATOM      3  N   UNL     1      -3.332  -1.709  -1.610  0.00  0.00    -0.128 NA
ATOM      4  C   UNL     1      -3.702  -1.521  -2.855  0.00  0.00    +0.165 A 
ATOM      5  N   UNL     1      -2.611  -1.026  -3.531  0.00  0.00    -0.299 N 
ENDROOT
BRANCH   4   6
ATOM      6  C   UNL     1      -5.040  -1.791  -3.424  0.00  0.00    +0.019 A 
ATOM      7  C   UNL     1      -5.529  -1.005  -4.469  0.00  0.00    +0.012 A 
ATOM      8  C   UNL     1      -6.776  -1.265  -4.998  0.00  0.00    +0.005 A 
ATOM      9  C   UNL     1      -7.546  -2.296  -4.489  0.00  0.00    -0.042 A 
ATOM     10  C   UNL     1      -7.069  -3.076  -3.450  0.00  0.00    +0.005 A 
ATOM     11  C   UNL     1      -5.821  -2.829  -2.915  0.00  0.00    +0.012 A 
BRANCH   9  12
ATOM     12  C   UNL     1      -8.910  -2.570  -5.067  0.00  0.00    -0.013 C 
ATOM     13  C   UNL     1      -9.968  -2.419  -3.973  0.00  0.00    +0.015 C 
ATOM     14  C   UNL     1      -9.195  -1.575  -6.194  0.00  0.00    +0.015 C 
ATOM     15  C   UNL     1      -8.951  -3.995  -5.623  0.00  0.00    +0.015 C 
ENDBRANCH   9  12
ENDBRANCH   4   6
BRANCH   5  16
ATOM     16  C   UNL     1      -2.538  -0.661  -4.948  0.00  0.00    +0.091 C 
ATOM     17  C   UNL     1      -1.352  -1.384  -5.619  0.00  0.00    +0.025 C 
ATOM     18  C   UNL     1      -0.791  -0.343  -6.620  0.00  0.00    +0.002 C 
ATOM     19  C   UNL     1      -0.934   0.990  -5.844  0.00  0.00    +0.002 C 
ATOM     20  C   UNL     1      -2.273   0.848  -5.091  0.00  0.00    +0.025 C 
ENDBRANCH   5  16
BRANCH   1  21
ATOM     21  S   UNL     1       0.033  -0.375  -2.890  0.00  0.00    -0.073 S 
BRANCH  21  22
ATOM     22  C   UNL     1       0.724  -0.566  -1.228  0.00  0.00    +0.143 C 
BRANCH  22  23
ATOM     23  C   UNL     1       2.196  -0.244  -1.257  0.00  0.00    +0.234 C 
ATOM     24  O   UNL     1       2.640   0.489  -2.114  0.00  0.00    -0.274 OA
ATOM     25  N   UNL     1       3.019  -0.771  -0.329  0.00  0.00    -0.239 N 
ATOM     26  C   UNL     1       4.335  -0.483  -0.354  0.00  0.00    +0.303 C 
ATOM     27  O   UNL     1       4.780   0.252  -1.213  0.00  0.00    -0.253 OA
ATOM     28  N   UNL     1       5.158  -1.010   0.575  0.00  0.00    -0.313 N 
ATOM     29  H   UNL     1       2.616  -1.436   0.450  0.00  0.00    +0.159 HD
ATOM     30  H   UNL     1       6.233  -0.775   0.554  0.00  0.00    +0.146 HD
ATOM     31  H   UNL     1       4.756  -1.675   1.353  0.00  0.00    +0.146 HD
ENDBRANCH  22  23
BRANCH  22  33
ATOM     32  C   UNL     1       0.209   1.830  -0.740  0.00  0.00    +0.009 C 
ATOM     33  C   UNL     1       0.012   0.388  -0.268  0.00  0.00    +0.005 C 
ATOM     34  C   UNL     1       0.596   0.227   1.137  0.00  0.00    +0.009 C 
ENDBRANCH  22  33
ENDBRANCH  21  22
ENDBRANCH   1  21
TORSDOF 7
