REMARK  Name = ZINC43919212
REMARK  6 active torsions:
REMARK  status: ('A' for Active; 'I' for Inactive)
REMARK    1  A    between atoms: C_1  and  C_2
REMARK    2  A    between atoms: C_5  and  S_8
REMARK    3  A    between atoms: S_8  and  O_11
REMARK    4  A    between atoms: O_11  and  C_12
REMARK    5  A    between atoms: C_18  and  C_35
REMARK    6  A    between atoms: C_33  and  C_34
REMARK                            x       y       z     vdW  Elec       q    Type
REMARK                         _______ _______ _______ _____ _____    ______ ____
ROOT
ATOM      1  C   UNL     1       2.183  -4.809   1.225  0.00  0.00    +0.156 C 
ATOM      2  C   UNL     1       2.203  -6.157   1.987  0.00  0.00    +0.035 C 
ATOM      3  C   UNL     1       3.695  -6.568   2.111  0.00  0.00    +0.007 C 
ATOM      4  C   UNL     1       4.353  -5.825   0.944  0.00  0.00    +0.001 C 
ATOM      5  C   UNL     1       3.647  -4.441   1.012  0.00  0.00    -0.000 C 
ATOM      6  C   UNL     1       3.979  -3.702  -0.270  0.00  0.00    +0.010 C 
ATOM      7  C   UNL     1       5.495  -3.449  -0.270  0.00  0.00    +0.005 C 
ATOM      8  C   UNL     1       6.282  -4.750  -0.152  0.00  0.00    +0.002 C 
ATOM      9  C   UNL     1       5.847  -5.590   1.069  0.00  0.00    -0.003 C 
ATOM     10  C   UNL     1       6.588  -6.926   1.097  0.00  0.00    +0.008 C 
ATOM     11  C   UNL     1       8.095  -6.687   1.248  0.00  0.00    +0.032 C 
ATOM     12  C   UNL     1       8.530  -5.763   0.123  0.00  0.00    -0.060 C 
ATOM     13  C   UNL     1       9.538  -6.136  -0.661  0.00  0.00    +0.046 C 
ATOM     14  C   UNL     1       9.933  -5.265  -1.777  0.00  0.00    +0.156 C 
ATOM     15  O   UNL     1      11.055  -5.278  -2.237  0.00  0.00    -0.293 OA
ATOM     16  C   UNL     1       8.852  -4.347  -2.318  0.00  0.00    +0.080 C 
ATOM     17  C   UNL     1       8.272  -3.570  -1.137  0.00  0.00    +0.019 C 
ATOM     18  C   UNL     1       7.773  -4.437  -0.023  0.00  0.00    -0.007 C 
ATOM     19  C   UNL     1       7.940  -3.651   1.280  0.00  0.00    +0.016 C 
ATOM     20  C   UNL     1       4.165  -3.654   2.217  0.00  0.00    +0.014 C 
ENDROOT
BRANCH   1  21
ATOM     21  O   UNL     1       1.522  -4.962  -0.033  0.00  0.00    -0.230 OA
BRANCH  21  22
ATOM     22  S   UNL     1       0.063  -4.530  -0.023  0.00  0.00    +0.112 S 
ATOM     23  O   UNL     1      -0.476  -4.950   1.223  0.00  0.00    -0.142 OA
ATOM     24  O   UNL     1      -0.490  -4.937  -1.267  0.00  0.00    -0.142 OA
BRANCH  22  29
ATOM     25  C   UNL     1      -0.018   1.503   0.010  0.00  0.00    +0.044 C 
ATOM     26  C   UNL     1       0.002  -0.004   0.002  0.00  0.00    -0.050 A 
ATOM     27  C   UNL     1       0.006  -0.689  -1.199  0.00  0.00    +0.005 A 
ATOM     28  C   UNL     1       0.025  -2.071  -1.206  0.00  0.00    +0.030 A 
ATOM     29  C   UNL     1       0.040  -2.768  -0.013  0.00  0.00    +0.117 A 
ATOM     30  C   UNL     1       0.037  -2.084   1.188  0.00  0.00    +0.030 A 
ATOM     31  C   UNL     1       0.023  -0.702   1.195  0.00  0.00    +0.005 A 
ENDBRANCH  22  29
ENDBRANCH  21  22
ENDBRANCH   1  21
TORSDOF 3
