REMARK  Name = ZINC35992163
REMARK  10 active torsions:
REMARK  status: ('A' for Active; 'I' for Inactive)
REMARK    1  A    between atoms: C_1  and  C_2
REMARK    2  A    between atoms: C_2  and  N_3
REMARK    3  A    between atoms: C_4  and  C_23
REMARK    4  A    between atoms: C_5  and  C_18
REMARK    5  A    between atoms: C_6  and  C_11
REMARK    6  A    between atoms: C_18  and  O_20
REMARK    7  A    between atoms: O_20  and  C_21
REMARK    8  A    between atoms: C_21  and  C_22
REMARK    9  A    between atoms: C_23  and  N_24
REMARK   10  A    between atoms: C_30  and  C_32
REMARK                            x       y       z     vdW  Elec       q    Type
REMARK                         _______ _______ _______ _____ _____    ______ ____
ROOT
ATOM      1  N   UNL     1      -1.602  -0.034  -0.059  0.00  0.00    -0.258 N 
ATOM      2  C   UNL     1      -2.138  -0.484   1.113  0.00  0.00    +0.041 C 
ATOM      3  C   UNL     1      -3.338  -1.102   1.139  0.00  0.00    +0.080 C 
ATOM      4  C   UNL     1      -4.071  -1.276  -0.176  0.00  0.00    +0.144 C 
ATOM      5  N   UNL     1      -3.408  -0.755  -1.383  0.00  0.00    -0.288 N 
ATOM      6  C   UNL     1      -2.207  -0.157  -1.248  0.00  0.00    +0.307 C 
ATOM      7  O   UNL     1      -1.653   0.281  -2.237  0.00  0.00    -0.252 OA
ATOM      8  H   UNL     1      -3.826  -0.836  -2.254  0.00  0.00    +0.151 HD
ENDROOT
BRANCH   4   9
ATOM      9  C   UNL     1      -4.314  -2.749  -0.380  0.00  0.00    -0.020 A 
ATOM     10  C   UNL     1      -3.296  -3.559  -0.850  0.00  0.00    +0.006 A 
ATOM     11  C   UNL     1      -3.518  -4.910  -1.038  0.00  0.00    +0.003 A 
ATOM     12  C   UNL     1      -4.757  -5.454  -0.756  0.00  0.00    +0.038 A 
ATOM     13  C   UNL     1      -5.777  -4.644  -0.286  0.00  0.00    +0.124 A 
ATOM     14  C   UNL     1      -5.552  -3.292  -0.092  0.00  0.00    +0.044 A 
ATOM     15  F   UNL     1      -6.989  -5.174  -0.011  0.00  0.00    -0.205 F 
ENDBRANCH   4   9
BRANCH   1  17
ATOM     16  C   UNL     1      -0.492   2.141   0.084  0.00  0.00    +0.025 C 
ATOM     17  C   UNL     1      -0.295   0.627  -0.014  0.00  0.00    +0.111 C 
ENDBRANCH   1  17
BRANCH   3  18
ATOM     18  C   UNL     1      -3.894  -1.570   2.353  0.00  0.00    +0.339 C 
ATOM     19  O   UNL     1      -3.317  -1.365   3.405  0.00  0.00    -0.245 OA
BRANCH  18  20
ATOM     20  O   UNL     1      -5.063  -2.244   2.345  0.00  0.00    -0.462 OA
BRANCH  20  21
ATOM     21  C   UNL     1      -5.565  -2.687   3.607  0.00  0.00    +0.229 C 
ATOM     22  C   UNL     1      -6.888  -3.426   3.398  0.00  0.00    +0.048 C 
ENDBRANCH  20  21
ENDBRANCH  18  20
ENDBRANCH   3  18
BRANCH   2  23
ATOM     23  C   UNL     1      -1.376  -0.290   2.399  0.00  0.00    +0.136 C 
BRANCH  23  24
ATOM     24  N   UNL     1      -0.648  -1.523   2.728  0.00  0.00    -0.294 NA
ATOM     25  C   UNL     1       0.330  -1.853   1.683  0.00  0.00    +0.104 C 
ATOM     26  C   UNL     1       0.935  -3.231   1.970  0.00  0.00    +0.123 C 
ATOM     27  N   UNL     1       1.467  -3.231   3.342  0.00  0.00    -0.295 N 
ATOM     28  C   UNL     1       0.585  -2.780   4.430  0.00  0.00    +0.123 C 
ATOM     29  C   UNL     1      -0.006  -1.420   4.045  0.00  0.00    +0.104 C 
ATOM     30  C   UNL     1       2.728  -3.633   3.595  0.00  0.00    +0.253 C 
ATOM     31  O   UNL     1       3.486  -3.873   2.674  0.00  0.00    -0.269 OA
BRANCH  30  32
ATOM     32  C   UNL     1       3.186  -3.781   4.979  0.00  0.00    +0.074 A 
ATOM     33  C   UNL     1       4.469  -4.004   5.456  0.00  0.00    +0.021 A 
ATOM     34  C   UNL     1       4.589  -4.100   6.822  0.00  0.00    +0.008 A 
ATOM     35  C   UNL     1       3.480  -3.975   7.592  0.00  0.00    +0.046 A 
ATOM     36  S   UNL     1       2.240  -3.715   6.489  0.00  0.00    -0.092 S 
ENDBRANCH  30  32
ENDBRANCH  23  24
ENDBRANCH   2  23
TORSDOF 8
