REMARK  Name = ZINC04742687
REMARK  4 active torsions:
REMARK  status: ('A' for Active; 'I' for Inactive)
REMARK    1  A    between atoms: C_4  and  C_7
REMARK    2  A    between atoms: C_7  and  C_8
REMARK    3  A    between atoms: C_9  and  N_22
REMARK    4  A    between atoms: C_14  and  C_16
REMARK                            x       y       z     vdW  Elec       q    Type
REMARK                         _______ _______ _______ _____ _____    ______ ____
ROOT
ATOM      1  C   UNL     1      -2.905   0.735   1.453  0.00  0.00    +0.084 A 
ATOM      2  C   UNL     1      -3.764   1.471   2.225  0.00  0.00    +0.221 A 
ATOM      3  O   UNL     1      -3.856   0.852   3.411  0.00  0.00    -0.351 OA
ATOM      4  N   UNL     1      -3.168  -0.142   3.454  0.00  0.00    -0.096 N 
ATOM      5  C   UNL     1      -2.518  -0.329   2.289  0.00  0.00    +0.296 A 
ATOM      6  O   UNL     1      -1.750  -1.237   2.014  0.00  0.00    -0.264 OA
ATOM      7  C   UNL     1      -3.065  -0.954   4.525  0.00  0.00    +0.295 C 
ATOM      8  O   UNL     1      -2.425  -1.984   4.448  0.00  0.00    -0.264 OA
ENDROOT
BRANCH   7   9
ATOM      9  C   UNL     1      -3.731  -0.592   5.794  0.00  0.00    +0.043 A 
ATOM     10  C   UNL     1      -4.562   0.529   5.854  0.00  0.00    +0.013 A 
ATOM     11  C   UNL     1      -5.184   0.858   7.040  0.00  0.00    +0.001 A 
ATOM     12  C   UNL     1      -4.979   0.087   8.171  0.00  0.00    +0.000 A 
ATOM     13  C   UNL     1      -4.153  -1.022   8.119  0.00  0.00    +0.001 A 
ATOM     14  C   UNL     1      -3.528  -1.365   6.938  0.00  0.00    +0.013 A 
ENDBRANCH   7   9
BRANCH   2  15
ATOM     15  N   UNL     1      -4.411   2.625   1.854  0.00  0.00    -0.327 N 
ATOM     16  H   UNL     1      -4.277   2.992   0.966  0.00  0.00    +0.145 HD
ATOM     17  H   UNL     1      -5.003   3.072   2.479  0.00  0.00    +0.145 HD
ENDBRANCH   2  15
BRANCH   1  18
ATOM     18  C   UNL     1      -2.468   1.006   0.036  0.00  0.00    +0.081 C 
BRANCH  18  22
ATOM     19  C   UNL     1       1.219   3.162   0.064  0.00  0.00    +0.000 A 
ATOM     20  C   UNL     1       1.227   1.779   0.047  0.00  0.00    +0.000 A 
ATOM     21  C   UNL     1       0.034   1.082   0.042  0.00  0.00    +0.004 A 
ATOM     22  C   UNL     1      -1.167   1.766   0.048  0.00  0.00    -0.043 A 
ATOM     23  C   UNL     1      -1.175   3.148   0.070  0.00  0.00    +0.004 A 
ATOM     24  C   UNL     1       0.018   3.846   0.075  0.00  0.00    +0.000 A 
ENDBRANCH  18  22
ENDBRANCH   1  18
TORSDOF 4
