REMARK  Name = ZINC37063569
REMARK  5 active torsions:
REMARK  status: ('A' for Active; 'I' for Inactive)
REMARK    1  A    between atoms: C_1  and  C_2
REMARK    2  A    between atoms: C_4  and  N_7
REMARK    3  A    between atoms: N_7  and  S_8
REMARK    4  A    between atoms: S_8  and  C_11
REMARK    5  A    between atoms: C_12  and  N_19
REMARK                            x       y       z     vdW  Elec       q    Type
REMARK                         _______ _______ _______ _____ _____    ______ ____
ROOT
ATOM      1  C   UNL     1       0.081  -6.206  -2.015  0.00  0.00    +0.145 A 
ATOM      2  C   UNL     1      -1.120  -6.444  -2.671  0.00  0.00    +0.054 A 
ATOM      3  C   UNL     1      -1.116  -7.043  -3.925  0.00  0.00    +0.040 A 
ATOM      4  C   UNL     1       0.081  -7.401  -4.514  0.00  0.00    +0.021 A 
ATOM      5  C   UNL     1       1.275  -7.163  -3.858  0.00  0.00    +0.032 A 
ATOM      6  C   UNL     1       1.275  -6.561  -2.612  0.00  0.00    +0.047 A 
ATOM      7 BR   UNL     1       2.911  -6.231  -1.722  0.00  0.00    -0.048 Br
ATOM      8 BR   UNL     1       0.087  -8.216  -6.221  0.00  0.00    -0.050 Br
ENDROOT
BRANCH   1   9
ATOM      9  S   UNL     1       0.081  -5.446  -0.425  0.00  0.00    +0.097 S 
ATOM     10  O   UNL     1       1.290  -5.836   0.211  0.00  0.00    -0.148 OA
ATOM     11  O   UNL     1      -1.196  -5.698   0.146  0.00  0.00    -0.148 OA
BRANCH   9  12
ATOM     12  N   UNL     1       0.179  -3.810  -0.664  0.00  0.00    -0.057 NA
BRANCH  12  16
ATOM     13  C   UNL     1       0.337   0.338   2.088  0.00  0.00    +0.069 C 
ATOM     14  C   UNL     1       0.267  -1.111   1.682  0.00  0.00    +0.083 A 
ATOM     15  C   UNL     1       0.275  -1.597   0.367  0.00  0.00    +0.095 A 
ATOM     16  C   UNL     1       0.198  -2.953   0.420  0.00  0.00    +0.259 A 
ATOM     17  O   UNL     1       0.143  -3.311   1.714  0.00  0.00    -0.336 OA
ATOM     18  N   UNL     1       0.193  -2.130   2.493  0.00  0.00    -0.081 NA
ENDBRANCH  12  16
ENDBRANCH   9  12
ENDBRANCH   1   9
BRANCH   2  19
ATOM     19  N   UNL     1      -2.329  -6.081  -2.073  0.00  0.00    -0.356 N 
ATOM     20  H   UNL     1      -2.344  -5.394  -1.388  0.00  0.00    +0.142 HD
ATOM     21  H   UNL     1      -3.153  -6.517  -2.341  0.00  0.00    +0.142 HD
ENDBRANCH   2  19
TORSDOF 4
