REMARK  Name = ZINC25598372
REMARK  5 active torsions:
REMARK  status: ('A' for Active; 'I' for Inactive)
REMARK    1  A    between atoms: N_13  and  C_17
REMARK    2  A    between atoms: C_17  and  C_18
REMARK    3  A    between atoms: N_20  and  C_21
REMARK    4  A    between atoms: C_21  and  C_22
REMARK    5  A    between atoms: C_25  and  C_27
REMARK                            x       y       z     vdW  Elec       q    Type
REMARK                         _______ _______ _______ _____ _____    ______ ____
ROOT
ATOM      1  C   UNL     1       3.581   0.975  -0.028  0.00  0.00    +0.213 C 
ENDROOT
BRANCH   1  14
ATOM      2  C   UNL     1      -1.736  -1.489   3.614  0.00  0.00    +0.000 A 
ATOM      3  C   UNL     1      -0.480  -0.911   3.620  0.00  0.00    +0.000 A 
ATOM      4  C   UNL     1       0.063  -0.440   2.443  0.00  0.00    +0.006 A 
ATOM      5  C   UNL     1      -0.641  -0.541   1.250  0.00  0.00    -0.012 A 
ATOM      6  C   UNL     1      -1.891  -1.121   1.244  0.00  0.00    -0.042 A 
ATOM      7  C   UNL     1      -2.436  -1.593   2.430  0.00  0.00    +0.004 A 
ATOM      8  C   UNL     1      -2.703  -1.276  -0.015  0.00  0.00    +0.035 C 
ATOM      9  C   UNL     1      -2.193  -0.337  -1.106  0.00  0.00    +0.008 C 
ATOM     10  C   UNL     1      -0.679  -0.538  -1.252  0.00  0.00    +0.040 C 
ATOM     11  C   UNL     1       0.002  -0.004   0.002  0.00  0.00    +0.138 C 
ATOM     12  C   UNL     1       1.475  -0.348  -0.015  0.00  0.00    +0.251 C 
ATOM     13  O   UNL     1       1.969  -1.455  -0.026  0.00  0.00    -0.272 OA
ATOM     14  N   UNL     1       2.123   0.835  -0.015  0.00  0.00    -0.215 N 
ATOM     15  C   UNL     1       1.268   1.865   0.000  0.00  0.00    +0.310 C 
ATOM     16  O   UNL     1       1.614   3.030   0.004  0.00  0.00    -0.252 OA
ATOM     17  N   UNL     1      -0.018   1.465   0.010  0.00  0.00    -0.281 N 
ATOM     18  H   UNL     1      -0.978   2.002   0.022  0.00  0.00    +0.152 HD
ENDBRANCH   1  14
BRANCH   1  19
ATOM     19  C   UNL     1       4.067   1.030  -1.454  0.00  0.00    +0.231 C 
ATOM     20  O   UNL     1       3.273   0.960  -2.368  0.00  0.00    -0.274 OA
ATOM     21  N   UNL     1       5.383   1.158  -1.712  0.00  0.00    -0.307 N 
ATOM     22  H   UNL     1       6.103   1.222  -0.882  0.00  0.00    +0.149 HD
BRANCH  21  23
ATOM     23  C   UNL     1       5.856   1.212  -3.098  0.00  0.00    +0.178 C 
BRANCH  23  24
ATOM     24  C   UNL     1       7.356   1.357  -3.112  0.00  0.00    +0.123 A 
ATOM     25  C   UNL     1       8.243   0.342  -3.126  0.00  0.00    +0.047 A 
ATOM     26  C   UNL     1       9.529   0.918  -3.135  0.00  0.00    +0.050 A 
ATOM     27  C   UNL     1       9.354   2.266  -3.126  0.00  0.00    +0.135 A 
ATOM     28  O   UNL     1       8.031   2.518  -3.118  0.00  0.00    -0.458 OA
BRANCH  27  29
ATOM     29  C   UNL     1      10.430   3.280  -3.132  0.00  0.00    +0.017 A 
ATOM     30  C   UNL     1      11.768   2.882  -3.142  0.00  0.00    +0.014 A 
ATOM     31  C   UNL     1      12.767   3.833  -3.153  0.00  0.00    +0.039 A 
ATOM     32  C   UNL     1      12.445   5.180  -3.142  0.00  0.00    +0.123 A 
ATOM     33  C   UNL     1      11.119   5.581  -3.127  0.00  0.00    +0.039 A 
ATOM     34  C   UNL     1      10.111   4.639  -3.122  0.00  0.00    +0.014 A 
ATOM     35  F   UNL     1      13.428   6.107  -3.147  0.00  0.00    -0.205 F 
ENDBRANCH  27  29
ENDBRANCH  23  24
ENDBRANCH  21  23
ENDBRANCH   1  19
TORSDOF 5
