REMARK  Name = ZINC06149616
REMARK  12 active torsions:
REMARK  status: ('A' for Active; 'I' for Inactive)
REMARK    1  A    between atoms: C_1  and  C_2
REMARK    2  A    between atoms: C_2  and  C_3
REMARK    3  A    between atoms: C_4  and  C_27
REMARK    4  A    between atoms: C_5  and  C_17
REMARK    5  A    between atoms: C_11  and  C_15
REMARK    6  A    between atoms: C_11  and  C_16
REMARK    7  A    between atoms: C_19  and  O_25
REMARK    8  A    between atoms: C_20  and  O_24
REMARK    9  A    between atoms: O_25  and  C_26
REMARK   10  A    between atoms: C_27  and  O_29
REMARK   11  A    between atoms: O_29  and  C_30
REMARK   12  A    between atoms: C_30  and  C_31
REMARK                            x       y       z     vdW  Elec       q    Type
REMARK                         _______ _______ _______ _____ _____    ______ ____
ROOT
ATOM      1  C   UNL     1      -0.067   1.130   2.552  0.00  0.00    +0.034 C 
ATOM      2  C   UNL     1       0.990   1.816   3.020  0.00  0.00    +0.154 C 
ATOM      3  C   UNL     1       1.811   1.296   4.164  0.00  0.00    +0.073 C 
ATOM      4  C   UNL     1       1.577  -0.180   4.368  0.00  0.00    +0.025 C 
ATOM      5  C   UNL     1       0.488  -0.782   3.850  0.00  0.00    +0.049 C 
ATOM      6  N   UNL     1      -0.418  -0.068   3.109  0.00  0.00    -0.260 NA
ATOM      7  C   UNL     1       0.243  -2.258   4.057  0.00  0.00    +0.062 C 
ATOM      8  C   UNL     1       1.579  -2.991   4.181  0.00  0.00    -0.023 C 
ATOM      9  C   UNL     1       2.361  -2.383   5.350  0.00  0.00    +0.086 C 
ATOM     10  C   UNL     1       2.522  -0.905   5.116  0.00  0.00    +0.162 C 
ATOM     11  O   UNL     1       3.484  -0.329   5.582  0.00  0.00    -0.292 OA
ATOM     12  C   UNL     1       2.378  -2.825   2.887  0.00  0.00    +0.011 C 
ATOM     13  C   UNL     1       1.333  -4.478   4.445  0.00  0.00    +0.011 C 
ENDROOT
BRANCH   3  14
ATOM     14  C   UNL     1       1.438   2.035   5.423  0.00  0.00    -0.034 A 
ATOM     15  C   UNL     1       2.398   2.756   6.109  0.00  0.00    +0.053 A 
ATOM     16  C   UNL     1       2.056   3.441   7.264  0.00  0.00    +0.163 A 
ATOM     17  C   UNL     1       0.748   3.392   7.738  0.00  0.00    +0.173 A 
ATOM     18  C   UNL     1      -0.208   2.662   7.049  0.00  0.00    +0.063 A 
ATOM     19  C   UNL     1       0.139   1.985   5.893  0.00  0.00    +0.023 A 
ATOM     20 BR   UNL     1      -1.986   2.593   7.688  0.00  0.00    -0.046 Br
BRANCH  17  21
ATOM     21  O   UNL     1       0.409   4.058   8.874  0.00  0.00    -0.503 OA
ATOM     22  H   UNL     1       0.511   3.536   9.681  0.00  0.00    +0.292 HD
ENDBRANCH  17  21
BRANCH  16  23
ATOM     23  O   UNL     1       2.998   4.155   7.937  0.00  0.00    -0.491 OA
ATOM     24  C   UNL     1       4.319   4.161   7.393  0.00  0.00    +0.277 C 
ENDBRANCH  16  23
ENDBRANCH   3  14
BRANCH   1  26
ATOM     25  C   UNL     1      -0.325   1.137   0.085  0.00  0.00    +0.010 C 
ATOM     26  C   UNL     1      -0.872   1.686   1.405  0.00  0.00    +0.048 C 
ENDBRANCH   1  26
BRANCH   2  27
ATOM     27  C   UNL     1       1.333   3.053   2.425  0.00  0.00    +0.317 C 
ATOM     28  O   UNL     1       2.244   3.108   1.620  0.00  0.00    -0.250 OA
BRANCH  27  29
ATOM     29  O   UNL     1       0.651   4.170   2.750  0.00  0.00    -0.464 OA
BRANCH  29  30
ATOM     30  C   UNL     1       1.052   5.384   2.111  0.00  0.00    +0.229 C 
ATOM     31  C   UNL     1       0.170   6.534   2.601  0.00  0.00    +0.048 C 
ENDBRANCH  29  30
ENDBRANCH  27  29
ENDBRANCH   2  27
TORSDOF 7
