REMARK  Name = ZINC00678849
REMARK  11 active torsions:
REMARK  status: ('A' for Active; 'I' for Inactive)
REMARK    1  A    between atoms: C_1  and  C_2
REMARK    2  A    between atoms: C_2  and  O_3
REMARK    3  A    between atoms: O_3  and  C_4
REMARK    4  A    between atoms: C_4  and  C_6
REMARK    5  A    between atoms: C_7  and  C_36
REMARK    6  A    between atoms: C_11  and  C_13
REMARK    7  A    between atoms: C_23  and  C_26
REMARK    8  A    between atoms: C_29  and  O_34
REMARK    9  A    between atoms: C_30  and  O_32
REMARK   10  A    between atoms: O_32  and  C_33
REMARK   11  A    between atoms: O_34  and  C_35
REMARK                            x       y       z     vdW  Elec       q    Type
REMARK                         _______ _______ _______ _____ _____    ______ ____
ROOT
ATOM      1  C   UNL     1      -0.850   2.892   1.467  0.00  0.00    +0.065 C 
ATOM      2  C   UNL     1      -0.718   1.572   1.248  0.00  0.00    +0.016 C 
ATOM      3  N   UNL     1      -1.215   0.668   2.145  0.00  0.00    -0.321 N 
ATOM      4  C   UNL     1      -1.492   1.043   3.432  0.00  0.00    +0.016 C 
ATOM      5  C   UNL     1      -1.663   2.345   3.744  0.00  0.00    +0.024 C 
ATOM      6  C   UNL     1      -1.558   3.412   2.683  0.00  0.00    +0.092 C 
ATOM      7  C   UNL     1      -1.948   2.744   5.062  0.00  0.00    +0.162 C 
ATOM      8  O   UNL     1      -2.079   3.926   5.312  0.00  0.00    -0.292 OA
ATOM      9  C   UNL     1      -2.093   1.734   6.167  0.00  0.00    +0.088 C 
ATOM     10  C   UNL     1      -2.584   0.410   5.572  0.00  0.00    +0.032 C 
ATOM     11  C   UNL     1      -1.597  -0.030   4.488  0.00  0.00    +0.059 C 
ATOM     12  C   UNL     1      -0.013   1.086   0.008  0.00  0.00    +0.061 C 
ATOM     13  H   UNL     1      -1.396  -0.372   1.835  0.00  0.00    +0.152 HD
ENDROOT
BRANCH   6  14
ATOM     14  C   UNL     1      -2.943   3.865   2.298  0.00  0.00    -0.034 A 
ATOM     15  C   UNL     1      -3.845   2.959   1.772  0.00  0.00    +0.004 A 
ATOM     16  C   UNL     1      -5.117   3.373   1.423  0.00  0.00    +0.001 A 
ATOM     17  C   UNL     1      -5.484   4.695   1.590  0.00  0.00    +0.015 A 
ATOM     18  C   UNL     1      -4.580   5.603   2.111  0.00  0.00    +0.018 A 
ATOM     19  C   UNL     1      -3.308   5.187   2.465  0.00  0.00    +0.019 A 
ATOM     20 BR   UNL     1      -5.080   7.412   2.338  0.00  0.00    -0.050 Br
ENDBRANCH   6  14
BRANCH  10  21
ATOM     21  C   UNL     1      -2.653  -0.640   6.650  0.00  0.00    -0.040 A 
ATOM     22  C   UNL     1      -1.514  -0.980   7.356  0.00  0.00    +0.008 A 
ATOM     23  C   UNL     1      -1.573  -1.943   8.346  0.00  0.00    +0.049 A 
ATOM     24  C   UNL     1      -2.775  -2.570   8.633  0.00  0.00    +0.161 A 
ATOM     25  C   UNL     1      -3.922  -2.227   7.923  0.00  0.00    +0.162 A 
ATOM     26  C   UNL     1      -3.857  -1.257   6.935  0.00  0.00    +0.053 A 
BRANCH  25  27
ATOM     27  O   UNL     1      -5.104  -2.839   8.201  0.00  0.00    -0.491 OA
ATOM     28  C   UNL     1      -6.239  -2.437   7.431  0.00  0.00    +0.277 C 
ENDBRANCH  25  27
BRANCH  24  29
ATOM     29  O   UNL     1      -2.835  -3.517   9.607  0.00  0.00    -0.491 OA
ATOM     30  C   UNL     1      -1.619  -3.817  10.295  0.00  0.00    +0.277 C 
ENDBRANCH  24  29
ENDBRANCH  10  21
BRANCH   1  31
ATOM     31  C   UNL     1      -0.314   3.807   0.531  0.00  0.00    +0.338 C 
ATOM     32  O   UNL     1       0.258   3.398  -0.461  0.00  0.00    -0.245 OA
BRANCH  31  33
ATOM     33  O   UNL     1      -0.439   5.135   0.739  0.00  0.00    -0.462 OA
BRANCH  33  35
ATOM     34  C   UNL     1      -0.113   7.458   0.158  0.00  0.00    +0.048 C 
ATOM     35  C   UNL     1       0.125   6.002  -0.247  0.00  0.00    +0.229 C 
ENDBRANCH  33  35
ENDBRANCH  31  33
ENDBRANCH   1  31
TORSDOF 7
