REMARK  Name = ZINC62935905
REMARK  3 active torsions:
REMARK  status: ('A' for Active; 'I' for Inactive)
REMARK    1  A    between atoms: C_1  and  C_2
REMARK    2  A    between atoms: C_2  and  C_3
REMARK    3  A    between atoms: C_3  and  C_18
REMARK                            x       y       z     vdW  Elec       q    Type
REMARK                         _______ _______ _______ _____ _____    ______ ____
ROOT
ATOM      1  C   UNL     1      -2.362  -0.342   0.166  0.00  0.00    +0.089 C 
ATOM      2  C   UNL     1      -2.768  -0.067  -1.301  0.00  0.00    +0.039 C 
ATOM      3  C   UNL     1      -2.196  -1.294  -2.053  0.00  0.00    +0.110 C 
ATOM      4  N   UNL     1      -2.418  -2.409  -1.103  0.00  0.00    -0.284 N 
ATOM      5  C   UNL     1      -2.128  -1.863   0.236  0.00  0.00    +0.127 C 
ATOM      6  C   UNL     1      -2.807  -3.664  -1.401  0.00  0.00    +0.305 C 
ATOM      7  O   UNL     1      -3.203  -3.929  -2.519  0.00  0.00    -0.252 OA
ATOM      8  N   UNL     1      -2.757  -4.627  -0.458  0.00  0.00    -0.284 N 
ATOM      9  C   UNL     1      -3.373  -5.921  -0.742  0.00  0.00    +0.118 C 
ATOM     10  C   UNL     1      -4.534  -6.160   0.231  0.00  0.00    +0.115 C 
ATOM     11  C   UNL     1      -3.968  -6.639   1.548  0.00  0.00    +0.215 C 
ATOM     12  O   UNL     1      -4.124  -7.793   1.887  0.00  0.00    -0.276 OA
ATOM     13  N   UNL     1      -3.297  -5.799   2.342  0.00  0.00    -0.314 N 
ATOM     14  C   UNL     1      -3.104  -4.395   1.954  0.00  0.00    +0.123 C 
ATOM     15  C   UNL     1      -2.083  -4.338   0.805  0.00  0.00    +0.128 C 
ATOM     16  H   UNL     1      -2.936  -6.119   3.184  0.00  0.00    +0.149 HD
ENDROOT
BRANCH   1  17
ATOM     17  C   UNL     1      -3.472   0.060   1.103  0.00  0.00    +0.364 C 
ATOM     18  O   UNL     1      -3.822   1.226   1.168  0.00  0.00    -0.246 OA
ATOM     19  O   UNL     1      -4.019  -0.780   1.796  0.00  0.00    -0.246 OA
ENDBRANCH   1  17
BRANCH   1  21
ATOM     20  C   UNL     1      -1.331   1.917   0.435  0.00  0.00    +0.005 C 
ATOM     21  C   UNL     1      -1.076   0.411   0.511  0.00  0.00    +0.016 C 
ENDBRANCH   1  21
TORSDOF 2
