REMARK  Name = ZINC62131868
REMARK  7 active torsions:
REMARK  status: ('A' for Active; 'I' for Inactive)
REMARK    1  A    between atoms: C_5  and  C_7
REMARK    2  A    between atoms: C_7  and  C_8
REMARK    3  A    between atoms: C_7  and  O_26
REMARK    4  A    between atoms: C_8  and  N_9
REMARK    5  A    between atoms: C_10  and  C_12
REMARK    6  A    between atoms: N_14  and  C_15
REMARK    7  A    between atoms: C_17  and  N_23
REMARK                            x       y       z     vdW  Elec       q    Type
REMARK                         _______ _______ _______ _____ _____    ______ ____
ROOT
ATOM      1  N   UNL     1       1.540  -4.160   1.389  0.00  0.00    -0.305 N 
ATOM      2  C   UNL     1       1.676  -4.838   2.546  0.00  0.00    +0.299 C 
ATOM      3  O   UNL     1       1.693  -4.239   3.602  0.00  0.00    -0.265 OA
ATOM      4  H   UNL     1       1.526  -4.638   0.546  0.00  0.00    +0.149 HD
ENDROOT
BRANCH   2   5
ATOM      5  C   UNL     1       1.806  -6.325   2.529  0.00  0.00    +0.303 C 
ATOM      6  O   UNL     1       1.789  -6.924   1.473  0.00  0.00    -0.265 OA
ATOM      7  N   UNL     1       1.943  -7.003   3.686  0.00  0.00    -0.275 N 
ATOM      8  H   UNL     1       2.022  -6.521   4.524  0.00  0.00    +0.155 HD
BRANCH   7   9
ATOM      9  C   UNL     1       1.971  -8.402   3.677  0.00  0.00    +0.072 A 
ATOM     10  C   UNL     1       2.560  -9.080   2.618  0.00  0.00    +0.062 A 
ATOM     11  C   UNL     1       2.587 -10.460   2.612  0.00  0.00    +0.163 A 
ATOM     12  C   UNL     1       2.027 -11.171   3.661  0.00  0.00    +0.156 A 
ATOM     13  C   UNL     1       1.438 -10.499   4.718  0.00  0.00    +0.081 A 
ATOM     14  C   UNL     1       1.414  -9.116   4.733  0.00  0.00    +0.147 A 
ATOM     15  F   UNL     1       0.845  -8.460   5.768  0.00  0.00    -0.203 F 
ATOM     16  F   UNL     1       2.055 -12.521   3.651  0.00  0.00    -0.203 F 
BRANCH  11  17
ATOM     17  N   UNL     1       3.215 -11.182   1.482  0.00  0.00    +0.059 N 
ATOM     18  O   UNL     1       3.704 -10.563   0.566  0.00  0.00    -0.126 OA
ATOM     19  O   UNL     1       3.239 -12.391   1.476  0.00  0.00    -0.126 OA
ENDBRANCH  11  17
ENDBRANCH   7   9
ENDBRANCH   2   5
BRANCH   1  20
ATOM     20  C   UNL     1       1.412  -2.700   1.407  0.00  0.00    +0.140 C 
BRANCH  20  21
ATOM     21  C   UNL     1       1.271  -2.184  -0.027  0.00  0.00    +0.164 C 
BRANCH  21  26
ATOM     22  C   UNL     1       0.055   1.390   0.000  0.00  0.00    +0.001 A 
ATOM     23  C   UNL     1       1.248   2.089  -0.006  0.00  0.00    +0.003 A 
ATOM     24  C   UNL     1       2.449   1.407  -0.020  0.00  0.00    +0.039 A 
ATOM     25  C   UNL     1       2.458   0.022  -0.026  0.00  0.00    +0.129 A 
ATOM     26  C   UNL     1       1.263  -0.677  -0.019  0.00  0.00    +0.018 A 
ATOM     27  C   UNL     1       0.062   0.008  -0.006  0.00  0.00    +0.009 A 
ATOM     28  F   UNL     1       3.632  -0.646  -0.039  0.00  0.00    -0.205 F 
ENDBRANCH  21  26
BRANCH  21  29
ATOM     29  O   UNL     1       0.048  -2.664  -0.588  0.00  0.00    -0.386 OA
ATOM     30  H   UNL     1      -0.743  -2.385  -0.106  0.00  0.00    +0.210 HD
ENDBRANCH  21  29
ENDBRANCH  20  21
ENDBRANCH   1  20
TORSDOF 7
