REMARK  Name = ZINC22798461
REMARK  7 active torsions:
REMARK  status: ('A' for Active; 'I' for Inactive)
REMARK    1  A    between atoms: C_4  and  C_7
REMARK    2  A    between atoms: C_7  and  N_8
REMARK    3  A    between atoms: N_11  and  C_14
REMARK    4  A    between atoms: C_14  and  C_16
REMARK    5  A    between atoms: C_14  and  C_23
REMARK    6  A    between atoms: C_24  and  O_36
REMARK    7  A    between atoms: C_29  and  C_31
REMARK                            x       y       z     vdW  Elec       q    Type
REMARK                         _______ _______ _______ _____ _____    ______ ____
ROOT
ATOM      1  C   UNL     1       6.568  -0.989   4.811  0.00  0.00    +0.129 C 
ENDROOT
BRANCH   1   2
ATOM      2  C   UNL     1       6.906   0.337   5.444  0.00  0.00    +0.076 A 
ATOM      3  C   UNL     1       6.467   0.858   6.595  0.00  0.00    +0.228 A 
ATOM      4  N   UNL     1       6.893   2.095   7.012  0.00  0.00    -0.173 N 
ATOM      5  C   UNL     1       7.776   2.756   6.202  0.00  0.00    +0.200 A 
ATOM      6  S   UNL     1       8.003   1.618   4.856  0.00  0.00    -0.047 S 
ATOM      7  N   UNL     1       8.083   3.907   6.732  0.00  0.00    -0.197 NA
ATOM      8  C   UNL     1       7.427   4.050   7.892  0.00  0.00    +0.218 A 
ATOM      9  N   UNL     1       6.693   2.978   8.105  0.00  0.00    -0.138 NA
BRANCH   8  10
ATOM     10  C   UNL     1       7.514   5.222   8.788  0.00  0.00    +0.173 A 
ATOM     11  C   UNL     1       8.264   6.335   8.574  0.00  0.00    +0.053 A 
ATOM     12  C   UNL     1       8.045   7.189   9.674  0.00  0.00    +0.042 A 
ATOM     13  C   UNL     1       7.183   6.561  10.496  0.00  0.00    +0.196 A 
ATOM     14  O   UNL     1       6.859   5.375   9.955  0.00  0.00    -0.460 OA
ENDBRANCH   8  10
BRANCH   3  15
ATOM     15  O   UNL     1       5.589   0.156   7.361  0.00  0.00    -0.492 OA
ATOM     16  H   UNL     1       5.326   0.609   8.174  0.00  0.00    +0.294 HD
ENDBRANCH   3  15
ENDBRANCH   1   2
BRANCH   1  20
ATOM     17  N   UNL     1       4.153  -0.953   1.342  0.00  0.00    +0.384 N 
ATOM     18  C   UNL     1       4.432   0.329   2.002  0.00  0.00    -0.063 C 
ATOM     19  C   UNL     1       4.874   0.074   3.445  0.00  0.00    +0.067 C 
ATOM     20  N   UNL     1       6.079  -0.768   3.443  0.00  0.00    -0.295 NA
ATOM     21  C   UNL     1       5.822  -2.045   2.763  0.00  0.00    +0.067 C 
ATOM     22  C   UNL     1       5.372  -1.773   1.326  0.00  0.00    -0.063 C 
ATOM     23  H   UNL     1       3.427  -1.440   1.845  0.00  0.00    -0.081 HD
BRANCH  17  24
ATOM     24  C   UNL     1       3.711  -0.707  -0.038  0.00  0.00    -0.043 C 
BRANCH  24  28
ATOM     25  C   UNL     1      -0.017   1.378   0.010  0.00  0.00    +0.000 A 
ATOM     26  C   UNL     1       1.171   2.086   0.002  0.00  0.00    +0.000 A 
ATOM     27  C   UNL     1       2.377   1.411  -0.013  0.00  0.00    +0.002 A 
ATOM     28  C   UNL     1       2.396   0.029  -0.020  0.00  0.00    -0.064 A 
ATOM     29  C   UNL     1       1.208  -0.679  -0.012  0.00  0.00    +0.002 A 
ATOM     30  C   UNL     1       0.002  -0.004   0.002  0.00  0.00    +0.000 A 
ENDBRANCH  24  28
ENDBRANCH  17  24
ENDBRANCH   1  20
BRANCH   1  31
ATOM     31  C   UNL     1       7.801  -1.854   4.769  0.00  0.00    -0.025 A 
ATOM     32  C   UNL     1       8.750  -1.658   3.783  0.00  0.00    +0.007 A 
ATOM     33  C   UNL     1       9.881  -2.452   3.745  0.00  0.00    +0.020 A 
ATOM     34  C   UNL     1      10.063  -3.442   4.693  0.00  0.00    +0.041 A 
ATOM     35  C   UNL     1       9.113  -3.638   5.680  0.00  0.00    +0.020 A 
ATOM     36  C   UNL     1       7.985  -2.840   5.721  0.00  0.00    +0.007 A 
ATOM     37 CL   UNL     1      11.483  -4.440   4.645  0.00  0.00    -0.084 Cl
ENDBRANCH   1  31
TORSDOF 7
