REMARK  Name = ZINC20275426
REMARK  5 active torsions:
REMARK  status: ('A' for Active; 'I' for Inactive)
REMARK    1  A    between atoms: C_1  and  C_2
REMARK    2  A    between atoms: C_2  and  C_17
REMARK    3  A    between atoms: N_5  and  C_14
REMARK    4  A    between atoms: C_9  and  N_13
REMARK    5  A    between atoms: C_14  and  C_15
REMARK                            x       y       z     vdW  Elec       q    Type
REMARK                         _______ _______ _______ _____ _____    ______ ____
ROOT
ATOM      1  C   UNL     1      -2.246   1.836  -4.775  0.00  0.00    +0.065 C 
ATOM      2  C   UNL     1      -2.945   1.540  -3.446  0.00  0.00    +0.181 C 
ATOM      3  C   UNL     1      -2.071   1.994  -2.304  0.00  0.00    +0.263 C 
ATOM      4  O   UNL     1      -1.301   2.919  -2.458  0.00  0.00    -0.271 OA
ATOM      5  N   UNL     1      -2.146   1.365  -1.112  0.00  0.00    -0.261 N 
ATOM      6  C   UNL     1      -3.025   0.278  -0.970  0.00  0.00    +0.079 A 
ATOM      7  C   UNL     1      -3.378  -0.186   0.286  0.00  0.00    +0.029 A 
ATOM      8  C   UNL     1      -4.244  -1.256   0.407  0.00  0.00    +0.025 A 
ATOM      9  C   UNL     1      -4.760  -1.867  -0.729  0.00  0.00    +0.028 A 
ATOM     10  C   UNL     1      -4.408  -1.404  -1.990  0.00  0.00    +0.070 A 
ATOM     11  C   UNL     1      -3.542  -0.333  -2.112  0.00  0.00    +0.145 A 
ATOM     12  O   UNL     1      -3.188   0.135  -3.339  0.00  0.00    -0.475 OA
ATOM     13  C   UNL     1      -4.275   2.293  -3.392  0.00  0.00    +0.065 C 
ENDROOT
BRANCH   9  14
ATOM     14  N   UNL     1      -5.636  -2.951  -0.602  0.00  0.00    -0.358 N 
ATOM     15  H   UNL     1      -6.045  -3.435  -1.501  0.00  0.00    +0.142 HD
ATOM     16  H   UNL     1      -5.916  -3.318   0.396  0.00  0.00    +0.142 HD
ENDBRANCH   9  14
BRANCH   5  17
ATOM     17  C   UNL     1      -1.328   1.812   0.018  0.00  0.00    +0.140 C 
BRANCH  17  18
ATOM     18  C   UNL     1      -0.013   1.076   0.008  0.00  0.00    -0.015 C 
ATOM     19  C   UNL     1       1.113   1.746   0.001  0.00  0.00    +0.005 C 
ENDBRANCH  17  18
ENDBRANCH   5  17
TORSDOF 3
