REMARK  Name = ZINC19798345
REMARK  1 active torsions:
REMARK  status: ('A' for Active; 'I' for Inactive)
REMARK    1  A    between atoms: C_6  and  C_7
REMARK                            x       y       z     vdW  Elec       q    Type
REMARK                         _______ _______ _______ _____ _____    ______ ____
ROOT
ATOM      1  C   UNL     1      -2.466   3.665   0.369  0.00  0.00    +0.035 A 
ATOM      2  C   UNL     1      -3.619   2.907   0.253  0.00  0.00    +0.037 A 
ATOM      3  C   UNL     1      -3.523   1.570  -0.092  0.00  0.00    +0.128 A 
ATOM      4  N   UNL     1      -2.353   1.003  -0.313  0.00  0.00    -0.239 NA
ATOM      5  C   UNL     1      -1.220   1.681  -0.216  0.00  0.00    +0.130 A 
ATOM      6  C   UNL     1      -1.234   3.042   0.137  0.00  0.00    +0.104 A 
ATOM      7  N   UNL     1      -0.016   1.045  -0.456  0.00  0.00    -0.342 N 
ATOM      8 BR   UNL     1      -5.311   3.692   0.564  0.00  0.00    -0.049 Br
ATOM      9  H   UNL     1       0.927   1.605  -0.376  0.00  0.00    +0.144 HD
ATOM     10  H   UNL     1      -0.001  -0.021  -0.727  0.00  0.00    +0.144 HD
ENDROOT
BRANCH   6  11
ATOM     11  C   UNL     1       0.023   3.799   0.253  0.00  0.00    +0.390 C 
ATOM     12  O   UNL     1       1.090   3.225   0.155  0.00  0.00    -0.240 OA
ATOM     13  O   UNL     1      -0.009   5.129   0.468  0.00  0.00    -0.240 OA
ENDBRANCH   6  11
TORSDOF 1
