REMARK  Name = ZINC15225866
REMARK  6 active torsions:
REMARK  status: ('A' for Active; 'I' for Inactive)
REMARK    1  A    between atoms: C_4  and  S_7
REMARK    2  A    between atoms: S_7  and  N_10
REMARK    3  A    between atoms: N_10  and  C_11
REMARK    4  A    between atoms: N_10  and  C_25
REMARK    5  A    between atoms: C_11  and  C_12
REMARK    6  A    between atoms: N_14  and  C_15
REMARK                            x       y       z     vdW  Elec       q    Type
REMARK                         _______ _______ _______ _____ _____    ______ ____
ROOT
ATOM      1  N   UNL     1       4.278  -1.182  -1.624  0.00  0.00    -0.194 N 
ENDROOT
BRANCH   1   2
ATOM      2  C   UNL     1       5.098  -0.328  -2.366  0.00  0.00    +0.053 A 
ATOM      3  C   UNL     1       5.283   0.987  -1.959  0.00  0.00    +0.026 A 
ATOM      4  C   UNL     1       6.098   1.828  -2.691  0.00  0.00    +0.023 A 
ATOM      5  C   UNL     1       6.722   1.365  -3.836  0.00  0.00    +0.059 A 
ATOM      6  C   UNL     1       6.535   0.056  -4.248  0.00  0.00    +0.061 A 
ATOM      7  C   UNL     1       5.724  -0.791  -3.516  0.00  0.00    +0.046 A 
ATOM      8 CL   UNL     1       7.319  -0.521  -5.685  0.00  0.00    -0.082 Cl
ATOM      9 CL   UNL     1       7.741   2.426  -4.757  0.00  0.00    -0.082 Cl
ENDBRANCH   1   2
BRANCH   1  10
ATOM     10  S   UNL     1       4.650  -1.524  -0.047  0.00  0.00    +0.075 S 
ATOM     11  O   UNL     1       6.056  -1.362   0.083  0.00  0.00    -0.150 OA
ATOM     12  O   UNL     1       3.991  -2.741   0.272  0.00  0.00    -0.150 OA
BRANCH  10  16
ATOM     13  C   UNL     1       2.738   1.689   2.506  0.00  0.00    +0.000 A 
ATOM     14  C   UNL     1       4.058   1.811   2.115  0.00  0.00    +0.002 A 
ATOM     15  C   UNL     1       4.642   0.831   1.335  0.00  0.00    +0.029 A 
ATOM     16  C   UNL     1       3.906  -0.273   0.947  0.00  0.00    +0.109 A 
ATOM     17  C   UNL     1       2.586  -0.396   1.339  0.00  0.00    +0.029 A 
ATOM     18  C   UNL     1       2.002   0.585   2.118  0.00  0.00    +0.002 A 
ENDBRANCH  10  16
ENDBRANCH   1  10
BRANCH   1  19
ATOM     19  C   UNL     1       3.088  -1.775  -2.240  0.00  0.00    +0.227 C 
BRANCH  19  20
ATOM     20  C   UNL     1       1.935  -0.811  -2.135  0.00  0.00    +0.233 C 
ATOM     21  O   UNL     1       2.090   0.265  -1.598  0.00  0.00    -0.274 OA
ATOM     22  N   UNL     1       0.730  -1.145  -2.638  0.00  0.00    -0.308 N 
ATOM     23  H   UNL     1       0.605  -2.006  -3.068  0.00  0.00    +0.149 HD
BRANCH  22  24
ATOM     24  C   UNL     1      -0.392  -0.208  -2.536  0.00  0.00    +0.035 C 
ATOM     25  C   UNL     1      -0.676   0.088  -1.062  0.00  0.00    +0.029 C 
ATOM     26  C   UNL     1      -1.847   1.067  -0.956  0.00  0.00    -0.008 C 
ATOM     27  C   UNL     1      -3.089   0.448  -1.600  0.00  0.00    +0.007 C 
ATOM     28  C   UNL     1      -2.805   0.151  -3.074  0.00  0.00    -0.008 C 
ATOM     29  C   UNL     1      -1.634  -0.828  -3.180  0.00  0.00    +0.029 C 
ATOM     30  C   UNL     1      -2.451   1.452  -3.797  0.00  0.00    +0.007 C 
ATOM     31  C   UNL     1      -1.209   2.071  -3.152  0.00  0.00    -0.008 C 
ATOM     32  C   UNL     1      -1.493   2.368  -1.679  0.00  0.00    +0.007 C 
ATOM     33  C   UNL     1      -0.037   1.093  -3.259  0.00  0.00    +0.029 C 
ENDBRANCH  22  24
ENDBRANCH  19  20
ENDBRANCH   1  19
TORSDOF 6
