REMARK  Name = ZINC33547165
REMARK  7 active torsions:
REMARK  status: ('A' for Active; 'I' for Inactive)
REMARK    1  A    between atoms: C_1  and  C_2
REMARK    2  A    between atoms: C_2  and  C_3
REMARK    3  A    between atoms: C_2  and  C_4
REMARK    4  A    between atoms: C_2  and  C_5
REMARK    5  A    between atoms: C_8  and  C_11
REMARK    6  A    between atoms: N_26  and  C_27
REMARK    7  A    between atoms: C_27  and  C_28
REMARK                            x       y       z     vdW  Elec       q    Type
REMARK                         _______ _______ _______ _____ _____    ______ ____
ROOT
ATOM      1  C   UNL     1       3.667  -2.220  -2.238  0.00  0.00    +0.145 C 
ATOM      2  C   UNL     1       4.322  -2.015  -3.580  0.00  0.00    +0.072 A 
ATOM      3  C   UNL     1       4.331  -2.809  -4.811  0.00  0.00    +0.199 A 
ATOM      4  O   UNL     1       3.726  -3.863  -4.898  0.00  0.00    -0.287 OA
ATOM      5  C   UNL     1       5.112  -2.269  -5.942  0.00  0.00    +0.064 A 
ATOM      6  C   UNL     1       5.189  -2.942  -7.160  0.00  0.00    +0.015 A 
ATOM      7  C   UNL     1       5.923  -2.407  -8.183  0.00  0.00    +0.001 A 
ATOM      8  C   UNL     1       6.588  -1.201  -8.012  0.00  0.00    +0.004 A 
ATOM      9  C   UNL     1       6.522  -0.522  -6.815  0.00  0.00    +0.047 A 
ATOM     10  C   UNL     1       5.782  -1.047  -5.760  0.00  0.00    +0.139 A 
ATOM     11  O   UNL     1       5.707  -0.396  -4.585  0.00  0.00    -0.450 OA
ATOM     12  C   UNL     1       5.008  -0.848  -3.524  0.00  0.00    +0.199 A 
ATOM     13  C   UNL     1       4.824  -0.261  -2.173  0.00  0.00    +0.283 C 
ATOM     14  O   UNL     1       5.311   0.786  -1.798  0.00  0.00    -0.267 OA
ATOM     15  N   UNL     1       4.041  -1.057  -1.424  0.00  0.00    -0.279 N 
ENDROOT
BRANCH   1  19
ATOM     16  C   UNL     1      -0.577  -2.395  -2.690  0.00  0.00    -0.042 A 
ATOM     17  C   UNL     1       0.145  -3.556  -2.487  0.00  0.00    +0.004 A 
ATOM     18  C   UNL     1       1.519  -3.500  -2.341  0.00  0.00    +0.006 A 
ATOM     19  C   UNL     1       2.170  -2.282  -2.398  0.00  0.00    -0.022 A 
ATOM     20  C   UNL     1       1.447  -1.120  -2.596  0.00  0.00    +0.006 A 
ATOM     21  C   UNL     1       0.075  -1.177  -2.748  0.00  0.00    +0.004 A 
BRANCH  16  23
ATOM     22  C   UNL     1      -2.696  -3.064  -1.590  0.00  0.00    +0.015 C 
ATOM     23  C   UNL     1      -2.074  -2.457  -2.849  0.00  0.00    -0.013 C 
ATOM     24  C   UNL     1      -2.623  -1.045  -3.060  0.00  0.00    +0.015 C 
ATOM     25  C   UNL     1      -2.423  -3.326  -4.060  0.00  0.00    +0.015 C 
ENDBRANCH  16  23
ENDBRANCH   1  19
BRANCH  15  26
ATOM     26  C   UNL     1       3.638  -0.810  -0.038  0.00  0.00    +0.145 C 
BRANCH  26  27
ATOM     27  C   UNL     1       2.350  -0.027  -0.021  0.00  0.00    -0.012 A 
ATOM     28  C   UNL     1       2.371   1.359  -0.014  0.00  0.00    +0.008 A 
ATOM     29  C   UNL     1       1.162   2.038   0.002  0.00  0.00    +0.020 A 
ATOM     30  C   UNL     1      -0.016   1.314   0.009  0.00  0.00    +0.111 A 
ATOM     31  N   UNL     1       0.002  -0.004   0.002  0.00  0.00    -0.263 NA
ATOM     32  C   UNL     1       1.133  -0.682  -0.013  0.00  0.00    +0.115 A 
ENDBRANCH  26  27
ENDBRANCH  15  26
TORSDOF 4
