REMARK  Name = ZINC12665024
REMARK  9 active torsions:
REMARK  status: ('A' for Active; 'I' for Inactive)
REMARK    1  A    between atoms: C_1  and  C_2
REMARK    2  A    between atoms: C_2  and  C_3
REMARK    3  A    between atoms: C_2  and  C_4
REMARK    4  A    between atoms: N_12  and  C_13
REMARK    5  A    between atoms: C_13  and  C_15
REMARK    6  A    between atoms: N_20  and  S_22
REMARK    7  A    between atoms: S_22  and  C_25
REMARK    8  A    between atoms: N_32  and  C_33
REMARK    9  A    between atoms: C_33  and  C_34
REMARK                            x       y       z     vdW  Elec       q    Type
REMARK                         _______ _______ _______ _____ _____    ______ ____
ROOT
ATOM      1  C   UNL     1      -7.715  -3.312   0.674  0.00  0.00    +0.243 C 
ATOM      2  O   UNL     1      -7.512  -2.768  -0.394  0.00  0.00    -0.273 OA
ENDROOT
BRANCH   1  11
ATOM      3  C   UNL     1      -4.320   1.730   4.132  0.00  0.00    -0.044 A 
ATOM      4  C   UNL     1      -5.401   2.187   3.396  0.00  0.00    +0.006 A 
ATOM      5  C   UNL     1      -6.186   1.323   2.672  0.00  0.00    +0.027 A 
ATOM      6  C   UNL     1      -5.920  -0.056   2.665  0.00  0.00    +0.058 A 
ATOM      7  C   UNL     1      -4.823  -0.490   3.423  0.00  0.00    +0.039 A 
ATOM      8  C   UNL     1      -4.035   0.376   4.144  0.00  0.00    +0.021 A 
ATOM      9  S   UNL     1      -4.819  -2.246   3.164  0.00  0.00    -0.052 S 
ATOM     10  C   UNL     1      -6.196  -2.350   2.115  0.00  0.00    +0.167 A 
ATOM     11  N   UNL     1      -6.727  -3.435   1.555  0.00  0.00    -0.156 NA
ATOM     12  N   UNL     1      -6.604  -1.058   2.003  0.00  0.00    -0.310 N 
BRANCH   3  14
ATOM     13  C   UNL     1      -4.336   3.420   5.946  0.00  0.00    +0.012 C 
ATOM     14  C   UNL     1      -3.468   2.695   4.916  0.00  0.00    +0.013 C 
ATOM     15  C   UNL     1      -2.846   3.717   3.962  0.00  0.00    +0.012 C 
ENDBRANCH   3  14
BRANCH  12  16
ATOM     16  C   UNL     1      -7.769  -0.728   1.179  0.00  0.00    +0.212 C 
BRANCH  16  17
ATOM     17  C   UNL     1      -7.322  -0.336  -0.168  0.00  0.00    -0.084 C 
ATOM     18  C   UNL     1      -6.966  -0.024  -1.242  0.00  0.00    +0.005 C 
ENDBRANCH  16  17
ENDBRANCH  12  16
ENDBRANCH   1  11
BRANCH   1  19
ATOM     19  C   UNL     1      -9.086  -3.847   1.000  0.00  0.00    +0.093 C 
ATOM     20  C   UNL     1      -9.621  -3.151   2.253  0.00  0.00    +0.015 C 
ATOM     21  C   UNL     1     -11.000  -3.716   2.602  0.00  0.00    +0.018 C 
ATOM     22  C   UNL     1     -11.968  -3.444   1.446  0.00  0.00    +0.109 C 
ATOM     23  N   UNL     1     -11.390  -3.986   0.209  0.00  0.00    -0.176 NA
ATOM     24  C   UNL     1     -10.032  -3.577  -0.175  0.00  0.00    +0.122 C 
BRANCH  23  25
ATOM     25  S   UNL     1     -12.253  -5.037  -0.736  0.00  0.00    +0.061 S 
ATOM     26  O   UNL     1     -13.626  -4.805  -0.452  0.00  0.00    -0.153 OA
ATOM     27  O   UNL     1     -11.719  -4.936  -2.049  0.00  0.00    -0.153 OA
BRANCH  25  28
ATOM     28  C   UNL     1     -11.890  -6.665  -0.168  0.00  0.00    +0.106 A 
ATOM     29  C   UNL     1     -10.834  -7.369  -0.718  0.00  0.00    +0.030 A 
ATOM     30  C   UNL     1     -10.545  -8.644  -0.269  0.00  0.00    +0.022 A 
ATOM     31  C   UNL     1     -11.320  -9.220   0.722  0.00  0.00    +0.041 A 
ATOM     32  C   UNL     1     -12.380  -8.518   1.267  0.00  0.00    +0.022 A 
ATOM     33  C   UNL     1     -12.664  -7.241   0.822  0.00  0.00    +0.030 A 
ATOM     34 CL   UNL     1     -10.963 -10.825   1.280  0.00  0.00    -0.084 Cl
ENDBRANCH  25  28
ENDBRANCH  23  25
ENDBRANCH   1  19
TORSDOF 7
