REMARK  Name = ZINC14988889
REMARK  11 active torsions:
REMARK  status: ('A' for Active; 'I' for Inactive)
REMARK    1  A    between atoms: C_1  and  C_2
REMARK    2  A    between atoms: C_2  and  C_3
REMARK    3  A    between atoms: C_3  and  C_4
REMARK    4  A    between atoms: C_4  and  C_19
REMARK    5  A    between atoms: N_7  and  C_11
REMARK    6  A    between atoms: C_11  and  C_12
REMARK    7  A    between atoms: C_12  and  C_13
REMARK    8  A    between atoms: C_18  and  N_69
REMARK    9  A    between atoms: C_24  and  C_25
REMARK   10  A    between atoms: C_24  and  N_71
REMARK   11  A    between atoms: C_26  and  C_27
REMARK                            x       y       z     vdW  Elec       q    Type
REMARK                         _______ _______ _______ _____ _____    ______ ____
ROOT
ATOM      1  C   UNL     1       1.481   1.632   0.122  0.00  0.00    +0.115 C 
ATOM      2  C   UNL     1       2.182   1.129  -1.124  0.00  0.00    +0.247 C 
ATOM      3  O   UNL     1       2.433  -0.022  -1.409  0.00  0.00    -0.273 OA
ATOM      4  N   UNL     1       2.470   2.228  -1.849  0.00  0.00    -0.224 N 
ATOM      5  C   UNL     1       2.051   3.344  -1.240  0.00  0.00    +0.309 C 
ATOM      6  O   UNL     1       2.197   4.460  -1.700  0.00  0.00    -0.252 OA
ATOM      7  N   UNL     1       1.452   3.093  -0.063  0.00  0.00    -0.285 N 
ATOM      8  H   UNL     1       1.073   3.747   0.546  0.00  0.00    +0.151 HD
ENDROOT
BRANCH   1   9
ATOM      9  C   UNL     1       0.059   1.071   0.203  0.00  0.00    +0.018 C 
ATOM     10  C   UNL     1      -0.669   1.695   1.396  0.00  0.00    -0.013 C 
ATOM     11  C   UNL     1      -2.110   1.175   1.435  0.00  0.00    -0.078 C 
ATOM     12  C   UNL     1      -2.136   0.898  -0.972  0.00  0.00    -0.078 C 
ATOM     13  C   UNL     1      -0.698   1.410  -1.083  0.00  0.00    -0.013 C 
ATOM     14  N   UNL     1      -2.791   1.554   0.179  0.00  0.00    +0.382 N 
ATOM     15  H   UNL     1      -2.730   2.573   0.061  0.00  0.00    -0.081 HD
BRANCH  14  16
ATOM     16  C   UNL     1      -4.215   1.164   0.240  0.00  0.00    -0.051 C 
BRANCH  16  17
ATOM     17  C   UNL     1      -4.906   2.008   1.279  0.00  0.00    -0.042 C 
ATOM     18  C   UNL     1      -5.974   2.728   0.948  0.00  0.00    +0.040 C 
BRANCH  18  19
ATOM     19  C   UNL     1      -6.648   3.553   1.962  0.00  0.00    +0.127 A 
ATOM     20  C   UNL     1      -7.746   4.334   1.758  0.00  0.00    +0.049 A 
ATOM     21  C   UNL     1      -8.048   4.939   2.993  0.00  0.00    +0.042 A 
ATOM     22  C   UNL     1      -7.132   4.504   3.881  0.00  0.00    +0.195 A 
ATOM     23  O   UNL     1      -6.292   3.663   3.257  0.00  0.00    -0.464 OA
ENDBRANCH  18  19
ENDBRANCH  16  17
ENDBRANCH  14  16
ENDBRANCH   1   9
BRANCH   1  24
ATOM     24  C   UNL     1       2.275   1.264   1.377  0.00  0.00    +0.035 C 
BRANCH  24  26
ATOM     25  C   UNL     1       4.442   1.570   2.582  0.00  0.00    +0.004 C 
ATOM     26  C   UNL     1       3.647   1.939   1.328  0.00  0.00    -0.001 C 
ENDBRANCH  24  26
ENDBRANCH   1  24
BRANCH   4  27
ATOM     27  C   UNL     1       3.155   2.205  -3.143  0.00  0.00    +0.116 C 
BRANCH  27  28
ATOM     28  C   UNL     1       4.666   2.307  -2.922  0.00  0.00    +0.004 C 
BRANCH  28  29
ATOM     29  C   UNL     1       5.374   2.410  -4.274  0.00  0.00    -0.068 C 
ATOM     30  C   UNL     1       5.191   1.097  -5.064  0.00  0.00    -0.017 C 
ATOM     31  C   UNL     1       6.568   0.910  -5.754  0.00  0.00    -0.020 C 
ATOM     32  C   UNL     1       7.536   1.454  -4.674  0.00  0.00    -0.079 C 
ATOM     33  C   UNL     1       7.140   2.723  -2.640  0.00  0.00    -0.096 C 
ATOM     34  N   UNL     1       6.821   2.605  -4.087  0.00  0.00    +0.380 N 
ATOM     35  H   UNL     1       7.112   3.466  -4.566  0.00  0.00    -0.082 HD
ENDBRANCH  28  29
ENDBRANCH  27  28
ENDBRANCH   4  27
TORSDOF 9
