REMARK  Name = ZINC39325110
REMARK  10 active torsions:
REMARK  status: ('A' for Active; 'I' for Inactive)
REMARK    1  A    between atoms: C_1  and  C_2
REMARK    2  A    between atoms: C_6  and  C_8
REMARK    3  A    between atoms: C_8  and  C_9
REMARK    4  A    between atoms: C_9  and  N_10
REMARK    5  A    between atoms: N_10  and  C_11
REMARK    6  A    between atoms: N_10  and  S_26
REMARK    7  A    between atoms: C_11  and  C_12
REMARK    8  A    between atoms: C_16  and  C_25
REMARK    9  A    between atoms: C_18  and  C_24
REMARK   10  A    between atoms: S_26  and  C_29
REMARK                            x       y       z     vdW  Elec       q    Type
REMARK                         _______ _______ _______ _____ _____    ______ ____
ROOT
ATOM      1  N   UNL     1       1.460  -3.833   4.054  0.00  0.00    -0.175 NA
ENDROOT
BRANCH   1   2
ATOM      2  S   UNL     1       1.599  -2.921   5.429  0.00  0.00    +0.061 S 
ATOM      3  O   UNL     1       2.346  -3.696   6.357  0.00  0.00    -0.153 OA
ATOM      4  O   UNL     1       2.008  -1.624   5.017  0.00  0.00    -0.153 OA
BRANCH   2   5
ATOM      5  C   UNL     1      -0.019  -2.748   6.106  0.00  0.00    +0.106 A 
ATOM      6  C   UNL     1      -0.818  -1.688   5.722  0.00  0.00    +0.031 A 
ATOM      7  C   UNL     1      -2.087  -1.551   6.252  0.00  0.00    +0.040 A 
ATOM      8  C   UNL     1      -2.558  -2.478   7.167  0.00  0.00    +0.124 A 
ATOM      9  C   UNL     1      -1.757  -3.540   7.550  0.00  0.00    +0.040 A 
ATOM     10  C   UNL     1      -0.490  -3.677   7.015  0.00  0.00    +0.031 A 
ATOM     11  F   UNL     1      -3.799  -2.345   7.685  0.00  0.00    -0.205 F 
ENDBRANCH   2   5
ENDBRANCH   1   2
BRANCH   1  12
ATOM     12  C   UNL     1       1.324  -3.178   2.751  0.00  0.00    +0.114 C 
BRANCH  12  13
ATOM     13  C   UNL     1      -0.159  -3.043   2.400  0.00  0.00    +0.052 C 
BRANCH  13  19
ATOM     14  C   UNL     1      -0.629   1.129  -0.325  0.00  0.00    +0.044 C 
ATOM     15  C   UNL     1      -0.525  -0.373  -0.244  0.00  0.00    -0.050 A 
ATOM     16  C   UNL     1      -0.557  -1.131  -1.399  0.00  0.00    +0.003 A 
ATOM     17  C   UNL     1      -0.462  -2.508  -1.325  0.00  0.00    +0.001 A 
ATOM     18  C   UNL     1      -0.333  -3.127  -0.095  0.00  0.00    +0.004 A 
ATOM     19  C   UNL     1      -0.299  -2.368   1.060  0.00  0.00    -0.046 A 
ATOM     20  C   UNL     1      -0.391  -0.991   0.985  0.00  0.00    +0.007 A 
ENDBRANCH  13  19
ENDBRANCH  12  13
ENDBRANCH   1  12
BRANCH   1  21
ATOM     21  C   UNL     1       1.473  -5.296   4.140  0.00  0.00    +0.126 C 
BRANCH  21  22
ATOM     22  C   UNL     1       2.902  -5.805   3.943  0.00  0.00    +0.114 C 
ATOM     23  C   UNL     1       3.404  -5.281   2.612  0.00  0.00    -0.003 C 
ATOM     24  C   UNL     1       3.808  -6.201   1.691  0.00  0.00    -0.004 A 
ATOM     25  C   UNL     1       4.306  -5.782   0.380  0.00  0.00    -0.042 A 
ATOM     26  C   UNL     1       4.697  -6.733  -0.507  0.00  0.00    +0.007 A 
ATOM     27  C   UNL     1       4.633  -8.091  -0.192  0.00  0.00    -0.048 A 
ATOM     28  C   UNL     1       4.180  -8.544   1.007  0.00  0.00    +0.027 A 
ATOM     29  C   UNL     1       3.752  -7.641   1.997  0.00  0.00    +0.041 A 
ATOM     30  N   UNL     1       3.311  -8.097   3.169  0.00  0.00    -0.284 N 
ATOM     31  C   UNL     1       2.891  -7.305   4.140  0.00  0.00    +0.225 C 
ATOM     32  O   UNL     1       2.499  -7.780   5.189  0.00  0.00    -0.275 OA
ATOM     33  C   UNL     1       5.082  -9.095  -1.222  0.00  0.00    +0.044 C 
ATOM     34  C   UNL     1       4.382  -4.321   0.020  0.00  0.00    +0.044 C 
ATOM     35  H   UNL     1       3.296  -9.056   3.316  0.00  0.00    +0.155 HD
ENDBRANCH  21  22
ENDBRANCH   1  21
TORSDOF 7
