REMARK  Name = ZINC22936196
REMARK  9 active torsions:
REMARK  status: ('A' for Active; 'I' for Inactive)
REMARK    1  A    between atoms: C_1  and  C_2
REMARK    2  A    between atoms: C_2  and  N_3
REMARK    3  A    between atoms: C_7  and  C_9
REMARK    4  A    between atoms: C_9  and  N_10
REMARK    5  A    between atoms: N_10  and  C_11
REMARK    6  A    between atoms: C_11  and  C_12
REMARK    7  A    between atoms: C_17  and  O_18
REMARK    8  A    between atoms: O_18  and  C_19
REMARK    9  A    between atoms: C_19  and  C_20
REMARK                            x       y       z     vdW  Elec       q    Type
REMARK                         _______ _______ _______ _____ _____    ______ ____
ROOT
ATOM      1  C   UNL     1       3.031  -1.037  -2.064  0.00  0.00    -0.022 A 
ATOM      2  C   UNL     1       3.232  -1.341  -3.397  0.00  0.00    +0.020 A 
ATOM      3  C   UNL     1       3.970  -0.488  -4.198  0.00  0.00    +0.018 A 
ATOM      4  C   UNL     1       4.510   0.670  -3.666  0.00  0.00    +0.019 A 
ATOM      5  C   UNL     1       4.311   0.977  -2.335  0.00  0.00    +0.047 A 
ATOM      6  C   UNL     1       3.566   0.127  -1.531  0.00  0.00    +0.122 A 
ATOM      7 BR   UNL     1       4.244  -0.907  -6.021  0.00  0.00    -0.050 Br
ENDROOT
BRANCH   1   8
ATOM      8  C   UNL     1       2.227  -1.966  -1.192  0.00  0.00    -0.043 C 
BRANCH   8   9
ATOM      9  N   UNL     1       0.860  -1.446  -1.052  0.00  0.00    +0.383 N 
ATOM     10  H   UNL     1       0.430  -1.382  -1.962  0.00  0.00    -0.085 HD
ATOM     11  H   UNL     1       0.891  -0.530  -0.630  0.00  0.00    -0.085 HD
BRANCH   9  12
ATOM     12  C   UNL     1       0.076  -2.351  -0.202  0.00  0.00    -0.063 C 
BRANCH  12  17
ATOM     13  N   UNL     1      -2.076  -2.612   0.960  0.00  0.00    -0.301 NA
ATOM     14  C   UNL     1      -3.283  -3.090   0.252  0.00  0.00    +0.084 C 
ATOM     15  C   UNL     1      -3.539  -2.032  -0.850  0.00  0.00    +0.017 C 
ATOM     16  C   UNL     1      -2.093  -1.669  -1.279  0.00  0.00    +0.018 C 
ATOM     17  C   UNL     1      -1.307  -1.747   0.047  0.00  0.00    +0.040 C 
BRANCH  13  19
ATOM     18  C   UNL     1      -2.048  -4.546   2.463  0.00  0.00    +0.020 C 
ATOM     19  C   UNL     1      -1.260  -3.740   1.428  0.00  0.00    +0.081 C 
ENDBRANCH  13  19
ENDBRANCH  12  17
ENDBRANCH   9  12
ENDBRANCH   8   9
ENDBRANCH   1   8
BRANCH   6  20
ATOM     20  O   UNL     1       3.366   0.430  -0.221  0.00  0.00    -0.487 OA
BRANCH  20  21
ATOM     21  C   UNL     1       3.946   1.644   0.260  0.00  0.00    +0.266 C 
BRANCH  21  22
ATOM     22  C   UNL     1       3.620   1.811   1.722  0.00  0.00    +0.008 A 
ATOM     23  C   UNL     1       2.869   0.853   2.377  0.00  0.00    +0.010 A 
ATOM     24  C   UNL     1       2.571   1.006   3.717  0.00  0.00    +0.020 A 
ATOM     25  C   UNL     1       3.024   2.118   4.405  0.00  0.00    +0.042 A 
ATOM     26  C   UNL     1       3.776   3.077   3.751  0.00  0.00    +0.040 A 
ATOM     27  C   UNL     1       4.078   2.921   2.409  0.00  0.00    +0.049 A 
ATOM     28 CL   UNL     1       5.027   4.121   1.589  0.00  0.00    -0.083 Cl
ATOM     29 CL   UNL     1       2.648   2.311   6.089  0.00  0.00    -0.083 Cl
ENDBRANCH  21  22
ENDBRANCH  20  21
ENDBRANCH   6  20
TORSDOF 8
