REMARK  Name = ZINC36491139
REMARK  7 active torsions:
REMARK  status: ('A' for Active; 'I' for Inactive)
REMARK    1  A    between atoms: C_3  and  C_10
REMARK    2  A    between atoms: C_5  and  N_7
REMARK    3  A    between atoms: N_12  and  C_13
REMARK    4  A    between atoms: N_12  and  C_19
REMARK    5  A    between atoms: C_19  and  C_21
REMARK    6  A    between atoms: C_19  and  C_28
REMARK    7  A    between atoms: N_30  and  C_31
REMARK                            x       y       z     vdW  Elec       q    Type
REMARK                         _______ _______ _______ _____ _____    ______ ____
ROOT
ATOM      1  C   UNL     1       4.058   2.095   0.365  0.00  0.00    +0.248 C 
ATOM      2  O   UNL     1       5.196   1.667   0.357  0.00  0.00    -0.270 OA
ATOM      3  N   UNL     1       3.821   3.381   0.039  0.00  0.00    -0.279 N 
ENDROOT
BRANCH   1   6
ATOM      4  C   UNL     1       0.606   0.891   1.223  0.00  0.00    +0.003 A 
ATOM      5  C   UNL     1       1.649   1.726   0.880  0.00  0.00    +0.013 A 
ATOM      6  C   UNL     1       2.936   1.206   0.733  0.00  0.00    +0.039 A 
ATOM      7  C   UNL     1       3.158  -0.157   0.933  0.00  0.00    +0.045 A 
ATOM      8  C   UNL     1       2.106  -0.981   1.276  0.00  0.00    +0.127 A 
ATOM      9  C   UNL     1       0.833  -0.459   1.420  0.00  0.00    +0.033 A 
BRANCH   8  10
ATOM     10  N   UNL     1       2.340  -2.427   1.489  0.00  0.00    +0.056 N 
ATOM     11  O   UNL     1       3.452  -2.885   1.363  0.00  0.00    -0.126 OA
ATOM     12  O   UNL     1       1.419  -3.151   1.789  0.00  0.00    -0.126 OA
ENDBRANCH   8  10
ENDBRANCH   1   6
BRANCH   3  13
ATOM     13  C   UNL     1       2.479   3.944   0.209  0.00  0.00    +0.077 C 
ATOM     14  C   UNL     1       1.537   3.343  -0.836  0.00  0.00    +0.022 C 
ATOM     15  C   UNL     1       0.136   3.931  -0.658  0.00  0.00    +0.002 C 
ATOM     16  C   UNL     1       0.193   5.449  -0.837  0.00  0.00    +0.000 C 
ATOM     17  C   UNL     1       1.135   6.050   0.209  0.00  0.00    +0.002 C 
ATOM     18  C   UNL     1       2.536   5.463   0.031  0.00  0.00    +0.022 C 
ENDBRANCH   3  13
BRANCH   3  19
ATOM     19  C   UNL     1       4.904   4.216  -0.485  0.00  0.00    +0.193 C 
BRANCH  19  20
ATOM     20  C   UNL     1       5.106   5.404   0.420  0.00  0.00    -0.018 A 
ATOM     21  C   UNL     1       5.087   6.684  -0.105  0.00  0.00    +0.007 A 
ATOM     22  C   UNL     1       5.272   7.774   0.725  0.00  0.00    +0.020 A 
ATOM     23  C   UNL     1       5.475   7.584   2.080  0.00  0.00    +0.041 A 
ATOM     24  C   UNL     1       5.494   6.304   2.604  0.00  0.00    +0.020 A 
ATOM     25  C   UNL     1       5.303   5.215   1.775  0.00  0.00    +0.007 A 
ATOM     26 CL   UNL     1       5.708   8.953   3.123  0.00  0.00    -0.084 Cl
ENDBRANCH  19  20
BRANCH  19  27
ATOM     27  C   UNL     1       4.545   4.694  -1.869  0.00  0.00    +0.238 C 
ATOM     28  O   UNL     1       3.455   4.439  -2.335  0.00  0.00    -0.273 OA
ATOM     29  N   UNL     1       5.436   5.404  -2.589  0.00  0.00    -0.311 N 
ATOM     30  H   UNL     1       6.309   5.608  -2.216  0.00  0.00    +0.149 HD
BRANCH  29  31
ATOM     31  C   UNL     1       5.088   5.869  -3.934  0.00  0.00    +0.073 C 
ATOM     32  C   UNL     1       5.375   4.758  -4.947  0.00  0.00    +0.022 C 
ATOM     33  C   UNL     1       5.011   5.243  -6.351  0.00  0.00    +0.002 C 
ATOM     34  C   UNL     1       5.846   6.478  -6.697  0.00  0.00    +0.000 C 
ATOM     35  C   UNL     1       5.559   7.588  -5.684  0.00  0.00    +0.002 C 
ATOM     36  C   UNL     1       5.923   7.103  -4.279  0.00  0.00    +0.022 C 
ENDBRANCH  29  31
ENDBRANCH  19  27
ENDBRANCH   3  19
TORSDOF 7
