REMARK  Name = ZINC39325386
REMARK  10 active torsions:
REMARK  status: ('A' for Active; 'I' for Inactive)
REMARK    1  A    between atoms: C_1  and  C_2
REMARK    2  A    between atoms: C_7  and  C_8
REMARK    3  A    between atoms: C_8  and  C_9
REMARK    4  A    between atoms: C_9  and  N_10
REMARK    5  A    between atoms: N_10  and  C_11
REMARK    6  A    between atoms: N_10  and  S_26
REMARK    7  A    between atoms: C_11  and  C_12
REMARK    8  A    between atoms: C_17  and  O_24
REMARK    9  A    between atoms: O_24  and  C_25
REMARK   10  A    between atoms: S_26  and  C_29
REMARK                            x       y       z     vdW  Elec       q    Type
REMARK                         _______ _______ _______ _____ _____    ______ ____
ROOT
ATOM      1  N   UNL     1      -1.475   1.226   4.491  0.00  0.00    -0.175 NA
ENDROOT
BRANCH   1   2
ATOM      2  S   UNL     1      -1.054   0.189   5.711  0.00  0.00    +0.063 S 
ATOM      3  O   UNL     1      -1.202   0.910   6.926  0.00  0.00    -0.153 OA
ATOM      4  O   UNL     1      -1.738  -1.032   5.461  0.00  0.00    -0.153 OA
BRANCH   2   5
ATOM      5  C   UNL     1       0.666  -0.153   5.534  0.00  0.00    +0.133 A 
ATOM      6  C   UNL     1       1.553   0.374   6.411  0.00  0.00    +0.031 A 
ATOM      7  C   UNL     1       2.921   0.125   6.302  0.00  0.00    +0.004 A 
ATOM      8  C   UNL     1       3.421  -0.654   5.314  0.00  0.00    +0.031 A 
ATOM      9  C   UNL     1       2.549  -1.241   4.357  0.00  0.00    +0.102 A 
ATOM     10  C   UNL     1       1.118  -0.985   4.475  0.00  0.00    +0.126 A 
ATOM     11  N   UNL     1       0.398  -1.589   3.529  0.00  0.00    -0.189 NA
ATOM     12  S   UNL     1       1.459  -2.386   2.619  0.00  0.00    +0.117 S 
ATOM     13  N   UNL     1       2.858  -2.028   3.326  0.00  0.00    -0.191 NA
ENDBRANCH   2   5
ENDBRANCH   1   2
BRANCH   1  14
ATOM     14  C   UNL     1      -1.760   0.704   3.152  0.00  0.00    +0.114 C 
BRANCH  14  15
ATOM     15  C   UNL     1      -0.751   1.279   2.155  0.00  0.00    +0.052 C 
BRANCH  15  22
ATOM     16  C   UNL     1      -2.694   2.780   0.632  0.00  0.00    +0.044 C 
ATOM     17  C   UNL     1      -2.047   1.559   0.032  0.00  0.00    -0.047 A 
ATOM     18  C   UNL     1      -2.378   1.160  -1.250  0.00  0.00    +0.003 A 
ATOM     19  C   UNL     1      -1.785   0.039  -1.800  0.00  0.00    +0.000 A 
ATOM     20  C   UNL     1      -0.860  -0.682  -1.069  0.00  0.00    +0.000 A 
ATOM     21  C   UNL     1      -0.527  -0.283   0.212  0.00  0.00    +0.004 A 
ATOM     22  C   UNL     1      -1.118   0.840   0.761  0.00  0.00    -0.043 A 
ENDBRANCH  15  22
ENDBRANCH  14  15
ENDBRANCH   1  14
BRANCH   1  23
ATOM     23  C   UNL     1      -1.563   2.665   4.750  0.00  0.00    +0.126 C 
BRANCH  23  24
ATOM     24  C   UNL     1      -3.006   3.132   4.552  0.00  0.00    +0.114 C 
ATOM     25  C   UNL     1      -3.007   4.648   4.538  0.00  0.00    -0.003 C 
ATOM     26  C   UNL     1      -3.780   5.281   5.465  0.00  0.00    -0.004 A 
ATOM     27  C   UNL     1      -3.838   6.742   5.521  0.00  0.00    +0.055 A 
ATOM     28  C   UNL     1      -4.624   7.332   6.465  0.00  0.00    +0.121 A 
ATOM     29  C   UNL     1      -5.369   6.568   7.371  0.00  0.00    +0.047 A 
ATOM     30  C   UNL     1      -5.356   5.210   7.367  0.00  0.00    +0.027 A 
ATOM     31  C   UNL     1      -4.575   4.505   6.432  0.00  0.00    +0.041 A 
ATOM     32  N   UNL     1      -4.572   3.171   6.440  0.00  0.00    -0.284 N 
ATOM     33  C   UNL     1      -3.863   2.447   5.593  0.00  0.00    +0.225 C 
ATOM     34  O   UNL     1      -3.900   1.232   5.650  0.00  0.00    -0.275 OA
ATOM     35  H   UNL     1      -5.115   2.712   7.100  0.00  0.00    +0.155 HD
BRANCH  28  36
ATOM     36  O   UNL     1      -4.686   8.688   6.527  0.00  0.00    -0.495 OA
ATOM     37  C   UNL     1      -5.526   9.254   7.536  0.00  0.00    +0.277 C 
ENDBRANCH  28  36
ENDBRANCH  23  24
ENDBRANCH   1  23
TORSDOF 8
