REMARK  Name = ZINC04230063
REMARK  7 active torsions:
REMARK  status: ('A' for Active; 'I' for Inactive)
REMARK    1  A    between atoms: C_4  and  C_7
REMARK    2  A    between atoms: C_8  and  C_18
REMARK    3  A    between atoms: N_10  and  C_12
REMARK    4  A    between atoms: N_19  and  N_20
REMARK    5  A    between atoms: C_21  and  C_23
REMARK    6  A    between atoms: C_23  and  N_24
REMARK    7  A    between atoms: C_25  and  C_27
REMARK                            x       y       z     vdW  Elec       q    Type
REMARK                         _______ _______ _______ _____ _____    ______ ____
ROOT
ATOM      1  C   UNL     1       5.736   0.073  -0.148  0.00  0.00    +0.142 C 
ATOM      2  N   UNL     1       4.489  -0.225   0.057  0.00  0.00    -0.188 NA
ENDROOT
BRANCH   1   4
ATOM      3  C   UNL     1       6.518  -2.433  -0.062  0.00  0.00    +0.102 A 
ATOM      4  C   UNL     1       6.756  -0.990  -0.152  0.00  0.00    +0.040 A 
ATOM      5  C   UNL     1       8.110  -0.822  -0.247  0.00  0.00    +0.124 A 
ATOM      6  N   UNL     1       8.685  -2.042  -0.210  0.00  0.00    -0.239 N 
ATOM      7  N   UNL     1       7.694  -3.021  -0.101  0.00  0.00    -0.166 NA
BRANCH   3  11
ATOM      8  C   UNL     1       2.739  -4.354   0.259  0.00  0.00    +0.000 A 
ATOM      9  C   UNL     1       2.913  -3.322  -0.645  0.00  0.00    +0.001 A 
ATOM     10  C   UNL     1       4.137  -2.694  -0.754  0.00  0.00    +0.010 A 
ATOM     11  C   UNL     1       5.200  -3.103   0.050  0.00  0.00    +0.003 A 
ATOM     12  C   UNL     1       5.021  -4.147   0.956  0.00  0.00    +0.010 A 
ATOM     13  C   UNL     1       3.791  -4.763   1.060  0.00  0.00    +0.001 A 
ENDBRANCH   3  11
BRANCH   6  14
ATOM     14  C   UNL     1      10.062  -2.289  -0.278  0.00  0.00    +0.065 A 
ATOM     15  C   UNL     1      10.955  -1.231  -0.393  0.00  0.00    +0.028 A 
ATOM     16  C   UNL     1      12.312  -1.478  -0.453  0.00  0.00    +0.002 A 
ATOM     17  C   UNL     1      12.783  -2.778  -0.413  0.00  0.00    +0.000 A 
ATOM     18  C   UNL     1      11.896  -3.834  -0.305  0.00  0.00    +0.002 A 
ATOM     19  C   UNL     1      10.538  -3.593  -0.237  0.00  0.00    +0.028 A 
ENDBRANCH   6  14
ENDBRANCH   1   4
BRANCH   2  20
ATOM     20  N   UNL     1       3.519   0.786   0.061  0.00  0.00    -0.206 N 
ATOM     21  C   UNL     1       2.224   0.477   0.274  0.00  0.00    +0.249 C 
ATOM     22  O   UNL     1       1.899  -0.677   0.462  0.00  0.00    -0.272 OA
ATOM     23  H   UNL     1       3.779   1.708  -0.090  0.00  0.00    +0.177 HD
BRANCH  21  24
ATOM     24  C   UNL     1       1.181   1.564   0.278  0.00  0.00    +0.202 C 
BRANCH  24  25
ATOM     25  N   UNL     1      -0.137   0.975   0.529  0.00  0.00    -0.303 N 
ATOM     26  C   UNL     1      -1.230   1.762   0.571  0.00  0.00    +0.245 C 
ATOM     27  O   UNL     1      -1.122   2.962   0.407  0.00  0.00    -0.270 OA
ATOM     28  H   UNL     1      -0.223   0.018   0.660  0.00  0.00    +0.150 HD
BRANCH  26  29
ATOM     29  C   UNL     1      -2.557   1.168   0.818  0.00  0.00    +0.044 A 
ATOM     30  C   UNL     1      -2.678  -0.181   1.116  0.00  0.00    +0.013 A 
ATOM     31  C   UNL     1      -3.925  -0.746   1.350  0.00  0.00    +0.001 A 
ATOM     32  C   UNL     1      -5.061   0.004   1.294  0.00  0.00    +0.008 A 
ATOM     33  C   UNL     1      -4.987   1.376   0.995  0.00  0.00    -0.017 A 
ATOM     34  C   UNL     1      -3.724   1.971   0.758  0.00  0.00    -0.006 A 
ATOM     35  C   UNL     1      -3.652   3.338   0.457  0.00  0.00    +0.009 A 
ATOM     36  C   UNL     1      -4.794   4.078   0.403  0.00  0.00    +0.001 A 
ATOM     37  C   UNL     1      -6.037   3.496   0.640  0.00  0.00    +0.001 A 
ATOM     38  C   UNL     1      -6.145   2.170   0.932  0.00  0.00    +0.008 A 
ENDBRANCH  26  29
ENDBRANCH  24  25
ENDBRANCH  21  24
ENDBRANCH   2  20
TORSDOF 7
