REMARK  Name = ZINC13033000
REMARK  9 active torsions:
REMARK  status: ('A' for Active; 'I' for Inactive)
REMARK    1  A    between atoms: C_1  and  C_2
REMARK    2  A    between atoms: C_2  and  C_3
REMARK    3  A    between atoms: C_10  and  C_15
REMARK    4  A    between atoms: C_15  and  N_63
REMARK    5  A    between atoms: C_16  and  C_17
REMARK    6  A    between atoms: C_16  and  N_63
REMARK    7  A    between atoms: N_21  and  C_22
REMARK    8  A    between atoms: C_22  and  C_23
REMARK    9  A    between atoms: C_28  and  N_63
REMARK                            x       y       z     vdW  Elec       q    Type
REMARK                         _______ _______ _______ _____ _____    ______ ____
ROOT
ATOM      1  N   UNL     1       0.926   3.362  -2.930  0.00  0.00    +0.389 N 
ATOM      2  H   UNL     1       0.170   3.632  -2.289  0.00  0.00    -0.080 HD
ENDROOT
BRANCH   1   3
ATOM      3  C   UNL     1       1.860   4.498  -3.076  0.00  0.00    -0.068 C 
ATOM      4  C   UNL     1       3.217   4.013  -3.591  0.00  0.00    -0.015 C 
ATOM      5  C   UNL     1       4.168   5.204  -3.724  0.00  0.00    -0.002 C 
ATOM      6  C   UNL     1       4.348   5.868  -2.357  0.00  0.00    -0.000 C 
ATOM      7  C   UNL     1       2.991   6.354  -1.843  0.00  0.00    -0.002 C 
ATOM      8  C   UNL     1       2.041   5.163  -1.710  0.00  0.00    -0.015 C 
ENDBRANCH   1   3
BRANCH   1   9
ATOM      9  C   UNL     1       0.342   3.017  -4.243  0.00  0.00    -0.037 C 
BRANCH   9  17
ATOM     10  C   UNL     1      -1.400   8.185  -7.166  0.00  0.00    -0.047 A 
ATOM     11  C   UNL     1      -2.704   8.201  -6.690  0.00  0.00    +0.005 A 
ATOM     12  C   UNL     1      -3.155   7.213  -5.841  0.00  0.00    +0.026 A 
ATOM     13  C   UNL     1      -2.296   6.190  -5.454  0.00  0.00    +0.049 A 
ATOM     14  C   UNL     1      -0.974   6.178  -5.938  0.00  0.00    -0.001 A 
ATOM     15  C   UNL     1      -0.539   7.190  -6.800  0.00  0.00    +0.013 A 
ATOM     16  C   UNL     1      -0.076   5.100  -5.520  0.00  0.00    +0.017 A 
ATOM     17  C   UNL     1      -0.555   4.143  -4.687  0.00  0.00    +0.001 A 
ATOM     18  C   UNL     1      -1.889   4.202  -4.231  0.00  0.00    +0.251 A 
ATOM     19  O   UNL     1      -2.299   3.335  -3.478  0.00  0.00    -0.268 OA
ATOM     20  N   UNL     1      -2.720   5.191  -4.605  0.00  0.00    -0.322 N 
ATOM     21  H   UNL     1      -3.631   5.201  -4.272  0.00  0.00    +0.169 HD
BRANCH  10  23
ATOM     22  C   UNL     1      -1.194   8.860  -9.543  0.00  0.00    +0.009 C 
ATOM     23  C   UNL     1      -0.930   9.275  -8.094  0.00  0.00    +0.032 C 
ENDBRANCH  10  23
ENDBRANCH   9  17
ENDBRANCH   1   9
BRANCH   1  24
ATOM     24  C   UNL     1       1.636   2.193  -2.370  0.00  0.00    +0.001 C 
BRANCH  24  25
ATOM     25  C   UNL     1       1.783   2.386  -0.882  0.00  0.00    +0.136 A 
ATOM     26  N   UNL     1       2.851   2.808  -0.250  0.00  0.00    -0.115 NA
ATOM     27  N   UNL     1       2.582   2.837   1.010  0.00  0.00    -0.023 NA
ATOM     28  N   UNL     1       1.368   2.449   1.197  0.00  0.00    -0.044 NA
ATOM     29  N   UNL     1       0.845   2.156   0.055  0.00  0.00    -0.224 N 
BRANCH  29  30
ATOM     30  C   UNL     1      -0.518   1.671  -0.179  0.00  0.00    +0.221 C 
BRANCH  30  31
ATOM     31  C   UNL     1      -0.530   0.165  -0.132  0.00  0.00    +0.126 A 
ATOM     32  C   UNL     1      -0.728  -0.586   0.967  0.00  0.00    +0.046 A 
ATOM     33  C   UNL     1      -0.661  -1.937   0.556  0.00  0.00    +0.041 A 
ATOM     34  C   UNL     1      -0.418  -1.931  -0.767  0.00  0.00    +0.195 A 
ATOM     35  O   UNL     1      -0.340  -0.655  -1.178  0.00  0.00    -0.466 OA
ENDBRANCH  30  31
ENDBRANCH  29  30
ENDBRANCH  24  25
ENDBRANCH   1  24
TORSDOF 8
