REMARK  Name = ZINC33026626
REMARK  5 active torsions:
REMARK  status: ('A' for Active; 'I' for Inactive)
REMARK    1  A    between atoms: C_4  and  S_21
REMARK    2  A    between atoms: C_5  and  N_7
REMARK    3  A    between atoms: N_10  and  C_11
REMARK    4  A    between atoms: S_21  and  C_22
REMARK    5  A    between atoms: C_22  and  C_23
REMARK                            x       y       z     vdW  Elec       q    Type
REMARK                         _______ _______ _______ _____ _____    ______ ____
ROOT
ATOM      1  C   UNL     1       3.774  -6.159   0.085  0.00  0.00    +0.002 A 
ATOM      2  C   UNL     1       4.981  -6.834   0.063  0.00  0.00    +0.001 A 
ATOM      3  C   UNL     1       6.171  -6.130   0.054  0.00  0.00    +0.016 A 
ATOM      4  C   UNL     1       6.156  -4.742   0.062  0.00  0.00    +0.029 A 
ATOM      5  C   UNL     1       4.938  -4.062   0.089  0.00  0.00    +0.048 A 
ATOM      6  C   UNL     1       3.750  -4.777   0.098  0.00  0.00    +0.024 A 
ENDROOT
BRANCH   5   7
ATOM      7  N   UNL     1       4.915  -2.661   0.102  0.00  0.00    -0.268 N 
ATOM      8  C   UNL     1       3.823  -2.009   0.547  0.00  0.00    +0.308 C 
ATOM      9  O   UNL     1       2.897  -2.632   1.029  0.00  0.00    -0.252 OA
ATOM     10  N   UNL     1       3.757  -0.665   0.458  0.00  0.00    -0.269 N 
ATOM     11  H   UNL     1       5.789  -2.094  -0.251  0.00  0.00    +0.156 HD
ATOM     12  H   UNL     1       4.554  -0.109  -0.056  0.00  0.00    +0.156 HD
BRANCH  10  13
ATOM     13  C   UNL     1       2.674   0.022   1.021  0.00  0.00    +0.038 A 
ATOM     14  C   UNL     1       2.078  -0.452   2.182  0.00  0.00    +0.027 A 
ATOM     15  C   UNL     1       1.009   0.225   2.737  0.00  0.00    +0.051 A 
ATOM     16  C   UNL     1       0.527   1.379   2.136  0.00  0.00    +0.162 A 
ATOM     17  C   UNL     1       1.124   1.857   0.976  0.00  0.00    +0.164 A 
ATOM     18  C   UNL     1       2.196   1.177   0.418  0.00  0.00    +0.072 A 
ATOM     19  O   UNL     1       0.671   2.993   0.377  0.00  0.00    -0.485 OA
ATOM     20  C   UNL     1      -0.637   3.440   0.750  0.00  0.00    +0.270 C 
ATOM     21  C   UNL     1      -0.746   3.383   2.280  0.00  0.00    +0.270 C 
ATOM     22  O   UNL     1      -0.533   2.028   2.693  0.00  0.00    -0.485 OA
ENDBRANCH  10  13
ENDBRANCH   5   7
BRANCH   4  23
ATOM     23  S   UNL     1       7.670  -3.842   0.045  0.00  0.00    -0.117 S 
BRANCH  23  24
ATOM     24  C   UNL     1       8.947  -5.130   0.011  0.00  0.00    +0.130 C 
BRANCH  24  25
ATOM     25  C   UNL     1      10.309  -4.487  -0.007  0.00  0.00    +0.059 A 
ATOM     26  C   UNL     1      11.083  -4.479   1.138  0.00  0.00    +0.094 A 
ATOM     27  C   UNL     1      12.348  -3.881   1.095  0.00  0.00    +0.259 A 
ATOM     28  O   UNL     1      13.058  -3.861   2.088  0.00  0.00    -0.267 OA
ATOM     29  N   UNL     1      12.768  -3.321  -0.059  0.00  0.00    -0.268 N 
ATOM     30  C   UNL     1      13.993  -2.729  -0.115  0.00  0.00    +0.096 A 
ATOM     31  C   UNL     1      14.436  -2.163  -1.260  0.00  0.00    +0.018 A 
ATOM     32  C   UNL     1      13.633  -2.177  -2.409  0.00  0.00    +0.005 A 
ATOM     33  C   UNL     1      12.405  -2.766  -2.364  0.00  0.00    +0.047 A 
ATOM     34  C   UNL     1      11.962  -3.350  -1.163  0.00  0.00    +0.140 A 
ATOM     35  N   UNL     1      10.762  -3.926  -1.117  0.00  0.00    -0.233 NA
ENDBRANCH  24  25
ENDBRANCH  23  24
ENDBRANCH   4  23
TORSDOF 5
