REMARK  Name = ZINC58849693
REMARK  6 active torsions:
REMARK  status: ('A' for Active; 'I' for Inactive)
REMARK    1  A    between atoms: C_1  and  O_2
REMARK    2  A    between atoms: O_2  and  C_3
REMARK    3  A    between atoms: C_8  and  N_9
REMARK    4  A    between atoms: N_9  and  S_10
REMARK    5  A    between atoms: S_10  and  C_13
REMARK    6  A    between atoms: C_26  and  C_29
REMARK                            x       y       z     vdW  Elec       q    Type
REMARK                         _______ _______ _______ _____ _____    ______ ____
ROOT
ATOM      1  C   UNL     1      -1.948  -4.049   1.417  0.00  0.00    +0.109 A 
ATOM      2  C   UNL     1      -1.839  -3.995   2.795  0.00  0.00    +0.030 A 
ATOM      3  C   UNL     1      -2.971  -3.821   3.565  0.00  0.00    +0.025 A 
ATOM      4  C   UNL     1      -4.217  -3.697   2.958  0.00  0.00    +0.031 A 
ATOM      5  C   UNL     1      -4.326  -3.737   1.577  0.00  0.00    -0.018 A 
ATOM      6  C   UNL     1      -3.182  -3.916   0.812  0.00  0.00    +0.034 A 
ATOM      7  C   UNL     1      -5.638  -3.567   0.888  0.00  0.00    +0.049 C 
ATOM      8  C   UNL     1      -6.185  -4.876   0.379  0.00  0.00    -0.023 C 
ATOM      9  C   UNL     1      -7.489  -4.898   0.496  0.00  0.00    -0.030 C 
ATOM     10  C   UNL     1      -7.999  -3.610   1.105  0.00  0.00    +0.033 C 
ATOM     11  C   UNL     1      -6.746  -2.994   1.769  0.00  0.00    +0.029 C 
ATOM     12  C   UNL     1      -6.691  -3.470   3.206  0.00  0.00    +0.105 C 
ATOM     13  N   UNL     1      -5.350  -3.540   3.748  0.00  0.00    -0.336 N 
ATOM     14  H   UNL     1      -5.238  -3.499   4.710  0.00  0.00    +0.147 HD
ENDROOT
BRANCH  12  15
ATOM     15  C   UNL     1      -7.341  -4.827   3.286  0.00  0.00    -0.023 A 
ATOM     16  C   UNL     1      -6.633  -5.955   2.914  0.00  0.00    +0.009 A 
ATOM     17  C   UNL     1      -7.225  -7.202   2.986  0.00  0.00    +0.050 A 
ATOM     18  C   UNL     1      -8.531  -7.325   3.431  0.00  0.00    +0.166 A 
ATOM     19  C   UNL     1      -9.245  -6.189   3.806  0.00  0.00    +0.167 A 
ATOM     20  C   UNL     1      -8.643  -4.943   3.736  0.00  0.00    +0.055 A 
ATOM     21  O   UNL     1     -10.494  -6.570   4.202  0.00  0.00    -0.453 OA
ATOM     22  C   UNL     1     -10.674  -7.900   3.681  0.00  0.00    +0.466 C 
ATOM     23  O   UNL     1      -9.333  -8.417   3.593  0.00  0.00    -0.453 OA
ENDBRANCH  12  15
BRANCH   1  24
ATOM     24  S   UNL     1      -0.507  -4.280   0.430  0.00  0.00    +0.072 S 
ATOM     25  O   UNL     1      -0.943  -4.835  -0.803  0.00  0.00    -0.150 OA
ATOM     26  O   UNL     1       0.453  -4.924   1.258  0.00  0.00    -0.150 OA
BRANCH  24  27
ATOM     27  N   UNL     1       0.098  -2.778   0.086  0.00  0.00    -0.213 N 
ATOM     28  H   UNL     1       0.172  -2.484  -0.836  0.00  0.00    +0.174 HD
BRANCH  27  34
ATOM     29  C   UNL     1       0.311  -0.554   1.017  0.00  0.00    +0.142 A 
ATOM     30  C   UNL     1       0.706   0.279   2.050  0.00  0.00    +0.049 A 
ATOM     31  C   UNL     1       1.292  -0.254   3.183  0.00  0.00    +0.024 A 
ATOM     32  C   UNL     1       1.487  -1.620   3.289  0.00  0.00    +0.043 A 
ATOM     33  C   UNL     1       1.095  -2.458   2.261  0.00  0.00    +0.048 A 
ATOM     34  C   UNL     1       0.500  -1.931   1.125  0.00  0.00    +0.091 A 
ATOM     35 CL   UNL     1       2.224  -2.282   4.714  0.00  0.00    -0.083 Cl
BRANCH  29  37
ATOM     36  C   UNL     1      -0.428   1.388  -0.140  0.00  0.00    +0.277 C 
ATOM     37  O   UNL     1      -0.265  -0.031  -0.099  0.00  0.00    -0.493 OA
ENDBRANCH  29  37
ENDBRANCH  27  34
ENDBRANCH  24  27
ENDBRANCH   1  24
TORSDOF 5
