REMARK  Name = ZINC32684906
REMARK  8 active torsions:
REMARK  status: ('A' for Active; 'I' for Inactive)
REMARK    1  A    between atoms: C_1  and  C_2
REMARK    2  A    between atoms: C_2  and  C_3
REMARK    3  A    between atoms: C_2  and  C_4
REMARK    4  A    between atoms: C_2  and  C_5
REMARK    5  A    between atoms: C_12  and  C_14
REMARK    6  A    between atoms: N_16  and  N_17
REMARK    7  A    between atoms: C_18  and  C_20
REMARK    8  A    between atoms: N_22  and  C_27
REMARK                            x       y       z     vdW  Elec       q    Type
REMARK                         _______ _______ _______ _____ _____    ______ ____
ROOT
ATOM      1  N   UNL     1      -3.535  -1.728  -1.437  0.00  0.00    -0.228 N 
ATOM      2  C   UNL     1      -4.658  -1.138  -0.982  0.00  0.00    +0.294 C 
ATOM      3  O   UNL     1      -4.757   0.074  -0.998  0.00  0.00    -0.265 OA
ATOM      4  H   UNL     1      -3.445  -2.825  -1.422  0.00  0.00    +0.173 HD
ENDROOT
BRANCH   2   5
ATOM      5  C   UNL     1      -5.766  -1.961  -0.466  0.00  0.00    +0.202 C 
ATOM      6  N   UNL     1      -5.669  -3.262  -0.451  0.00  0.00    -0.152 NA
ATOM      7  N   UNL     1      -6.708  -4.053   0.050  0.00  0.00    -0.158 N 
ATOM      8  C   UNL     1      -7.940  -3.538   0.233  0.00  0.00    +0.256 C 
ATOM      9  O   UNL     1      -8.832  -4.228   0.680  0.00  0.00    -0.272 OA
ATOM     10  C   UNL     1      -8.200  -2.093  -0.123  0.00  0.00    +0.201 C 
ATOM     11  N   UNL     1      -6.935  -1.355   0.007  0.00  0.00    -0.315 N 
ATOM     12  H   UNL     1      -6.925  -0.356   0.466  0.00  0.00    +0.148 HD
BRANCH   7  13
ATOM     13  C   UNL     1      -6.467  -5.397   0.359  0.00  0.00    +0.060 A 
ATOM     14  C   UNL     1      -5.363  -5.747   1.125  0.00  0.00    +0.025 A 
ATOM     15  C   UNL     1      -5.131  -7.074   1.432  0.00  0.00    +0.002 A 
ATOM     16  C   UNL     1      -5.991  -8.053   0.970  0.00  0.00    +0.000 A 
ATOM     17  C   UNL     1      -7.089  -7.707   0.203  0.00  0.00    +0.002 A 
ATOM     18  C   UNL     1      -7.329  -6.383  -0.103  0.00  0.00    +0.025 A 
ENDBRANCH   7  13
ENDBRANCH   2   5
BRANCH   1  21
ATOM     19  C   UNL     1      -1.358  -1.536  -2.381  0.00  0.00    +0.267 C 
ATOM     20  O   UNL     1      -1.259  -2.749  -2.365  0.00  0.00    -0.268 OA
ATOM     21  N   UNL     1      -2.481  -0.946  -1.927  0.00  0.00    -0.230 N 
ATOM     22  H   UNL     1      -2.571   0.150  -1.942  0.00  0.00    +0.173 HD
BRANCH  19  29
ATOM     23  C   UNL     1       4.098   0.785  -4.337  0.00  0.00    -0.001 C 
ATOM     24  C   UNL     1       3.373   1.961  -4.999  0.00  0.00    +0.009 C 
ATOM     25  C   UNL     1       2.199   2.383  -4.104  0.00  0.00    +0.043 C 
ATOM     26  C   UNL     1       1.437   1.154  -3.715  0.00  0.00    -0.006 A 
ATOM     27  C   UNL     1       1.851  -0.142  -3.829  0.00  0.00    -0.036 A 
ATOM     28  C   UNL     1       0.966  -1.120  -3.401  0.00  0.00    +0.024 A 
ATOM     29  C   UNL     1      -0.256  -0.718  -2.895  0.00  0.00    +0.076 A 
ATOM     30  S   UNL     1      -0.141   1.058  -3.031  0.00  0.00    -0.088 S 
ATOM     31  C   UNL     1       3.227  -0.469  -4.403  0.00  0.00    +0.040 C 
BRANCH  23  33
ATOM     32  C   UNL     1       6.296   1.777  -4.991  0.00  0.00    +0.011 C 
ATOM     33  C   UNL     1       5.418   0.526  -5.067  0.00  0.00    -0.035 C 
ATOM     34  C   UNL     1       6.144  -0.648  -4.407  0.00  0.00    +0.011 C 
ATOM     35  C   UNL     1       5.133   0.191  -6.532  0.00  0.00    +0.011 C 
ENDBRANCH  23  33
ENDBRANCH  19  29
ENDBRANCH   1  21
TORSDOF 5
