REMARK  Name = ZINC15047591
REMARK  7 active torsions:
REMARK  status: ('A' for Active; 'I' for Inactive)
REMARK    1  A    between atoms: C_1  and  C_2
REMARK    2  A    between atoms: C_2  and  C_4
REMARK    3  A    between atoms: C_2  and  N_17
REMARK    4  A    between atoms: N_6  and  C_7
REMARK    5  A    between atoms: C_10  and  S_13
REMARK    6  A    between atoms: S_13  and  N_16
REMARK    7  A    between atoms: C_21  and  C_22
REMARK                            x       y       z     vdW  Elec       q    Type
REMARK                         _______ _______ _______ _____ _____    ______ ____
ROOT
ATOM      1  C   UNL     1      -3.693   1.419   0.053  0.00  0.00    +0.038 C 
ATOM      2  C   UNL     1      -4.068   2.145   1.346  0.00  0.00    +0.166 C 
ENDROOT
BRANCH   2   3
ATOM      3  N   UNL     1      -5.375   2.787   1.185  0.00  0.00    -0.244 N 
ATOM      4  C   UNL     1      -6.367   2.443   1.989  0.00  0.00    +0.259 C 
ATOM      5  O   UNL     1      -6.223   1.606   2.860  0.00  0.00    -0.269 OA
ATOM      6  C   UNL     1      -7.659   3.127   1.775  0.00  0.00    +0.077 C 
ATOM      7  C   UNL     1      -8.835   2.981   2.435  0.00  0.00    +0.028 C 
ATOM      8  S   UNL     1      -7.247   4.200   0.405  0.00  0.00    -0.061 S 
ATOM      9  C   UNL     1      -5.537   3.719   0.224  0.00  0.00    +0.121 C 
ATOM     10  S   UNL     1      -4.383   4.298  -0.901  0.00  0.00    -0.027 S 
BRANCH   7  11
ATOM     11  C   UNL     1      -9.925   3.942   2.216  0.00  0.00    -0.024 A 
ATOM     12  C   UNL     1      -9.690   5.121   1.499  0.00  0.00    +0.011 A 
ATOM     13  C   UNL     1     -10.718   6.014   1.292  0.00  0.00    +0.039 A 
ATOM     14  C   UNL     1     -11.981   5.753   1.802  0.00  0.00    +0.123 A 
ATOM     15  C   UNL     1     -12.220   4.590   2.519  0.00  0.00    +0.039 A 
ATOM     16  C   UNL     1     -11.202   3.685   2.728  0.00  0.00    +0.011 A 
ATOM     17  F   UNL     1     -12.983   6.636   1.601  0.00  0.00    -0.205 F 
ENDBRANCH   7  11
ENDBRANCH   2   3
BRANCH   2  18
ATOM     18  C   UNL     1      -3.028   3.192   1.653  0.00  0.00    +0.238 C 
ATOM     19  O   UNL     1      -3.348   4.360   1.730  0.00  0.00    -0.273 OA
ATOM     20  N   UNL     1      -1.744   2.831   1.843  0.00  0.00    -0.284 N 
ATOM     21  H   UNL     1      -1.476   1.907   1.719  0.00  0.00    +0.155 HD
BRANCH  20  22
ATOM     22  C   UNL     1      -0.796   3.790   2.219  0.00  0.00    +0.034 A 
ATOM     23  C   UNL     1      -1.183   4.896   2.963  0.00  0.00    +0.025 A 
ATOM     24  C   UNL     1      -0.243   5.838   3.337  0.00  0.00    +0.030 A 
ATOM     25  C   UNL     1       1.080   5.681   2.966  0.00  0.00    +0.105 A 
ATOM     26  C   UNL     1       1.467   4.584   2.220  0.00  0.00    +0.030 A 
ATOM     27  C   UNL     1       0.532   3.639   1.842  0.00  0.00    +0.025 A 
BRANCH  25  28
ATOM     28  S   UNL     1       2.275   6.884   3.446  0.00  0.00    +0.056 S 
ATOM     29  O   UNL     1       3.342   6.791   2.512  0.00  0.00    -0.153 OA
ATOM     30  O   UNL     1       1.565   8.094   3.672  0.00  0.00    -0.153 OA
BRANCH  28  31
ATOM     31  N   UNL     1       2.885   6.412   4.911  0.00  0.00    -0.204 NA
ATOM     32  H   UNL     1       2.562   5.599   5.331  0.00  0.00    +0.144 HD
ATOM     33  H   UNL     1       3.564   6.948   5.349  0.00  0.00    +0.144 HD
ENDBRANCH  28  31
ENDBRANCH  25  28
ENDBRANCH  20  22
ENDBRANCH   2  18
TORSDOF 6
