REMARK  Name = ZINC35934166
REMARK  12 active torsions:
REMARK  status: ('A' for Active; 'I' for Inactive)
REMARK    1  A    between atoms: C_1  and  C_2
REMARK    2  A    between atoms: C_2  and  N_3
REMARK    3  A    between atoms: C_6  and  C_11
REMARK    4  A    between atoms: N_20  and  C_22
REMARK    5  A    between atoms: C_22  and  C_24
REMARK    6  A    between atoms: C_22  and  C_31
REMARK    7  A    between atoms: C_24  and  C_25
REMARK    8  A    between atoms: N_33  and  C_34
REMARK    9  A    between atoms: C_34  and  C_35
REMARK   10  A    between atoms: C_35  and  C_36
REMARK   11  A    between atoms: C_36  and  C_37
REMARK   12  A    between atoms: C_36  and  C_38
REMARK                            x       y       z     vdW  Elec       q    Type
REMARK                         _______ _______ _______ _____ _____    ______ ____
ROOT
ATOM      1  N   UNL     1      -1.372  -0.511   0.012  0.00  0.00    -0.257 N 
ATOM      2  C   UNL     1      -1.968  -0.736   1.220  0.00  0.00    +0.042 C 
ATOM      3  C   UNL     1      -3.231  -1.202   1.301  0.00  0.00    +0.058 C 
ATOM      4  C   UNL     1      -3.968  -1.468   0.004  0.00  0.00    +0.142 C 
ATOM      5  N   UNL     1      -3.238  -1.194  -1.246  0.00  0.00    -0.288 N 
ATOM      6  C   UNL     1      -1.978  -0.724  -1.163  0.00  0.00    +0.307 C 
ATOM      7  O   UNL     1      -1.369  -0.491  -2.189  0.00  0.00    -0.252 OA
ATOM      8  C   UNL     1      -3.615  -1.349   2.650  0.00  0.00    +0.247 C 
ATOM      9  O   UNL     1      -4.704  -1.752   3.015  0.00  0.00    -0.270 OA
ATOM     10  N   UNL     1      -2.620  -0.986   3.480  0.00  0.00    -0.280 N 
ATOM     11  C   UNL     1      -1.487  -0.565   2.644  0.00  0.00    +0.160 C 
ATOM     12  H   UNL     1      -3.656  -1.344  -2.108  0.00  0.00    +0.151 HD
ENDROOT
BRANCH   4  13
ATOM     13  C   UNL     1      -4.380  -2.917  -0.008  0.00  0.00    -0.022 A 
ATOM     14  C   UNL     1      -3.460  -3.894  -0.342  0.00  0.00    +0.007 A 
ATOM     15  C   UNL     1      -3.837  -5.224  -0.352  0.00  0.00    +0.020 A 
ATOM     16  C   UNL     1      -5.135  -5.577  -0.029  0.00  0.00    +0.041 A 
ATOM     17  C   UNL     1      -6.055  -4.599   0.304  0.00  0.00    +0.020 A 
ATOM     18  C   UNL     1      -5.675  -3.270   0.320  0.00  0.00    +0.007 A 
ATOM     19 CL   UNL     1      -5.609  -7.247  -0.043  0.00  0.00    -0.084 Cl
ENDBRANCH   4  13
BRANCH   1  21
ATOM     20  C   UNL     1      -0.019   1.526   0.010  0.00  0.00    +0.025 C 
ATOM     21  C   UNL     1       0.002  -0.004   0.002  0.00  0.00    +0.111 C 
ENDBRANCH   1  21
BRANCH  10  22
ATOM     22  C   UNL     1      -2.660  -1.007   4.944  0.00  0.00    +0.167 C 
BRANCH  22  23
ATOM     23  C   UNL     1      -2.914  -2.414   5.420  0.00  0.00    +0.234 C 
ATOM     24  O   UNL     1      -3.049  -3.311   4.615  0.00  0.00    -0.274 OA
ATOM     25  N   UNL     1      -2.991  -2.675   6.740  0.00  0.00    -0.314 N 
ATOM     26  H   UNL     1      -2.883  -1.958   7.384  0.00  0.00    +0.149 HD
BRANCH  25  27
ATOM     27  C   UNL     1      -3.238  -4.043   7.203  0.00  0.00    +0.104 C 
BRANCH  27  28
ATOM     28  C   UNL     1      -3.279  -4.065   8.732  0.00  0.00    +0.022 C 
BRANCH  28  29
ATOM     29  C   UNL     1      -3.537  -5.493   9.215  0.00  0.00    -0.016 C 
ATOM     30  C   UNL     1      -3.455  -5.538  10.742  0.00  0.00    +0.007 C 
ATOM     31  C   UNL     1      -4.930  -5.940   8.766  0.00  0.00    +0.007 C 
ENDBRANCH  28  29
ENDBRANCH  27  28
ENDBRANCH  25  27
ENDBRANCH  22  23
BRANCH  22  32
ATOM     32  C   UNL     1      -3.782  -0.091   5.437  0.00  0.00    +0.067 C 
BRANCH  32  33
ATOM     33  C   UNL     1      -3.466   1.335   5.067  0.00  0.00    -0.045 A 
ATOM     34  C   UNL     1      -2.742   2.130   5.936  0.00  0.00    +0.004 A 
ATOM     35  C   UNL     1      -2.452   3.439   5.596  0.00  0.00    +0.000 A 
ATOM     36  C   UNL     1      -2.886   3.951   4.388  0.00  0.00    +0.000 A 
ATOM     37  C   UNL     1      -3.609   3.156   3.518  0.00  0.00    +0.000 A 
ATOM     38  C   UNL     1      -3.895   1.846   3.856  0.00  0.00    +0.004 A 
ENDBRANCH  32  33
ENDBRANCH  22  32
ENDBRANCH  10  22
TORSDOF 9
