REMARK  Name = ZINC06444561
REMARK  11 active torsions:
REMARK  status: ('A' for Active; 'I' for Inactive)
REMARK    1  A    between atoms: C_1  and  C_2
REMARK    2  A    between atoms: C_7  and  C_8
REMARK    3  A    between atoms: C_13  and  C_18
REMARK    4  A    between atoms: C_21  and  O_26
REMARK    5  A    between atoms: C_22  and  O_24
REMARK    6  A    between atoms: O_24  and  C_25
REMARK    7  A    between atoms: O_26  and  C_27
REMARK    8  A    between atoms: C_29  and  C_40
REMARK    9  A    between atoms: C_30  and  C_31
REMARK   10  A    between atoms: C_31  and  O_33
REMARK   11  A    between atoms: O_33  and  C_34
REMARK                            x       y       z     vdW  Elec       q    Type
REMARK                         _______ _______ _______ _____ _____    ______ ____
ROOT
ATOM      1  C   UNL     1      -3.032   2.289  -1.927  0.00  0.00    +0.092 C 
ATOM      2  C   UNL     1      -2.581   2.227  -0.489  0.00  0.00    +0.024 C 
ATOM      3  C   UNL     1      -1.273   2.105  -0.181  0.00  0.00    +0.016 C 
ATOM      4  C   UNL     1      -0.815   2.042   1.255  0.00  0.00    +0.059 C 
ATOM      5  C   UNL     1      -1.771   2.850   2.135  0.00  0.00    +0.032 C 
ATOM      6  C   UNL     1      -3.182   2.276   1.974  0.00  0.00    +0.088 C 
ATOM      7  C   UNL     1      -3.559   2.305   0.518  0.00  0.00    +0.162 C 
ATOM      8  O   UNL     1      -4.730   2.397   0.207  0.00  0.00    -0.292 OA
ATOM      9  N   UNL     1      -0.330   2.031  -1.171  0.00  0.00    -0.321 N 
ATOM     10  C   UNL     1      -0.684   1.682  -2.445  0.00  0.00    +0.016 C 
ATOM     11  C   UNL     1      -1.962   1.784  -2.849  0.00  0.00    +0.065 C 
ATOM     12  C   UNL     1       0.366   1.178  -3.402  0.00  0.00    +0.061 C 
ATOM     13  H   UNL     1       0.723   2.254  -0.946  0.00  0.00    +0.152 HD
ENDROOT
BRANCH   1  20
ATOM     14  C   UNL     1      -5.711   2.999  -2.743  0.00  0.00    +0.044 C 
ATOM     15  C   UNL     1      -4.639   4.057  -2.672  0.00  0.00    -0.046 A 
ATOM     16  C   UNL     1      -4.938   5.367  -2.998  0.00  0.00    +0.003 A 
ATOM     17  C   UNL     1      -3.956   6.337  -2.933  0.00  0.00    +0.000 A 
ATOM     18  C   UNL     1      -2.674   5.997  -2.541  0.00  0.00    +0.000 A 
ATOM     19  C   UNL     1      -2.376   4.688  -2.212  0.00  0.00    +0.005 A 
ATOM     20  C   UNL     1      -3.358   3.717  -2.282  0.00  0.00    -0.032 A 
ENDBRANCH   1  20
BRANCH   5  21
ATOM     21  C   UNL     1      -1.343   2.747   3.576  0.00  0.00    -0.040 A 
ATOM     22  C   UNL     1      -1.290   1.510   4.192  0.00  0.00    +0.008 A 
ATOM     23  C   UNL     1      -0.899   1.409   5.514  0.00  0.00    +0.049 A 
ATOM     24  C   UNL     1      -0.558   2.550   6.224  0.00  0.00    +0.161 A 
ATOM     25  C   UNL     1      -0.611   3.794   5.604  0.00  0.00    +0.162 A 
ATOM     26  C   UNL     1      -1.000   3.887   4.277  0.00  0.00    +0.053 A 
BRANCH  25  27
ATOM     27  O   UNL     1      -0.278   4.916   6.297  0.00  0.00    -0.491 OA
ATOM     28  C   UNL     1      -0.356   6.158   5.596  0.00  0.00    +0.277 C 
ENDBRANCH  25  27
BRANCH  24  29
ATOM     29  O   UNL     1      -0.172   2.452   7.525  0.00  0.00    -0.491 OA
ATOM     30  C   UNL     1      -0.141   1.143   8.096  0.00  0.00    +0.277 C 
ENDBRANCH  24  29
ENDBRANCH   5  21
BRANCH  11  31
ATOM     31  C   UNL     1      -2.304   1.408  -4.169  0.00  0.00    +0.338 C 
ATOM     32  O   UNL     1      -1.467   0.904  -4.894  0.00  0.00    -0.245 OA
BRANCH  31  33
ATOM     33  O   UNL     1      -3.559   1.609  -4.623  0.00  0.00    -0.458 OA
BRANCH  33  34
ATOM     34  C   UNL     1      -3.834   1.205  -5.966  0.00  0.00    +0.177 C 
ATOM     35  C   UNL     1      -3.553   2.370  -6.917  0.00  0.00    +0.044 C 
ATOM     36  C   UNL     1      -3.848   1.938  -8.355  0.00  0.00    +0.004 C 
ATOM     37  C   UNL     1      -5.317   1.528  -8.473  0.00  0.00    +0.000 C 
ATOM     38  C   UNL     1      -5.598   0.362  -7.522  0.00  0.00    +0.004 C 
ATOM     39  C   UNL     1      -5.303   0.794  -6.084  0.00  0.00    +0.044 C 
ENDBRANCH  33  34
ENDBRANCH  31  33
ENDBRANCH  11  31
TORSDOF 7
