REMARK  Name = ZINC01192407
REMARK  10 active torsions:
REMARK  status: ('A' for Active; 'I' for Inactive)
REMARK    1  A    between atoms: C_1  and  C_2
REMARK    2  A    between atoms: C_5  and  N_8
REMARK    3  A    between atoms: C_10  and  C_14
REMARK    4  A    between atoms: C_11  and  C_13
REMARK    5  A    between atoms: C_14  and  C_16
REMARK    6  A    between atoms: C_14  and  C_25
REMARK    7  A    between atoms: C_21  and  N_22
REMARK    8  A    between atoms: C_27  and  C_39
REMARK    9  A    between atoms: N_29  and  C_32
REMARK   10  A    between atoms: C_35  and  C_38
REMARK                            x       y       z     vdW  Elec       q    Type
REMARK                         _______ _______ _______ _____ _____    ______ ____
ROOT
ATOM      1  C   UNL     1      -1.537  -7.056   0.516  0.00  0.00    +0.076 C 
ENDROOT
BRANCH   1   4
ATOM      2  N   UNL     1      -4.799  -5.928  -0.785  0.00  0.00    -0.219 N 
ATOM      3  C   UNL     1      -3.816  -5.858   0.136  0.00  0.00    +0.276 A 
ATOM      4  C   UNL     1      -2.820  -6.794  -0.229  0.00  0.00    +0.048 A 
ATOM      5  C   UNL     1      -3.219  -7.411  -1.360  0.00  0.00    +0.039 A 
ATOM      6  N   UNL     1      -4.434  -6.903  -1.723  0.00  0.00    -0.294 N 
ATOM      7  C   UNL     1      -2.456  -8.482  -2.096  0.00  0.00    +0.065 C 
ATOM      8  O   UNL     1      -3.790  -5.122   1.105  0.00  0.00    -0.266 OA
ATOM      9  H   UNL     1      -4.954  -7.170  -2.497  0.00  0.00    +0.187 HD
BRANCH   2  14
ATOM     10  C   UNL     1      -9.563  -2.850  -0.835  0.00  0.00    +0.044 C 
ATOM     11  C   UNL     1      -8.297  -3.668  -0.822  0.00  0.00    -0.050 A 
ATOM     12  C   UNL     1      -8.064  -4.594  -1.821  0.00  0.00    +0.005 A 
ATOM     13  C   UNL     1      -6.905  -5.345  -1.812  0.00  0.00    +0.028 A 
ATOM     14  C   UNL     1      -5.973  -5.169  -0.797  0.00  0.00    +0.067 A 
ATOM     15  C   UNL     1      -6.210  -4.237   0.205  0.00  0.00    +0.028 A 
ATOM     16  C   UNL     1      -7.369  -3.485   0.187  0.00  0.00    +0.005 A 
ENDBRANCH   2  14
ENDBRANCH   1   4
BRANCH   1  17
ATOM     17  C   UNL     1      -0.599  -5.858   0.355  0.00  0.00    +0.135 C 
ATOM     18  C   UNL     1       0.721  -6.117   1.051  0.00  0.00    +0.047 C 
ATOM     19  N   UNL     1       1.631  -6.085   0.157  0.00  0.00    -0.181 NA
ATOM     20  N   UNL     1       1.136  -5.832  -1.119  0.00  0.00    -0.160 N 
ATOM     21  C   UNL     1      -0.209  -5.678  -1.100  0.00  0.00    +0.249 C 
ATOM     22  O   UNL     1      -0.942  -5.449  -2.038  0.00  0.00    -0.273 OA
ATOM     23  C   UNL     1       0.922  -6.365   2.523  0.00  0.00    +0.063 C 
BRANCH  20  24
ATOM     24  C   UNL     1       1.925  -5.747  -2.272  0.00  0.00    +0.060 A 
ATOM     25  C   UNL     1       1.335  -5.484  -3.501  0.00  0.00    +0.026 A 
ATOM     26  C   UNL     1       2.117  -5.400  -4.637  0.00  0.00    +0.005 A 
ATOM     27  C   UNL     1       3.486  -5.578  -4.551  0.00  0.00    -0.050 A 
ATOM     28  C   UNL     1       4.076  -5.839  -3.328  0.00  0.00    +0.005 A 
ATOM     29  C   UNL     1       3.301  -5.918  -2.188  0.00  0.00    +0.026 A 
ATOM     30  C   UNL     1       4.335  -5.486  -5.792  0.00  0.00    +0.044 C 
ENDBRANCH  20  24
ENDBRANCH   1  17
BRANCH   1  31
ATOM     31  C   UNL     1      -1.838  -7.265   1.978  0.00  0.00    -0.008 A 
ATOM     32  C   UNL     1      -2.009  -6.174   2.811  0.00  0.00    +0.006 A 
ATOM     33  C   UNL     1      -2.285  -6.365   4.152  0.00  0.00    +0.000 A 
ATOM     34  C   UNL     1      -2.392  -7.647   4.660  0.00  0.00    +0.002 A 
ATOM     35  C   UNL     1      -2.222  -8.737   3.827  0.00  0.00    +0.033 A 
ATOM     36  C   UNL     1      -1.950  -8.546   2.485  0.00  0.00    +0.130 A 
BRANCH  36  37
ATOM     37  N   UNL     1      -1.773  -9.713   1.592  0.00  0.00    +0.057 N 
ATOM     38  O   UNL     1      -2.607 -10.588   1.570  0.00  0.00    -0.126 OA
ATOM     39  O   UNL     1      -0.795  -9.791   0.886  0.00  0.00    -0.126 OA
ENDBRANCH  36  37
ENDBRANCH   1  31
TORSDOF 6
