REMARK  Name = ZINC21223075
REMARK  8 active torsions:
REMARK  status: ('A' for Active; 'I' for Inactive)
REMARK    1  A    between atoms: C_1  and  C_2
REMARK    2  A    between atoms: C_2  and  O_3
REMARK    3  A    between atoms: O_3  and  C_4
REMARK    4  A    between atoms: C_7  and  C_12
REMARK    5  A    between atoms: C_9  and  O_10
REMARK    6  A    between atoms: O_10  and  C_11
REMARK    7  A    between atoms: C_17  and  C_27
REMARK    8  A    between atoms: C_30  and  C_32
REMARK                            x       y       z     vdW  Elec       q    Type
REMARK                         _______ _______ _______ _____ _____    ______ ____
ROOT
ATOM      1  C   UNL     1      -4.557   4.900   2.743  0.00  0.00    +0.032 C 
ATOM      2  C   UNL     1      -4.323   4.560   1.272  0.00  0.00    +0.059 C 
ATOM      3  C   UNL     1      -2.849   4.709   0.931  0.00  0.00    +0.017 C 
ATOM      4  C   UNL     1      -2.093   5.624   1.561  0.00  0.00    +0.039 C 
ATOM      5  C   UNL     1      -0.624   5.879   1.317  0.00  0.00    +0.172 C 
ATOM      6  N   UNL     1      -0.090   5.231   0.138  0.00  0.00    -0.329 N 
ATOM      7  C   UNL     1      -0.037   3.841   0.046  0.00  0.00    +0.049 A 
ATOM      8  C   UNL     1       1.172   3.164   0.028  0.00  0.00    +0.025 A 
ATOM      9  C   UNL     1       1.177   1.781   0.000  0.00  0.00    +0.002 A 
ATOM     10  C   UNL     1      -0.013   1.076   0.008  0.00  0.00    +0.002 A 
ATOM     11  C   UNL     1      -1.223   1.749   0.017  0.00  0.00    +0.025 A 
ATOM     12  C   UNL     1      -1.229   3.133   0.023  0.00  0.00    +0.052 A 
ATOM     13  N   UNL     1      -2.405   3.872  -0.040  0.00  0.00    -0.316 N 
ATOM     14  C   UNL     1      -2.660   6.457   2.554  0.00  0.00    +0.163 C 
ATOM     15  O   UNL     1      -1.957   7.290   3.093  0.00  0.00    -0.292 OA
ATOM     16  C   UNL     1      -4.097   6.346   2.966  0.00  0.00    +0.088 C 
ATOM     17  H   UNL     1       0.281   5.836  -0.702  0.00  0.00    +0.147 HD
ATOM     18  H   UNL     1      -2.990   3.740  -0.963  0.00  0.00    +0.152 HD
ENDROOT
BRANCH   1  22
ATOM     19  C   UNL     1      -8.717   4.545   3.666  0.00  0.00    +0.162 A 
ATOM     20  C   UNL     1      -8.297   5.413   2.671  0.00  0.00    +0.050 A 
ATOM     21  C   UNL     1      -6.951   5.530   2.379  0.00  0.00    +0.008 A 
ATOM     22  C   UNL     1      -6.022   4.774   3.070  0.00  0.00    -0.040 A 
ATOM     23  C   UNL     1      -6.435   3.906   4.064  0.00  0.00    +0.053 A 
ATOM     24  C   UNL     1      -7.782   3.788   4.365  0.00  0.00    +0.162 A 
BRANCH  24  25
ATOM     25  O   UNL     1      -8.190   2.935   5.343  0.00  0.00    -0.491 OA
ATOM     26  C   UNL     1      -7.175   2.191   6.019  0.00  0.00    +0.277 C 
ENDBRANCH  24  25
BRANCH  19  27
ATOM     27  O   UNL     1     -10.041   4.434   3.958  0.00  0.00    -0.489 OA
BRANCH  27  29
ATOM     28  C   UNL     1     -12.377   4.982   3.668  0.00  0.00    +0.048 C 
ATOM     29  C   UNL     1     -10.943   5.242   3.200  0.00  0.00    +0.226 C 
ENDBRANCH  27  29
ENDBRANCH  19  27
ENDBRANCH   1  22
BRANCH   5  30
ATOM     30  C   UNL     1       0.149   5.399   2.518  0.00  0.00    +0.130 A 
ATOM     31  C   UNL     1       0.540   6.158   3.557  0.00  0.00    +0.047 A 
ATOM     32  C   UNL     1       1.232   5.308   4.449  0.00  0.00    +0.045 A 
ATOM     33  C   UNL     1       1.223   4.079   3.902  0.00  0.00    +0.102 A 
ATOM     34  O   UNL     1       0.560   4.139   2.735  0.00  0.00    -0.463 OA
ATOM     35  C   UNL     1       1.843   2.843   4.500  0.00  0.00    +0.086 C 
ENDBRANCH   5  30
TORSDOF 5
