REMARK  Name = ZINC28057095
REMARK  7 active torsions:
REMARK  status: ('A' for Active; 'I' for Inactive)
REMARK    1  A    between atoms: C_1  and  C_2
REMARK    2  A    between atoms: C_2  and  C_3
REMARK    3  A    between atoms: C_2  and  C_4
REMARK    4  A    between atoms: C_7  and  C_10
REMARK    5  A    between atoms: C_28  and  C_30
REMARK    6  A    between atoms: C_34  and  O_36
REMARK    7  A    between atoms: O_36  and  C_37
REMARK                            x       y       z     vdW  Elec       q    Type
REMARK                         _______ _______ _______ _____ _____    ______ ____
ROOT
ATOM      1  C   UNL     1      -4.631   5.468   2.882  0.00  0.00    +0.234 C 
ATOM      2  C   UNL     1      -3.448   6.263   3.385  0.00  0.00    +0.025 C 
ATOM      3  C   UNL     1      -3.516   7.596   3.393  0.00  0.00    +0.050 C 
ATOM      4  C   UNL     1      -4.741   8.243   2.862  0.00  0.00    +0.039 A 
ATOM      5  C   UNL     1      -5.029   9.576   3.125  0.00  0.00    +0.033 A 
ATOM      6  C   UNL     1      -6.183  10.138   2.611  0.00  0.00    +0.042 A 
ATOM      7  C   UNL     1      -7.045   9.378   1.837  0.00  0.00    +0.023 A 
ATOM      8  C   UNL     1      -6.764   8.050   1.571  0.00  0.00    +0.048 A 
ATOM      9  C   UNL     1      -5.614   7.476   2.080  0.00  0.00    +0.131 A 
ATOM     10  O   UNL     1      -5.305   6.176   1.842  0.00  0.00    -0.479 OA
ATOM     11 CL   UNL     1      -6.552  11.803   2.935  0.00  0.00    -0.084 Cl
ATOM     12  N   UNL     1      -2.472   8.396   3.872  0.00  0.00    -0.282 N 
ATOM     13  C   UNL     1      -1.467   7.767   4.588  0.00  0.00    +0.240 A 
ATOM     14  N   UNL     1      -0.513   8.247   5.332  0.00  0.00    -0.092 NA
ATOM     15  N   UNL     1       0.199   7.289   5.820  0.00  0.00    -0.021 NA
ATOM     16  N   UNL     1      -0.252   6.144   5.419  0.00  0.00    -0.042 NA
ATOM     17  N   UNL     1      -1.348   6.413   4.601  0.00  0.00    -0.201 N 
ATOM     18  C   UNL     1      -2.232   5.514   3.873  0.00  0.00    +0.174 C 
ATOM     19  H   UNL     1      -2.473   9.478   3.675  0.00  0.00    +0.155 HD
ENDROOT
BRANCH   1  23
ATOM     20  C   UNL     1      -7.345   4.784   6.110  0.00  0.00    -0.045 A 
ATOM     21  C   UNL     1      -7.282   6.028   5.511  0.00  0.00    +0.004 A 
ATOM     22  C   UNL     1      -6.404   6.250   4.467  0.00  0.00    +0.008 A 
ATOM     23  C   UNL     1      -5.588   5.227   4.021  0.00  0.00    -0.003 A 
ATOM     24  C   UNL     1      -5.654   3.981   4.616  0.00  0.00    +0.008 A 
ATOM     25  C   UNL     1      -6.529   3.761   5.664  0.00  0.00    +0.004 A 
BRANCH  20  27
ATOM     26  C   UNL     1      -9.280   3.430   6.866  0.00  0.00    +0.012 C 
ATOM     27  C   UNL     1      -8.302   4.543   7.249  0.00  0.00    +0.013 C 
ATOM     28  C   UNL     1      -7.517   4.126   8.495  0.00  0.00    +0.012 C 
ENDBRANCH  20  27
ENDBRANCH   1  23
BRANCH  18  29
ATOM     29  C   UNL     1      -1.495   4.936   2.692  0.00  0.00    -0.015 A 
ATOM     30  C   UNL     1      -1.002   5.774   1.708  0.00  0.00    +0.006 A 
ATOM     31  C   UNL     1      -0.325   5.246   0.624  0.00  0.00    +0.004 A 
ATOM     32  C   UNL     1      -0.135   3.881   0.524  0.00  0.00    +0.045 A 
ATOM     33  C   UNL     1      -0.634   3.039   1.506  0.00  0.00    +0.120 A 
ATOM     34  C   UNL     1      -1.313   3.571   2.594  0.00  0.00    +0.051 A 
BRANCH  33  35
ATOM     35  O   UNL     1      -0.453   1.696   1.407  0.00  0.00    -0.495 OA
ATOM     36  C   UNL     1       0.255   1.219   0.261  0.00  0.00    +0.277 C 
ENDBRANCH  33  35
ENDBRANCH  18  29
TORSDOF 4
