REMARK  Name = ZINC40427301
REMARK  10 active torsions:
REMARK  status: ('A' for Active; 'I' for Inactive)
REMARK    1  A    between atoms: C_1  and  C_2
REMARK    2  A    between atoms: C_2  and  C_3
REMARK    3  A    between atoms: C_3  and  C_5
REMARK    4  A    between atoms: C_3  and  C_11
REMARK    5  A    between atoms: C_18  and  C_20
REMARK    6  A    between atoms: C_21  and  C_23
REMARK    7  A    between atoms: C_23  and  C_24
REMARK    8  A    between atoms: C_24  and  N_25
REMARK    9  A    between atoms: C_33  and  C_35
REMARK   10  A    between atoms: C_38  and  C_41
REMARK                            x       y       z     vdW  Elec       q    Type
REMARK                         _______ _______ _______ _____ _____    ______ ____
ROOT
ATOM      1  C   UNL     1       0.729  -2.000  -1.217  0.00  0.00    +0.223 C 
ATOM      2  O   UNL     1       1.786  -2.589  -1.139  0.00  0.00    -0.275 OA
ATOM      3  N   UNL     1      -0.422  -2.692  -1.332  0.00  0.00    -0.295 N 
ATOM      4  C   UNL     1      -1.698  -1.993  -1.539  0.00  0.00    +0.127 C 
ATOM      5  C   UNL     1      -2.676  -2.424  -0.440  0.00  0.00    +0.127 C 
ATOM      6  N   UNL     1      -2.678  -3.891  -0.361  0.00  0.00    -0.298 N 
ATOM      7  C   UNL     1      -1.401  -4.590  -0.154  0.00  0.00    +0.130 C 
ATOM      8  C   UNL     1      -0.422  -4.160  -1.259  0.00  0.00    +0.090 C 
ATOM      9  C   UNL     1       0.985  -4.657  -0.923  0.00  0.00    +0.029 C 
ATOM     10  C   UNL     1      -3.828  -4.584  -0.476  0.00  0.00    +0.214 C 
ATOM     11  O   UNL     1      -3.817  -5.795  -0.409  0.00  0.00    -0.276 OA
ENDROOT
BRANCH   1  12
ATOM     12  C   UNL     1       0.702  -0.493  -1.185  0.00  0.00    +0.105 C 
BRANCH  12  13
ATOM     13  C   UNL     1       2.082   0.040  -1.472  0.00  0.00    -0.036 A 
ATOM     14  C   UNL     1       3.139  -0.297  -0.648  0.00  0.00    +0.004 A 
ATOM     15  C   UNL     1       4.404   0.192  -0.911  0.00  0.00    +0.000 A 
ATOM     16  C   UNL     1       4.614   1.018  -2.000  0.00  0.00    +0.000 A 
ATOM     17  C   UNL     1       3.557   1.355  -2.825  0.00  0.00    +0.000 A 
ATOM     18  C   UNL     1       2.292   0.862  -2.564  0.00  0.00    +0.004 A 
ENDBRANCH  12  13
BRANCH  12  20
ATOM     19  C   UNL     1       0.142   1.506   0.205  0.00  0.00    +0.005 C 
ATOM     20  C   UNL     1       0.250  -0.020   0.198  0.00  0.00    +0.014 C 
ENDBRANCH  12  20
ENDBRANCH   1  12
BRANCH  10  21
ATOM     21  C   UNL     1      -5.129  -3.853  -0.687  0.00  0.00    +0.077 C 
BRANCH  21  22
ATOM     22  C   UNL     1      -6.273  -4.865  -0.784  0.00  0.00    -0.068 C 
BRANCH  22  23
ATOM     23  N   UNL     1      -7.541  -4.153  -0.990  0.00  0.00    +0.388 N 
ATOM     24  C   UNL     1      -7.495  -3.447  -2.278  0.00  0.00    -0.072 C 
ATOM     25  C   UNL     1      -8.665  -2.450  -2.340  0.00  0.00    +0.024 C 
ATOM     26  C   UNL     1      -9.897  -3.173  -1.902  0.00  0.00    -0.010 A 
ATOM     27  C   UNL     1      -9.946  -4.384  -1.278  0.00  0.00    -0.047 A 
ATOM     28  C   UNL     1     -11.212  -4.871  -0.966  0.00  0.00    +0.010 A 
ATOM     29  C   UNL     1     -12.313  -4.147  -1.279  0.00  0.00    +0.045 A 
ATOM     30  S   UNL     1     -11.597  -2.703  -2.052  0.00  0.00    -0.101 S 
ATOM     31  C   UNL     1      -8.646  -5.118  -0.962  0.00  0.00    -0.006 C 
ATOM     32  H   UNL     1      -7.668  -3.481  -0.248  0.00  0.00    -0.080 HD
BRANCH  31  33
ATOM     33  C   UNL     1      -8.739  -5.742   0.407  0.00  0.00    -0.057 A 
ATOM     34  C   UNL     1      -8.555  -4.964   1.534  0.00  0.00    +0.002 A 
ATOM     35  C   UNL     1      -8.639  -5.536   2.790  0.00  0.00    +0.003 A 
ATOM     36  C   UNL     1      -8.908  -6.886   2.918  0.00  0.00    -0.050 A 
ATOM     37  C   UNL     1      -9.093  -7.664   1.790  0.00  0.00    +0.003 A 
ATOM     38  C   UNL     1      -9.013  -7.090   0.534  0.00  0.00    +0.002 A 
ATOM     39  C   UNL     1      -8.999  -7.510   4.286  0.00  0.00    +0.044 C 
ENDBRANCH  31  33
ENDBRANCH  22  23
ENDBRANCH  21  22
ENDBRANCH  10  21
TORSDOF 7
