REMARK  Name = ZINC09184487
REMARK  6 active torsions:
REMARK  status: ('A' for Active; 'I' for Inactive)
REMARK    1  A    between atoms: C_1  and  C_2
REMARK    2  A    between atoms: C_3  and  C_12
REMARK    3  A    between atoms: C_12  and  C_14
REMARK    4  A    between atoms: C_14  and  C_16
REMARK    5  A    between atoms: C_14  and  N_57
REMARK    6  A    between atoms: C_27  and  C_29
REMARK                            x       y       z     vdW  Elec       q    Type
REMARK                         _______ _______ _______ _____ _____    ______ ____
ROOT
ATOM      1  C   UNL     1       3.080  -0.300   1.876  0.00  0.00    +0.035 C 
ENDROOT
BRANCH   1   9
ATOM      2  C   UNL     1       0.781  -0.250   1.116  0.00  0.00    -0.058 C 
ATOM      3  C   UNL     1      -0.178   0.441   0.140  0.00  0.00    +0.089 C 
ATOM      4  N   UNL     1      -0.221   1.875   0.464  0.00  0.00    -0.299 N 
ATOM      5  C   UNL     1       1.054   2.599   0.586  0.00  0.00    +0.089 C 
ATOM      6  C   UNL     1       1.964   1.824   1.544  0.00  0.00    -0.058 C 
ATOM      7  C   UNL     1      -1.397   2.510   0.638  0.00  0.00    +0.282 C 
ATOM      8  O   UNL     1      -2.442   1.915   0.454  0.00  0.00    -0.267 OA
ATOM      9  N   UNL     1       2.092   0.433   1.057  0.00  0.00    +0.391 N 
ATOM     10  H   UNL     1       2.414   0.451   0.082  0.00  0.00    -0.080 HD
BRANCH   7  11
ATOM     11  C   UNL     1      -1.416   3.917   1.050  0.00  0.00    +0.189 A 
ATOM     12  C   UNL     1      -2.526   4.643   1.375  0.00  0.00    +0.054 A 
ATOM     13  C   UNL     1      -2.083   5.933   1.706  0.00  0.00    +0.042 A 
ATOM     14  C   UNL     1      -0.738   5.938   1.569  0.00  0.00    +0.196 A 
ATOM     15  O   UNL     1      -0.340   4.720   1.179  0.00  0.00    -0.458 OA
ENDBRANCH   7  11
ENDBRANCH   1   9
BRANCH   1  16
ATOM     16  C   UNL     1       4.319   0.544   2.026  0.00  0.00    -0.054 A 
ATOM     17  C   UNL     1       4.868   1.170   0.922  0.00  0.00    +0.002 A 
ATOM     18  C   UNL     1       6.002   1.947   1.060  0.00  0.00    +0.000 A 
ATOM     19  C   UNL     1       6.594   2.091   2.301  0.00  0.00    +0.000 A 
ATOM     20  C   UNL     1       6.049   1.461   3.405  0.00  0.00    +0.000 A 
ATOM     21  C   UNL     1       4.912   0.688   3.267  0.00  0.00    +0.002 A 
ENDBRANCH   1  16
BRANCH   1  22
ATOM     22  C   UNL     1       3.430  -1.587   1.174  0.00  0.00    +0.156 C 
ATOM     23  O   UNL     1       3.231  -1.701  -0.018  0.00  0.00    -0.293 OA
BRANCH  22  26
ATOM     24  C   UNL     1       1.810  -3.699   2.762  0.00  0.00    +0.064 C 
ATOM     25  C   UNL     1       3.308  -3.621   2.623  0.00  0.00    +0.024 A 
ATOM     26  C   UNL     1       3.991  -2.663   1.905  0.00  0.00    +0.044 A 
ATOM     27  C   UNL     1       5.425  -2.987   2.047  0.00  0.00    +0.010 A 
ATOM     28  C   UNL     1       6.598  -2.405   1.575  0.00  0.00    +0.011 A 
ATOM     29  C   UNL     1       7.815  -2.963   1.903  0.00  0.00    +0.001 A 
ATOM     30  C   UNL     1       7.873  -4.095   2.703  0.00  0.00    +0.002 A 
ATOM     31  C   UNL     1       6.719  -4.677   3.181  0.00  0.00    +0.026 A 
ATOM     32  C   UNL     1       5.481  -4.128   2.861  0.00  0.00    +0.047 A 
ATOM     33  N   UNL     1       4.185  -4.478   3.182  0.00  0.00    -0.358 N 
ATOM     34  H   UNL     1       3.939  -5.236   3.734  0.00  0.00    +0.166 HD
ENDBRANCH  22  26
ENDBRANCH   1  22
TORSDOF 5
