REMARK  Name = ZINC13065157
REMARK  14 active torsions:
REMARK  status: ('A' for Active; 'I' for Inactive)
REMARK    1  A    between atoms: C_1  and  C_2
REMARK    2  A    between atoms: C_2  and  C_3
REMARK    3  A    between atoms: C_3  and  C_5
REMARK    4  A    between atoms: C_3  and  N_68
REMARK    5  A    between atoms: N_9  and  C_10
REMARK    6  A    between atoms: C_10  and  C_11
REMARK    7  A    between atoms: C_10  and  C_12
REMARK    8  A    between atoms: C_10  and  C_13
REMARK    9  A    between atoms: C_14  and  C_15
REMARK   10  A    between atoms: C_14  and  N_68
REMARK   11  A    between atoms: C_21  and  C_22
REMARK   12  A    between atoms: C_21  and  N_68
REMARK   13  A    between atoms: C_25  and  C_35
REMARK   14  A    between atoms: C_28  and  C_34
REMARK                            x       y       z     vdW  Elec       q    Type
REMARK                         _______ _______ _______ _____ _____    ______ ____
ROOT
ATOM      1  N   UNL     1      -0.988   2.707   0.874  0.00  0.00    +0.392 N 
ATOM      2  H   UNL     1      -0.115   3.247   0.872  0.00  0.00    -0.080 HD
ENDROOT
BRANCH   1   3
ATOM      3  C   UNL     1      -1.110   1.987  -0.412  0.00  0.00    +0.003 C 
BRANCH   3   4
ATOM      4  C   UNL     1      -0.568   2.867  -1.509  0.00  0.00    +0.139 A 
ATOM      5  N   UNL     1      -0.774   4.153  -1.655  0.00  0.00    -0.115 NA
ATOM      6  N   UNL     1      -0.148   4.538  -2.713  0.00  0.00    -0.023 NA
ATOM      7  N   UNL     1       0.452   3.532  -3.246  0.00  0.00    -0.043 NA
ATOM      8  N   UNL     1       0.217   2.482  -2.533  0.00  0.00    -0.226 N 
BRANCH   8   9
ATOM      9  C   UNL     1       0.713   1.128  -2.788  0.00  0.00    +0.059 C 
ATOM     10  C   UNL     1      -0.463   0.149  -2.802  0.00  0.00    +0.036 C 
ATOM     11  C   UNL     1       1.423   1.092  -4.143  0.00  0.00    +0.036 C 
ATOM     12  C   UNL     1       1.696   0.728  -1.687  0.00  0.00    +0.036 C 
ENDBRANCH   8   9
ENDBRANCH   3   4
BRANCH   3  14
ATOM     13  C   UNL     1      -3.085   0.651   0.334  0.00  0.00    +0.002 C 
ATOM     14  C   UNL     1      -2.575   1.655  -0.702  0.00  0.00    -0.011 C 
ENDBRANCH   3  14
ENDBRANCH   1   3
BRANCH   1  15
ATOM     15  C   UNL     1      -0.955   1.742   1.992  0.00  0.00    -0.042 C 
BRANCH  15  16
ATOM     16  C   UNL     1       0.402   1.086   2.024  0.00  0.00    -0.064 A 
ATOM     17  C   UNL     1       0.584  -0.155   1.443  0.00  0.00    +0.002 A 
ATOM     18  C   UNL     1       1.829  -0.754   1.468  0.00  0.00    +0.000 A 
ATOM     19  C   UNL     1       2.891  -0.117   2.083  0.00  0.00    +0.000 A 
ATOM     20  C   UNL     1       2.708   1.122   2.669  0.00  0.00    +0.000 A 
ATOM     21  C   UNL     1       1.463   1.724   2.639  0.00  0.00    +0.002 A 
ENDBRANCH  15  16
ENDBRANCH   1  15
BRANCH   1  22
ATOM     22  C   UNL     1      -2.126   3.636   1.042  0.00  0.00    -0.036 C 
BRANCH  22  23
ATOM     23  C   UNL     1      -1.793   4.615   2.138  0.00  0.00    +0.001 A 
ATOM     24  C   UNL     1      -1.241   5.814   1.827  0.00  0.00    +0.017 A 
ATOM     25  C   UNL     1      -0.934   6.746   2.914  0.00  0.00    +0.002 A 
ATOM     26  C   UNL     1      -0.369   7.999   2.656  0.00  0.00    -0.041 A 
ATOM     27  C   UNL     1      -0.090   8.843   3.693  0.00  0.00    +0.004 A 
ATOM     28  C   UNL     1      -0.362   8.468   5.002  0.00  0.00    +0.005 A 
ATOM     29  C   UNL     1      -0.917   7.238   5.280  0.00  0.00    -0.026 A 
ATOM     30  C   UNL     1      -1.210   6.362   4.240  0.00  0.00    +0.052 A 
ATOM     31  N   UNL     1      -1.768   5.126   4.489  0.00  0.00    -0.322 N 
ATOM     32  H   UNL     1      -1.958   4.863   5.403  0.00  0.00    +0.169 HD
ATOM     33  C   UNL     1      -2.051   4.279   3.484  0.00  0.00    +0.251 A 
ATOM     34  O   UNL     1      -2.542   3.194   3.741  0.00  0.00    -0.268 OA
ATOM     35  C   UNL     1      -1.207   6.844   6.705  0.00  0.00    +0.046 C 
ATOM     36  C   UNL     1      -0.071   8.417   1.239  0.00  0.00    +0.044 C 
ENDBRANCH  22  23
ENDBRANCH   1  22
TORSDOF 8
