REMARK  Name = ZINC13031438
REMARK  14 active torsions:
REMARK  status: ('A' for Active; 'I' for Inactive)
REMARK    1  A    between atoms: C_1  and  C_2
REMARK    2  A    between atoms: C_2  and  O_3
REMARK    3  A    between atoms: O_3  and  C_4
REMARK    4  A    between atoms: C_7  and  N_10
REMARK    5  A    between atoms: N_10  and  C_11
REMARK    6  A    between atoms: C_11  and  C_13
REMARK    7  A    between atoms: C_11  and  C_18
REMARK    8  A    between atoms: N_20  and  C_21
REMARK    9  A    between atoms: C_21  and  C_22
REMARK   10  A    between atoms: C_22  and  C_23
REMARK   11  A    between atoms: C_23  and  C_24
REMARK   12  A    between atoms: C_23  and  C_25
REMARK   13  A    between atoms: C_26  and  C_28
REMARK   14  A    between atoms: C_28  and  N_29
REMARK                            x       y       z     vdW  Elec       q    Type
REMARK                         _______ _______ _______ _____ _____    ______ ____
ROOT
ATOM      1  N   UNL     1      -0.302   1.164   2.463  0.00  0.00    -0.251 N 
ATOM      2  C   UNL     1      -0.593   2.093   1.531  0.00  0.00    +0.242 C 
ATOM      3  O   UNL     1      -1.588   2.777   1.647  0.00  0.00    -0.273 OA
ENDROOT
BRANCH   1   7
ATOM      4  C   UNL     1       3.274  -0.969   2.236  0.00  0.00    +0.121 A 
ATOM      5  C   UNL     1       3.246   0.275   2.851  0.00  0.00    +0.047 A 
ATOM      6  C   UNL     1       2.062   0.982   2.926  0.00  0.00    +0.027 A 
ATOM      7  C   UNL     1       0.899   0.448   2.387  0.00  0.00    +0.038 A 
ATOM      8  C   UNL     1       0.927  -0.799   1.777  0.00  0.00    +0.027 A 
ATOM      9  C   UNL     1       2.113  -1.503   1.697  0.00  0.00    +0.047 A 
BRANCH   4  10
ATOM     10  O   UNL     1       4.440  -1.664   2.163  0.00  0.00    -0.492 OA
BRANCH  10  12
ATOM     11  C   UNL     1       5.791  -3.565   1.530  0.00  0.00    +0.048 C 
ATOM     12  C   UNL     1       4.396  -2.938   1.516  0.00  0.00    +0.225 C 
ENDBRANCH  10  12
ENDBRANCH   4  10
ENDBRANCH   1   7
BRANCH   1  13
ATOM     13  C   UNL     1      -1.242   0.904   3.556  0.00  0.00    +0.233 C 
BRANCH  13  14
ATOM     14  C   UNL     1      -2.550   0.415   2.989  0.00  0.00    +0.135 A 
ATOM     15  C   UNL     1      -3.313  -0.567   3.502  0.00  0.00    +0.047 A 
ATOM     16  C   UNL     1      -4.441  -0.692   2.659  0.00  0.00    +0.041 A 
ATOM     17  C   UNL     1      -4.296   0.215   1.676  0.00  0.00    +0.195 A 
ATOM     18  O   UNL     1      -3.149   0.883   1.881  0.00  0.00    -0.465 OA
ENDBRANCH  13  14
BRANCH  13  19
ATOM     19  C   UNL     1      -1.475   2.174   4.333  0.00  0.00    +0.242 C 
ATOM     20  O   UNL     1      -0.911   3.197   4.005  0.00  0.00    -0.273 OA
ATOM     21  N   UNL     1      -2.309   2.174   5.391  0.00  0.00    -0.313 N 
ATOM     22  H   UNL     1      -2.760   1.357   5.653  0.00  0.00    +0.149 HD
BRANCH  21  23
ATOM     23  C   UNL     1      -2.535   3.410   6.145  0.00  0.00    +0.104 C 
BRANCH  23  24
ATOM     24  C   UNL     1      -3.517   3.138   7.287  0.00  0.00    +0.022 C 
BRANCH  24  25
ATOM     25  C   UNL     1      -3.753   4.428   8.075  0.00  0.00    -0.016 C 
ATOM     26  C   UNL     1      -4.450   5.453   7.178  0.00  0.00    +0.007 C 
ATOM     27  C   UNL     1      -4.635   4.129   9.289  0.00  0.00    +0.007 C 
ENDBRANCH  24  25
ENDBRANCH  23  24
ENDBRANCH  21  23
ENDBRANCH  13  19
ENDBRANCH   1  13
BRANCH   2  28
ATOM     28  C   UNL     1       0.318   2.282   0.345  0.00  0.00    +0.242 C 
BRANCH  28  29
ATOM     29  N   UNL     1      -0.161   3.406  -0.464  0.00  0.00    -0.235 N 
ATOM     30  C   UNL     1      -1.050   3.346  -1.511  0.00  0.00    +0.090 A 
ATOM     31  C   UNL     1      -1.749   2.314  -2.127  0.00  0.00    +0.029 A 
ATOM     32  C   UNL     1      -2.581   2.588  -3.176  0.00  0.00    +0.002 A 
ATOM     33  C   UNL     1      -2.734   3.890  -3.635  0.00  0.00    +0.002 A 
ATOM     34  C   UNL     1      -2.065   4.921  -3.043  0.00  0.00    +0.032 A 
ATOM     35  C   UNL     1      -1.202   4.666  -1.968  0.00  0.00    +0.113 A 
ATOM     36  N   UNL     1      -0.416   5.456  -1.209  0.00  0.00    -0.129 NA
ATOM     37  N   UNL     1       0.202   4.754  -0.326  0.00  0.00    -0.064 NA
ENDBRANCH  28  29
ENDBRANCH   2  28
TORSDOF 11
