REMARK  Name = ZINC21992962
REMARK  10 active torsions:
REMARK  status: ('A' for Active; 'I' for Inactive)
REMARK    1  A    between atoms: C_1  and  C_2
REMARK    2  A    between atoms: C_2  and  C_3
REMARK    3  A    between atoms: C_3  and  C_4
REMARK    4  A    between atoms: C_4  and  N_5
REMARK    5  A    between atoms: C_6  and  C_8
REMARK    6  A    between atoms: C_8  and  S_9
REMARK    7  A    between atoms: S_9  and  C_10
REMARK    8  A    between atoms: C_18  and  C_22
REMARK    9  A    between atoms: N_25  and  C_26
REMARK   10  A    between atoms: C_26  and  C_27
REMARK                            x       y       z     vdW  Elec       q    Type
REMARK                         _______ _______ _______ _____ _____    ______ ____
ROOT
ATOM      1  C   UNL     1      -3.853  -1.594   0.030  0.00  0.00    +0.173 A 
ATOM      2  N   UNL     1      -3.675  -0.279   0.036  0.00  0.00    -0.216 NA
ATOM      3  C   UNL     1      -2.425   0.166   0.026  0.00  0.00    +0.117 A 
ATOM      4  C   UNL     1      -1.288  -0.674   0.011  0.00  0.00    +0.076 A 
ATOM      5  C   UNL     1       0.002  -0.004   0.002  0.00  0.00    -0.023 A 
ATOM      6  C   UNL     1      -0.016   1.348   0.009  0.00  0.00    -0.004 A 
ATOM      7  S   UNL     1      -1.735   1.790   0.036  0.00  0.00    -0.073 S 
ATOM      8  C   UNL     1       1.163   2.271   0.003  0.00  0.00    +0.046 C 
ATOM      9  C   UNL     1       2.417   1.461   0.360  0.00  0.00    -0.009 C 
ATOM     10  C   UNL     1       2.433   0.184  -0.485  0.00  0.00    +0.008 C 
ATOM     11  C   UNL     1       1.327  -0.762  -0.015  0.00  0.00    +0.037 C 
ATOM     12  C   UNL     1       3.669   2.289   0.062  0.00  0.00    +0.008 C 
ATOM     13  C   UNL     1      -1.518  -2.088   0.005  0.00  0.00    +0.263 A 
ATOM     14  O   UNL     1      -0.603  -2.893  -0.008  0.00  0.00    -0.267 OA
ATOM     15  N   UNL     1      -2.815  -2.476   0.015  0.00  0.00    -0.285 N 
ENDROOT
BRANCH   1  16
ATOM     16  S   UNL     1      -5.498  -2.224   0.043  0.00  0.00    -0.078 S 
BRANCH  16  17
ATOM     17  C   UNL     1      -6.429  -0.672   0.061  0.00  0.00    +0.173 C 
BRANCH  17  19
ATOM     18  N   UNL     1      -8.799   0.037   0.088  0.00  0.00    -0.315 N 
ATOM     19  C   UNL     1      -7.906  -0.973   0.073  0.00  0.00    +0.223 C 
ATOM     20  O   UNL     1      -8.291  -2.123   0.071  0.00  0.00    -0.275 OA
ATOM     21  H   UNL     1      -8.450   1.080   0.090  0.00  0.00    +0.149 HD
BRANCH  18  22
ATOM     22  C   UNL     1     -10.234  -0.255   0.100  0.00  0.00    +0.104 C 
BRANCH  22  23
ATOM     23  C   UNL     1     -11.021   1.057   0.116  0.00  0.00    +0.018 C 
BRANCH  23  25
ATOM     24  C   UNL     1     -13.308   2.064   0.144  0.00  0.00    +0.004 C 
ATOM     25  C   UNL     1     -12.521   0.752   0.129  0.00  0.00    -0.002 C 
ENDBRANCH  23  25
ENDBRANCH  22  23
ENDBRANCH  18  22
ENDBRANCH  17  19
ENDBRANCH  16  17
ENDBRANCH   1  16
BRANCH  15  26
ATOM     26  C   UNL     1      -3.117  -3.910   0.009  0.00  0.00    +0.159 C 
BRANCH  26  27
ATOM     27  C   UNL     1      -3.208  -4.417   1.450  0.00  0.00    +0.138 C 
ATOM     28  C   UNL     1      -3.456  -5.946   1.467  0.00  0.00    +0.035 C 
ATOM     29  C   UNL     1      -2.882  -6.323   2.860  0.00  0.00    +0.031 C 
ATOM     30  C   UNL     1      -1.707  -5.332   3.008  0.00  0.00    +0.160 C 
ATOM     31  O   UNL     1      -1.953  -4.233   2.124  0.00  0.00    -0.375 OA
ENDBRANCH  26  27
ENDBRANCH  15  26
TORSDOF 8
