REMARK  Name = ZINC12662772
REMARK  11 active torsions:
REMARK  status: ('A' for Active; 'I' for Inactive)
REMARK    1  A    between atoms: C_1  and  C_2
REMARK    2  A    between atoms: N_6  and  O_7
REMARK    3  A    between atoms: O_7  and  C_8
REMARK    4  A    between atoms: C_8  and  C_9
REMARK    5  A    between atoms: C_13  and  O_22
REMARK    6  A    between atoms: C_16  and  C_18
REMARK    7  A    between atoms: C_18  and  O_20
REMARK    8  A    between atoms: O_20  and  C_21
REMARK    9  A    between atoms: C_33  and  C_42
REMARK   10  A    between atoms: C_38  and  C_39
REMARK   11  A    between atoms: C_38  and  O_41
REMARK                            x       y       z     vdW  Elec       q    Type
REMARK                         _______ _______ _______ _____ _____    ______ ____
ROOT
ATOM      1  C   UNL     1      -1.929   4.113  -5.497  0.00  0.00    +0.016 C 
ATOM      2  C   UNL     1      -2.381   4.641  -4.126  0.00  0.00    -0.007 C 
ATOM      3  C   UNL     1      -3.892   4.495  -4.113  0.00  0.00    +0.017 C 
ATOM      4  C   UNL     1      -4.576   5.510  -5.027  0.00  0.00    +0.059 C 
ATOM      5  C   UNL     1      -4.148   6.897  -4.595  0.00  0.00    +0.080 C 
ATOM      6  N   UNL     1      -5.001   7.874  -4.530  0.00  0.00    -0.089 NA
ATOM      7  C   UNL     1      -2.731   7.096  -4.252  0.00  0.00    +0.026 C 
ATOM      8  C   UNL     1      -1.922   6.059  -4.073  0.00  0.00    -0.062 C 
ATOM      9  C   UNL     1      -0.461   6.344  -3.786  0.00  0.00    +0.031 C 
ATOM     10  C   UNL     1      -0.058   5.566  -2.542  0.00  0.00    +0.008 C 
ATOM     11  C   UNL     1      -0.304   4.069  -2.706  0.00  0.00    -0.003 C 
ATOM     12  C   UNL     1      -1.722   3.736  -3.121  0.00  0.00    +0.002 C 
ATOM     13  C   UNL     1      -2.585   3.410  -1.909  0.00  0.00    +0.005 C 
ATOM     14  C   UNL     1      -2.142   2.059  -1.313  0.00  0.00    +0.011 C 
ATOM     15  C   UNL     1      -0.632   1.996  -1.297  0.00  0.00    +0.011 C 
ATOM     16  C   UNL     1      -0.038   3.418  -1.354  0.00  0.00    +0.002 C 
ATOM     17  C   UNL     1       1.449   3.160  -1.060  0.00  0.00    +0.008 C 
ATOM     18  C   UNL     1       1.425   2.027  -0.001  0.00  0.00    +0.049 C 
ATOM     19  C   UNL     1      -0.018   1.464   0.010  0.00  0.00    +0.132 C 
ATOM     20  C   UNL     1      -0.118   1.124  -2.446  0.00  0.00    +0.015 C 
ENDROOT
BRANCH  19  21
ATOM     21  C   UNL     1       0.002  -0.004   0.002  0.00  0.00    -0.070 C 
ATOM     22  C   UNL     1       0.018  -1.178  -0.004  0.00  0.00    +0.007 C 
ENDBRANCH  19  21
BRANCH  19  23
ATOM     23  O   UNL     1      -0.734   1.959   1.138  0.00  0.00    -0.376 OA
ATOM     24  H   UNL     1      -0.370   1.679   1.989  0.00  0.00    +0.211 HD
ENDBRANCH  19  23
BRANCH   6  25
ATOM     25  O   UNL     1      -4.573   9.161  -4.123  0.00  0.00    -0.384 OA
BRANCH  25  26
ATOM     26  C   UNL     1      -5.615  10.139  -4.097  0.00  0.00    +0.358 C 
BRANCH  26  27
ATOM     27  C   UNL     1      -5.051  11.463  -3.652  0.00  0.00    +0.257 C 
ATOM     28  O   UNL     1      -3.872  11.560  -3.384  0.00  0.00    -0.272 OA
ATOM     29  N   UNL     1      -5.856  12.540  -3.553  0.00  0.00    -0.283 N 
ATOM     30  C   UNL     1      -7.300  12.562  -3.846  0.00  0.00    +0.140 C 
ATOM     31  C   UNL     1      -7.612  14.041  -4.188  0.00  0.00    +0.134 C 
ATOM     32  C   UNL     1      -6.686  14.792  -3.195  0.00  0.00    +0.066 C 
ATOM     33  C   UNL     1      -5.440  13.884  -3.128  0.00  0.00    +0.187 C 
BRANCH  33  34
ATOM     34  C   UNL     1      -4.913  13.836  -1.717  0.00  0.00    +0.328 C 
ATOM     35  O   UNL     1      -5.182  12.898  -1.004  0.00  0.00    -0.249 OA
BRANCH  34  36
ATOM     36  O   UNL     1      -4.146  14.834  -1.252  0.00  0.00    -0.467 OA
ATOM     37  C   UNL     1      -3.675  14.721   0.117  0.00  0.00    +0.280 C 
ENDBRANCH  34  36
ENDBRANCH  33  34
BRANCH  31  38
ATOM     38  O   UNL     1      -8.986  14.345  -3.937  0.00  0.00    -0.390 OA
ATOM     39  H   UNL     1      -9.607  13.827  -4.467  0.00  0.00    +0.210 HD
ENDBRANCH  31  38
ENDBRANCH  26  27
ENDBRANCH  25  26
ENDBRANCH   6  25
TORSDOF 8
