REMARK  Name = ZINC39387622
REMARK  9 active torsions:
REMARK  status: ('A' for Active; 'I' for Inactive)
REMARK    1  A    between atoms: C_1  and  C_2
REMARK    2  A    between atoms: C_2  and  O_3
REMARK    3  A    between atoms: O_3  and  C_4
REMARK    4  A    between atoms: C_4  and  C_6
REMARK    5  A    between atoms: C_8  and  N_22
REMARK    6  A    between atoms: N_13  and  C_15
REMARK    7  A    between atoms: N_22  and  C_23
REMARK    8  A    between atoms: C_23  and  C_24
REMARK    9  A    between atoms: C_24  and  C_25
REMARK                            x       y       z     vdW  Elec       q    Type
REMARK                         _______ _______ _______ _____ _____    ______ ____
ROOT
ATOM      1  C   UNL     1       1.534  -2.528  -2.279  0.00  0.00    +0.168 C 
ATOM      2  C   UNL     1       3.049  -2.311  -2.390  0.00  0.00    -0.033 C 
ATOM      3  C   UNL     1       3.454  -2.541  -3.851  0.00  0.00    +0.084 C 
ATOM      4  C   UNL     1       2.796  -3.798  -4.352  0.00  0.00    +0.232 C 
ATOM      5  O   UNL     1       3.216  -4.311  -5.367  0.00  0.00    -0.274 OA
ATOM      6  N   UNL     1       1.768  -4.372  -3.723  0.00  0.00    -0.204 N 
ATOM      7  N   UNL     1       1.233  -3.936  -2.555  0.00  0.00    -0.221 NA
ATOM      8  H   UNL     1       1.518  -4.524  -1.787  0.00  0.00    +0.146 HD
ENDROOT
BRANCH   6   9
ATOM      9  C   UNL     1       1.197  -5.506  -4.313  0.00  0.00    +0.053 A 
ATOM     10  C   UNL     1       0.848  -5.489  -5.657  0.00  0.00    +0.028 A 
ATOM     11  C   UNL     1       0.285  -6.609  -6.237  0.00  0.00    +0.040 A 
ATOM     12  C   UNL     1       0.069  -7.748  -5.480  0.00  0.00    +0.124 A 
ATOM     13  C   UNL     1       0.416  -7.767  -4.139  0.00  0.00    +0.040 A 
ATOM     14  C   UNL     1       0.985  -6.651  -3.557  0.00  0.00    +0.028 A 
ATOM     15  F   UNL     1      -0.483  -8.842  -6.049  0.00  0.00    -0.205 F 
ENDBRANCH   6   9
BRANCH   2  16
ATOM     16  N   UNL     1       3.385  -0.938  -1.991  0.00  0.00    +0.383 N 
ATOM     17  H   UNL     1       2.976  -0.288  -2.646  0.00  0.00    -0.085 HD
ATOM     18  H   UNL     1       3.022  -0.758  -1.067  0.00  0.00    -0.085 HD
BRANCH  16  19
ATOM     19  C   UNL     1       4.844  -0.773  -1.985  0.00  0.00    -0.077 C 
BRANCH  19  20
ATOM     20  C   UNL     1       5.194   0.657  -1.569  0.00  0.00    +0.018 C 
BRANCH  20  21
ATOM     21  C   UNL     1       6.692   0.826  -1.562  0.00  0.00    -0.024 A 
ATOM     22  C   UNL     1       7.536   1.161  -2.712  0.00  0.00    +0.003 A 
ATOM     23  C   UNL     1       7.282   1.413  -4.061  0.00  0.00    +0.010 A 
ATOM     24  C   UNL     1       8.318   1.706  -4.903  0.00  0.00    +0.001 A 
ATOM     25  C   UNL     1       9.621   1.755  -4.427  0.00  0.00    +0.002 A 
ATOM     26  C   UNL     1       9.894   1.510  -3.099  0.00  0.00    +0.026 A 
ATOM     27  C   UNL     1       8.855   1.210  -2.224  0.00  0.00    +0.047 A 
ATOM     28  N   UNL     1       8.801   0.924  -0.878  0.00  0.00    -0.360 N 
ATOM     29  C   UNL     1       7.504   0.705  -0.501  0.00  0.00    +0.087 A 
ATOM     30  H   UNL     1       9.568   0.889  -0.285  0.00  0.00    +0.165 HD
ENDBRANCH  20  21
ENDBRANCH  19  20
ENDBRANCH  16  19
ENDBRANCH   2  16
BRANCH   1  31
ATOM     31  C   UNL     1       1.075  -2.176  -0.888  0.00  0.00    +0.324 C 
ATOM     32  O   UNL     1       0.885  -3.051  -0.075  0.00  0.00    -0.249 OA
BRANCH  31  33
ATOM     33  O   UNL     1       0.876  -0.892  -0.550  0.00  0.00    -0.464 OA
BRANCH  33  35
ATOM     34  C   UNL     1       0.269   0.875   0.982  0.00  0.00    +0.048 C 
ATOM     35  C   UNL     1       0.441  -0.632   0.785  0.00  0.00    +0.229 C 
ENDBRANCH  33  35
ENDBRANCH  31  33
ENDBRANCH   1  31
TORSDOF 8
