REMARK  Name = ZINC36234110
REMARK  13 active torsions:
REMARK  status: ('A' for Active; 'I' for Inactive)
REMARK    1  A    between atoms: C_1  and  C_2
REMARK    2  A    between atoms: C_2  and  C_3
REMARK    3  A    between atoms: C_3  and  C_26
REMARK    4  A    between atoms: N_6  and  C_10
REMARK    5  A    between atoms: C_10  and  C_11
REMARK    6  A    between atoms: C_11  and  C_13
REMARK    7  A    between atoms: C_15  and  C_25
REMARK    8  A    between atoms: N_16  and  C_19
REMARK    9  A    between atoms: C_17  and  C_18
REMARK   10  A    between atoms: C_19  and  C_21
REMARK   11  A    between atoms: C_19  and  C_22
REMARK   12  A    between atoms: C_22  and  O_23
REMARK   13  A    between atoms: O_23  and  C_24
REMARK                            x       y       z     vdW  Elec       q    Type
REMARK                         _______ _______ _______ _____ _____    ______ ____
ROOT
ATOM      1  C   UNL     1      -1.783   0.504   0.768  0.00  0.00    +0.138 C 
ATOM      2  C   UNL     1      -2.406   0.728  -0.595  0.00  0.00    +0.251 C 
ATOM      3  O   UNL     1      -2.003   0.317  -1.661  0.00  0.00    -0.272 OA
ATOM      4  N   UNL     1      -3.503   1.479  -0.374  0.00  0.00    -0.216 N 
ATOM      5  C   UNL     1      -3.658   1.758   0.925  0.00  0.00    +0.310 C 
ATOM      6  O   UNL     1      -4.575   2.420   1.370  0.00  0.00    -0.252 OA
ATOM      7  N   UNL     1      -2.686   1.222   1.685  0.00  0.00    -0.281 N 
ATOM      8  H   UNL     1      -2.596   1.294   2.648  0.00  0.00    +0.152 HD
ENDROOT
BRANCH   1   9
ATOM      9  C   UNL     1      -1.746  -0.965   1.103  0.00  0.00    -0.015 A 
ATOM     10  C   UNL     1      -0.622  -1.714   0.807  0.00  0.00    +0.007 A 
ATOM     11  C   UNL     1      -0.588  -3.061   1.113  0.00  0.00    +0.020 A 
ATOM     12  C   UNL     1      -1.679  -3.660   1.717  0.00  0.00    +0.041 A 
ATOM     13  C   UNL     1      -2.804  -2.911   2.013  0.00  0.00    +0.020 A 
ATOM     14  C   UNL     1      -2.834  -1.563   1.711  0.00  0.00    +0.007 A 
ATOM     15 CL   UNL     1      -1.637  -5.353   2.102  0.00  0.00    -0.084 Cl
ENDBRANCH   1   9
BRANCH   1  17
ATOM     16  C   UNL     1      -0.449   2.605   0.549  0.00  0.00    +0.007 C 
ATOM     17  C   UNL     1      -0.375   1.101   0.821  0.00  0.00    +0.037 C 
ENDBRANCH   1  17
BRANCH   4  18
ATOM     18  C   UNL     1      -4.414   1.935  -1.428  0.00  0.00    +0.197 C 
BRANCH  18  19
ATOM     19  C   UNL     1      -5.502   0.912  -1.629  0.00  0.00    +0.183 C 
ATOM     20  O   UNL     1      -5.515  -0.099  -0.959  0.00  0.00    -0.290 OA
BRANCH  19  21
ATOM     21  C   UNL     1      -6.543   1.138  -2.634  0.00  0.00    +0.040 A 
ATOM     22  C   UNL     1      -6.672   2.295  -3.530  0.00  0.00    +0.034 A 
ATOM     23  C   UNL     1      -7.768   2.075  -4.276  0.00  0.00    +0.017 A 
ATOM     24  N   UNL     1      -8.323   0.882  -3.915  0.00  0.00    -0.343 N 
ATOM     25  C   UNL     1      -7.601   0.303  -2.939  0.00  0.00    +0.027 A 
ATOM     26  C   UNL     1      -7.897  -1.024  -2.289  0.00  0.00    +0.064 C 
ATOM     27  C   UNL     1      -8.300   3.000  -5.340  0.00  0.00    +0.063 C 
BRANCH  24  28
ATOM     28  C   UNL     1      -9.532   0.308  -4.512  0.00  0.00    +0.110 C 
ATOM     29  C   UNL     1      -9.373   0.254  -6.033  0.00  0.00    +0.033 C 
BRANCH  28  30
ATOM     30  C   UNL     1     -10.739   1.179  -4.157  0.00  0.00    +0.184 C 
BRANCH  30  31
ATOM     31  O   UNL     1     -11.934   0.551  -4.625  0.00  0.00    -0.381 OA
ATOM     32  C   UNL     1     -13.126   1.286  -4.342  0.00  0.00    +0.194 C 
ENDBRANCH  30  31
ENDBRANCH  28  30
ENDBRANCH  24  28
ENDBRANCH  19  21
ENDBRANCH  18  19
ENDBRANCH   4  18
TORSDOF 8
