REMARK  Name = ZINC15730771
REMARK  7 active torsions:
REMARK  status: ('A' for Active; 'I' for Inactive)
REMARK    1  A    between atoms: C_1  and  C_2
REMARK    2  A    between atoms: C_9  and  S_15
REMARK    3  A    between atoms: S_15  and  N_18
REMARK    4  A    between atoms: N_18  and  C_19
REMARK    5  A    between atoms: C_22  and  C_25
REMARK    6  A    between atoms: C_25  and  C_26
REMARK    7  A    between atoms: C_25  and  C_27
REMARK                            x       y       z     vdW  Elec       q    Type
REMARK                         _______ _______ _______ _____ _____    ______ ____
ROOT
ATOM      1  C   UNL     1      -5.622  11.261   2.617  0.00  0.00    +0.018 C 
ATOM      2  C   UNL     1      -4.368  10.557   3.140  0.00  0.00    +0.082 C 
ATOM      3  C   UNL     1      -3.621   9.968   1.979  0.00  0.00    +0.087 C 
ATOM      4  S   UNL     1      -1.958   9.451   2.377  0.00  0.00    -0.123 S 
ATOM      5  C   UNL     1      -2.049   7.986   3.325  0.00  0.00    +0.029 A 
ATOM      6  C   UNL     1      -1.016   7.056   3.138  0.00  0.00    +0.018 A 
ATOM      7  C   UNL     1      -0.977   5.871   3.833  0.00  0.00    +0.030 A 
ATOM      8  C   UNL     1      -1.985   5.580   4.734  0.00  0.00    +0.110 A 
ATOM      9  C   UNL     1      -3.003   6.481   4.929  0.00  0.00    +0.053 A 
ATOM     10  C   UNL     1      -3.060   7.698   4.229  0.00  0.00    +0.049 A 
ATOM     11  N   UNL     1      -4.136   8.486   4.541  0.00  0.00    -0.284 N 
ATOM     12  C   UNL     1      -4.774   9.527   4.134  0.00  0.00    +0.221 C 
ATOM     13  O   UNL     1      -5.867   9.692   4.634  0.00  0.00    -0.275 OA
ATOM     14  H   UNL     1      -4.562   8.143   5.342  0.00  0.00    +0.155 HD
ENDROOT
BRANCH   8  15
ATOM     15  S   UNL     1      -1.959   4.064   5.632  0.00  0.00    +0.072 S 
ATOM     16  O   UNL     1      -2.768   4.261   6.784  0.00  0.00    -0.150 OA
ATOM     17  O   UNL     1      -0.598   3.665   5.716  0.00  0.00    -0.150 OA
BRANCH  15  18
ATOM     18  N   UNL     1      -2.729   2.931   4.702  0.00  0.00    -0.216 N 
ATOM     19  H   UNL     1      -3.551   2.522   5.016  0.00  0.00    +0.174 HD
BRANCH  18  20
ATOM     20  C   UNL     1      -2.194   2.562   3.466  0.00  0.00    +0.048 A 
ATOM     21  C   UNL     1      -1.072   1.744   3.408  0.00  0.00    +0.025 A 
ATOM     22  C   UNL     1      -0.546   1.381   2.184  0.00  0.00    +0.006 A 
ATOM     23  C   UNL     1      -1.134   1.831   1.016  0.00  0.00    -0.045 A 
ATOM     24  C   UNL     1      -2.247   2.650   1.070  0.00  0.00    +0.006 A 
ATOM     25  C   UNL     1      -2.782   3.012   2.291  0.00  0.00    +0.025 A 
BRANCH  23  26
ATOM     26  C   UNL     1      -0.557   1.433  -0.318  0.00  0.00    +0.013 C 
ATOM     27  C   UNL     1      -0.138   2.688  -1.087  0.00  0.00    +0.012 C 
ATOM     28  C   UNL     1      -1.612   0.670  -1.123  0.00  0.00    +0.012 C 
ENDBRANCH  23  26
ENDBRANCH  18  20
ENDBRANCH  15  18
ENDBRANCH   8  15
TORSDOF 4
