REMARK  Name = ZINC40325174
REMARK  10 active torsions:
REMARK  status: ('A' for Active; 'I' for Inactive)
REMARK    1  A    between atoms: C_1  and  C_2
REMARK    2  A    between atoms: C_2  and  S_3
REMARK    3  A    between atoms: S_3  and  C_6
REMARK    4  A    between atoms: C_9  and  C_12
REMARK    5  A    between atoms: C_14  and  C_17
REMARK    6  A    between atoms: N_19  and  C_20
REMARK    7  A    between atoms: C_20  and  C_21
REMARK    8  A    between atoms: C_21  and  C_23
REMARK    9  A    between atoms: C_21  and  N_30
REMARK   10  A    between atoms: C_26  and  C_29
REMARK                            x       y       z     vdW  Elec       q    Type
REMARK                         _______ _______ _______ _____ _____    ______ ____
ROOT
ATOM      1  C   UNL     1      -1.976 -11.588   3.655  0.00  0.00    +0.266 C 
ATOM      2  O   UNL     1      -1.163 -10.712   3.872  0.00  0.00    -0.268 OA
ATOM      3  N   UNL     1      -1.739 -12.504   2.695  0.00  0.00    -0.311 N 
ATOM      4  H   UNL     1      -2.388 -13.204   2.522  0.00  0.00    +0.149 HD
ENDROOT
BRANCH   1   7
ATOM      5  C   UNL     1      -4.817 -11.156   5.948  0.00  0.00    +0.168 A 
ATOM      6  C   UNL     1      -3.605 -10.761   5.476  0.00  0.00    +0.086 A 
ATOM      7  C   UNL     1      -3.229 -11.650   4.446  0.00  0.00    +0.168 A 
ATOM      8  N   UNL     1      -4.183 -12.541   4.311  0.00  0.00    -0.073 NA
ATOM      9  O   UNL     1      -5.195 -12.248   5.257  0.00  0.00    -0.354 OA
BRANCH   5  13
ATOM     10  C   UNL     1      -7.015  -9.289   9.066  0.00  0.00    +0.088 A 
ATOM     11  C   UNL     1      -7.527 -10.410   8.439  0.00  0.00    +0.027 A 
ATOM     12  C   UNL     1      -6.819 -11.022   7.425  0.00  0.00    +0.013 A 
ATOM     13  C   UNL     1      -5.583 -10.506   7.033  0.00  0.00    +0.020 A 
ATOM     14  C   UNL     1      -5.072  -9.374   7.670  0.00  0.00    +0.013 A 
ATOM     15  C   UNL     1      -5.793  -8.769   8.678  0.00  0.00    +0.027 A 
BRANCH  10  16
ATOM     16  S   UNL     1      -7.927  -8.514  10.360  0.00  0.00    -0.003 S 
ATOM     17  O   UNL     1      -6.946  -7.858  11.152  0.00  0.00    -0.169 OA
ATOM     18  O   UNL     1      -8.728  -9.550  10.909  0.00  0.00    -0.169 OA
BRANCH  16  20
ATOM     19  C   UNL     1      -9.820  -6.549  10.561  0.00  0.00    +0.028 C 
ATOM     20  C   UNL     1      -8.974  -7.291   9.524  0.00  0.00    +0.168 C 
ENDBRANCH  16  20
ENDBRANCH  10  16
ENDBRANCH   5  13
ENDBRANCH   1   7
BRANCH   3  21
ATOM     21  C   UNL     1      -0.501 -12.443   1.914  0.00  0.00    +0.094 C 
BRANCH  21  22
ATOM     22  C   UNL     1      -0.419 -13.662   0.992  0.00  0.00    -0.020 C 
BRANCH  22  23
ATOM     23  C   UNL     1      -0.334 -14.916   1.823  0.00  0.00    -0.059 A 
ATOM     24  C   UNL     1       0.873 -15.294   2.382  0.00  0.00    +0.002 A 
ATOM     25  C   UNL     1       0.951 -16.444   3.145  0.00  0.00    +0.003 A 
ATOM     26  C   UNL     1      -0.177 -17.216   3.349  0.00  0.00    -0.050 A 
ATOM     27  C   UNL     1      -1.384 -16.837   2.791  0.00  0.00    +0.003 A 
ATOM     28  C   UNL     1      -1.463 -15.685   2.032  0.00  0.00    +0.002 A 
ATOM     29  C   UNL     1      -0.092 -18.470   4.180  0.00  0.00    +0.044 C 
ENDBRANCH  22  23
BRANCH  22  30
ATOM     30  N   UNL     1       0.775 -13.554   0.144  0.00  0.00    +0.385 N 
ATOM     31  C   UNL     1       0.667 -12.360  -0.702  0.00  0.00    -0.078 C 
ATOM     32  C   UNL     1       1.945 -12.198  -1.529  0.00  0.00    -0.019 C 
ATOM     33  C   UNL     1       2.134 -13.435  -2.412  0.00  0.00    -0.004 C 
ATOM     34  C   UNL     1       2.171 -14.683  -1.525  0.00  0.00    -0.019 C 
ATOM     35  C   UNL     1       0.885 -14.752  -0.698  0.00  0.00    -0.078 C 
ATOM     36  H   UNL     1       1.595 -13.478   0.727  0.00  0.00    -0.081 HD
ENDBRANCH  22  30
ENDBRANCH  21  22
ENDBRANCH   3  21
TORSDOF 8
