REMARK  Name = ZINC39912090
REMARK  11 active torsions:
REMARK  status: ('A' for Active; 'I' for Inactive)
REMARK    1  A    between atoms: C_1  and  C_2
REMARK    2  A    between atoms: C_2  and  O_3
REMARK    3  A    between atoms: O_3  and  C_4
REMARK    4  A    between atoms: C_6  and  C_11
REMARK    5  A    between atoms: C_9  and  O_10
REMARK    6  A    between atoms: C_14  and  C_25
REMARK    7  A    between atoms: N_21  and  C_22
REMARK    8  A    between atoms: C_22  and  C_23
REMARK    9  A    between atoms: C_27  and  C_33
REMARK   10  A    between atoms: C_29  and  C_32
REMARK   11  A    between atoms: C_30  and  O_31
REMARK                            x       y       z     vdW  Elec       q    Type
REMARK                         _______ _______ _______ _____ _____    ______ ____
ROOT
ATOM      1  C   UNL     1       0.043  -4.976  -0.104  0.00  0.00    +0.142 C 
ATOM      2  C   UNL     1      -1.412  -5.346  -0.020  0.00  0.00    +0.035 A 
ATOM      3  C   UNL     1      -2.740  -4.909   0.022  0.00  0.00    +0.102 A 
ATOM      4  N   UNL     1      -3.506  -5.979   0.106  0.00  0.00    -0.173 NA
ATOM      5  N   UNL     1      -2.793  -7.049   0.120  0.00  0.00    -0.272 N 
ATOM      6  H   UNL     1      -3.144  -7.951   0.177  0.00  0.00    +0.189 HD
ATOM      7  C   UNL     1      -1.468  -6.726   0.045  0.00  0.00    +0.126 A 
ATOM      8  C   UNL     1      -0.098  -7.250   0.004  0.00  0.00    +0.266 C 
ATOM      9  O   UNL     1       0.195  -8.430   0.044  0.00  0.00    -0.268 OA
ATOM     10  N   UNL     1       0.789  -6.241  -0.083  0.00  0.00    -0.281 N 
ENDROOT
BRANCH   3  11
ATOM     11  C   UNL     1      -3.202  -3.499  -0.019  0.00  0.00    +0.044 A 
ATOM     12  C   UNL     1      -2.289  -2.470  -0.236  0.00  0.00    +0.017 A 
ATOM     13  C   UNL     1      -2.724  -1.160  -0.274  0.00  0.00    -0.049 A 
ATOM     14  C   UNL     1      -4.064  -0.866  -0.095  0.00  0.00    +0.010 A 
ATOM     15  C   UNL     1      -4.978  -1.879   0.122  0.00  0.00    -0.008 A 
ATOM     16  C   UNL     1      -4.556  -3.199   0.155  0.00  0.00    +0.129 A 
ATOM     17  C   UNL     1      -6.436  -1.550   0.316  0.00  0.00    +0.047 C 
ATOM     18  C   UNL     1      -1.735  -0.048  -0.509  0.00  0.00    +0.044 C 
BRANCH  16  19
ATOM     19  O   UNL     1      -5.454  -4.197   0.362  0.00  0.00    -0.506 OA
ATOM     20  H   UNL     1      -5.588  -4.419   1.294  0.00  0.00    +0.292 HD
ENDBRANCH  16  19
ENDBRANCH   3  11
BRANCH   1  23
ATOM     21  C   UNL     1       0.844  -3.905   3.430  0.00  0.00    +0.162 A 
ATOM     22  C   UNL     1       0.488  -4.685   2.341  0.00  0.00    +0.055 A 
ATOM     23  C   UNL     1       0.431  -4.125   1.079  0.00  0.00    -0.019 A 
ATOM     24  C   UNL     1       0.730  -2.788   0.898  0.00  0.00    +0.009 A 
ATOM     25  C   UNL     1       1.087  -2.004   1.979  0.00  0.00    +0.049 A 
ATOM     26  C   UNL     1       1.139  -2.557   3.248  0.00  0.00    +0.158 A 
BRANCH  26  27
ATOM     27  O   UNL     1       1.484  -1.786   4.314  0.00  0.00    -0.503 OA
ATOM     28  H   UNL     1       2.434  -1.766   4.495  0.00  0.00    +0.292 HD
ENDBRANCH  26  27
BRANCH  21  29
ATOM     29  O   UNL     1       0.899  -4.453   4.673  0.00  0.00    -0.489 OA
BRANCH  29  31
ATOM     30  C   UNL     1       0.901  -6.312   6.217  0.00  0.00    +0.048 C 
ATOM     31  C   UNL     1       0.692  -5.864   4.769  0.00  0.00    +0.226 C 
ENDBRANCH  29  31
ENDBRANCH  21  29
ENDBRANCH   1  23
BRANCH  10  32
ATOM     32  C   UNL     1       2.246  -6.380  -0.145  0.00  0.00    +0.135 C 
BRANCH  32  33
ATOM     33  C   UNL     1       2.812  -6.364   1.251  0.00  0.00    -0.016 C 
ATOM     34  C   UNL     1       3.572  -7.350   1.661  0.00  0.00    +0.005 C 
ENDBRANCH  32  33
ENDBRANCH  10  32
TORSDOF 8
