REMARK  Name = ZINC36629532
REMARK  8 active torsions:
REMARK  status: ('A' for Active; 'I' for Inactive)
REMARK    1  A    between atoms: C_1  and  C_2
REMARK    2  A    between atoms: C_2  and  C_3
REMARK    3  A    between atoms: C_3  and  N_4
REMARK    4  A    between atoms: C_10  and  N_16
REMARK    5  A    between atoms: C_11  and  C_12
REMARK    6  A    between atoms: C_12  and  O_14
REMARK    7  A    between atoms: O_14  and  C_15
REMARK    8  A    between atoms: C_17  and  C_19
REMARK                            x       y       z     vdW  Elec       q    Type
REMARK                         _______ _______ _______ _____ _____    ______ ____
ROOT
ATOM      1  N   UNL     1      -1.463  -7.845  -1.957  0.00  0.00    -0.279 N 
ATOM      2  C   UNL     1      -2.747  -8.121  -1.653  0.00  0.00    +0.230 C 
ATOM      3  O   UNL     1      -3.497  -7.228  -1.321  0.00  0.00    -0.274 OA
ATOM      4  H   UNL     1      -0.864  -8.560  -2.223  0.00  0.00    +0.155 HD
ENDROOT
BRANCH   2   5
ATOM      5  C   UNL     1      -3.251  -9.539  -1.728  0.00  0.00    +0.142 C 
ATOM      6  C   UNL     1      -3.065 -10.060  -3.127  0.00  0.00    +0.011 A 
ATOM      7  C   UNL     1      -1.809 -10.470  -3.537  0.00  0.00    +0.008 A 
ATOM      8  C   UNL     1      -1.619 -10.952  -4.818  0.00  0.00    +0.001 A 
ATOM      9  C   UNL     1      -2.685 -11.026  -5.696  0.00  0.00    +0.004 A 
ATOM     10  C   UNL     1      -3.941 -10.619  -5.292  0.00  0.00    +0.046 A 
ATOM     11  C   UNL     1      -4.136 -10.134  -4.004  0.00  0.00    +0.133 A 
ATOM     12  O   UNL     1      -5.375  -9.740  -3.625  0.00  0.00    -0.455 OA
ATOM     13  C   UNL     1      -5.692  -9.670  -2.310  0.00  0.00    +0.133 A 
ATOM     14  C   UNL     1      -4.705  -9.571  -1.343  0.00  0.00    +0.011 A 
ATOM     15  C   UNL     1      -5.055  -9.501  -0.006  0.00  0.00    +0.008 A 
ATOM     16  C   UNL     1      -6.385  -9.530   0.368  0.00  0.00    +0.001 A 
ATOM     17  C   UNL     1      -7.372  -9.628  -0.595  0.00  0.00    +0.004 A 
ATOM     18  C   UNL     1      -7.030  -9.698  -1.931  0.00  0.00    +0.046 A 
ENDBRANCH   2   5
BRANCH   1  25
ATOM     19  N   UNL     1       0.738  -1.966  -1.265  0.00  0.00    +0.383 N 
ATOM     20  C   UNL     1       1.532  -2.438  -2.407  0.00  0.00    -0.074 C 
ATOM     21  C   UNL     1       1.827  -3.935  -2.263  0.00  0.00    +0.018 C 
ATOM     22  C   UNL     1       0.507  -4.650  -2.013  0.00  0.00    -0.025 A 
ATOM     23  C   UNL     1      -0.580  -3.951  -1.616  0.00  0.00    -0.021 A 
ATOM     24  S   UNL     1      -1.856  -5.162  -1.455  0.00  0.00    -0.079 S 
ATOM     25  C   UNL     1      -1.000  -6.541  -1.889  0.00  0.00    +0.086 A 
ATOM     26  C   UNL     1       0.279  -6.074  -2.162  0.00  0.00    +0.091 A 
ATOM     27  C   UNL     1      -0.641  -2.475  -1.376  0.00  0.00    -0.035 C 
ATOM     28  H   UNL     1       1.152  -2.301  -0.408  0.00  0.00    -0.081 HD
BRANCH  26  29
ATOM     29  C   UNL     1       1.349  -6.980  -2.584  0.00  0.00    +0.342 C 
ATOM     30  O   UNL     1       2.064  -7.505  -1.752  0.00  0.00    -0.245 OA
BRANCH  29  31
ATOM     31  O   UNL     1       1.542  -7.232  -3.895  0.00  0.00    -0.464 OA
ATOM     32  C   UNL     1       2.605  -8.125  -4.234  0.00  0.00    +0.280 C 
ENDBRANCH  29  31
ENDBRANCH  26  29
BRANCH  19  33
ATOM     33  C   UNL     1       0.718  -0.497  -1.257  0.00  0.00    -0.079 C 
BRANCH  33  35
ATOM     34  C   UNL     1      -0.019   1.526   0.010  0.00  0.00    +0.002 C 
ATOM     35  C   UNL     1       0.002  -0.004   0.002  0.00  0.00    -0.022 C 
ENDBRANCH  33  35
ENDBRANCH  19  33
ENDBRANCH   1  25
TORSDOF 6
