REMARK  Name = ZINC39666379
REMARK  7 active torsions:
REMARK  status: ('A' for Active; 'I' for Inactive)
REMARK    1  A    between atoms: C_1  and  C_2
REMARK    2  A    between atoms: C_2  and  C_4
REMARK    3  A    between atoms: C_2  and  O_29
REMARK    4  A    between atoms: C_4  and  N_5
REMARK    5  A    between atoms: C_6  and  C_8
REMARK    6  A    between atoms: C_19  and  C_21
REMARK    7  A    between atoms: O_29  and  C_30
REMARK                            x       y       z     vdW  Elec       q    Type
REMARK                         _______ _______ _______ _____ _____    ______ ____
ROOT
ATOM      1  C   UNL     1       1.668  -4.300  -2.657  0.00  0.00    +0.100 C 
ATOM      2  C   UNL     1       0.302  -4.941  -2.991  0.00  0.00    +0.121 C 
ATOM      3  N   UNL     1       0.297  -5.065  -4.467  0.00  0.00    -0.296 N 
ATOM      4  C   UNL     1       1.682  -5.471  -4.808  0.00  0.00    +0.115 C 
ATOM      5  C   UNL     1       2.571  -4.653  -3.851  0.00  0.00    -0.004 C 
ATOM      6  C   UNL     1       3.757  -5.493  -3.385  0.00  0.00    -0.010 C 
ATOM      7  C   UNL     1       4.672  -5.782  -4.579  0.00  0.00    -0.082 C 
ATOM      8  N   UNL     1       5.140  -4.516  -5.157  0.00  0.00    +0.379 N 
ATOM      9  C   UNL     1       4.000  -3.757  -5.686  0.00  0.00    -0.082 C 
ATOM     10  C   UNL     1       3.057  -3.382  -4.540  0.00  0.00    -0.010 C 
ATOM     11  C   UNL     1      -0.734  -4.857  -5.310  0.00  0.00    +0.252 C 
ATOM     12  O   UNL     1      -0.579  -5.001  -6.508  0.00  0.00    -0.270 OA
ATOM     13  H   UNL     1       5.603  -3.973  -4.444  0.00  0.00    -0.086 HD
ATOM     14  H   UNL     1       5.790  -4.709  -5.904  0.00  0.00    -0.086 HD
ENDROOT
BRANCH  11  15
ATOM     15  C   UNL     1      -2.050  -4.453  -4.780  0.00  0.00    +0.107 A 
ATOM     16  C   UNL     1      -2.364  -3.098  -4.632  0.00  0.00    +0.138 A 
ATOM     17  C   UNL     1      -3.600  -2.729  -4.135  0.00  0.00    +0.039 A 
ATOM     18  C   UNL     1      -4.525  -3.695  -3.785  0.00  0.00    +0.006 A 
ATOM     19  C   UNL     1      -4.223  -5.037  -3.927  0.00  0.00    +0.039 A 
ATOM     20  C   UNL     1      -2.994  -5.424  -4.428  0.00  0.00    +0.138 A 
ATOM     21  F   UNL     1      -2.704  -6.735  -4.572  0.00  0.00    -0.205 F 
ATOM     22  F   UNL     1      -1.461  -2.152  -4.973  0.00  0.00    -0.205 F 
ENDBRANCH  11  15
BRANCH   1  24
ATOM     23  N   UNL     1       2.363  -2.117  -1.725  0.00  0.00    -0.312 N 
ATOM     24  C   UNL     1       1.528  -2.805  -2.529  0.00  0.00    +0.218 C 
ATOM     25  O   UNL     1       0.665  -2.221  -3.149  0.00  0.00    -0.275 OA
ATOM     26  H   UNL     1       3.053  -2.584  -1.229  0.00  0.00    +0.149 HD
BRANCH  23  27
ATOM     27  C   UNL     1       2.227  -0.664  -1.600  0.00  0.00    +0.148 C 
BRANCH  27  29
ATOM     28  C   UNL     1       3.069   1.363  -0.407  0.00  0.00    +0.053 C 
ATOM     29  C   UNL     1       3.289  -0.134  -0.634  0.00  0.00    +0.187 C 
BRANCH  29  30
ATOM     30  O   UNL     1       4.588  -0.346  -1.190  0.00  0.00    -0.486 OA
BRANCH  30  31
ATOM     31  C   UNL     1       5.628  -0.419  -0.318  0.00  0.00    +0.139 A 
ATOM     32  C   UNL     1       5.421  -0.178   1.032  0.00  0.00    +0.047 A 
ATOM     33  C   UNL     1       6.479  -0.253   1.917  0.00  0.00    +0.004 A 
ATOM     34  C   UNL     1       7.745  -0.569   1.458  0.00  0.00    +0.002 A 
ATOM     35  C   UNL     1       7.955  -0.810   0.113  0.00  0.00    +0.023 A 
ATOM     36  C   UNL     1       6.898  -0.742  -0.776  0.00  0.00    +0.083 A 
ATOM     37 CL   UNL     1       7.160  -1.052  -2.464  0.00  0.00    -0.080 Cl
ENDBRANCH  30  31
ENDBRANCH  29  30
ENDBRANCH  27  29
ENDBRANCH  23  27
ENDBRANCH   1  24
TORSDOF 6
