REMARK  Name = ZINC03567844
REMARK  9 active torsions:
REMARK  status: ('A' for Active; 'I' for Inactive)
REMARK    1  A    between atoms: C_1  and  C_2
REMARK    2  A    between atoms: C_5  and  N_9
REMARK    3  A    between atoms: C_7  and  C_8
REMARK    4  A    between atoms: C_10  and  C_22
REMARK    5  A    between atoms: C_13  and  S_14
REMARK    6  A    between atoms: S_14  and  C_15
REMARK    7  A    between atoms: C_15  and  C_16
REMARK    8  A    between atoms: N_18  and  C_19
REMARK    9  A    between atoms: C_19  and  C_20
REMARK                            x       y       z     vdW  Elec       q    Type
REMARK                         _______ _______ _______ _____ _____    ______ ____
ROOT
ATOM      1  N   UNL     1       2.315   4.346  -0.278  0.00  0.00    -0.270 N 
ATOM      2  C   UNL     1       1.229   3.547   0.009  0.00  0.00    +0.169 A 
ATOM      3  N   UNL     1       0.228   4.347   0.297  0.00  0.00    -0.128 NA
ATOM      4  N   UNL     1       0.604   5.572   0.205  0.00  0.00    -0.122 NA
ATOM      5  C   UNL     1       1.870   5.632  -0.147  0.00  0.00    +0.197 A 
ENDROOT
BRANCH   1  10
ATOM      6  C   UNL     1       7.537   2.654  -1.719  0.00  0.00    +0.044 C 
ATOM      7  C   UNL     1       6.150   3.103  -1.336  0.00  0.00    -0.047 A 
ATOM      8  C   UNL     1       5.082   2.835  -2.174  0.00  0.00    +0.005 A 
ATOM      9  C   UNL     1       3.811   3.246  -1.826  0.00  0.00    +0.026 A 
ATOM     10  C   UNL     1       3.604   3.927  -0.634  0.00  0.00    +0.051 A 
ATOM     11  C   UNL     1       4.679   4.199   0.202  0.00  0.00    +0.030 A 
ATOM     12  C   UNL     1       5.948   3.781  -0.149  0.00  0.00    -0.046 A 
ATOM     13  C   UNL     1       7.114   4.071   0.761  0.00  0.00    +0.044 C 
ENDBRANCH   1  10
BRANCH   2  14
ATOM     14  C   UNL     1       1.199   2.070   0.002  0.00  0.00    +0.022 A 
ATOM     15  C   UNL     1      -0.017   1.375   0.010  0.00  0.00    +0.031 A 
ATOM     16  C   UNL     1       0.002  -0.004   0.002  0.00  0.00    +0.111 A 
ATOM     17  N   UNL     1       1.143  -0.666  -0.013  0.00  0.00    -0.263 NA
ATOM     18  C   UNL     1       2.311  -0.051  -0.021  0.00  0.00    +0.111 A 
ATOM     19  C   UNL     1       2.385   1.326  -0.014  0.00  0.00    +0.031 A 
ENDBRANCH   2  14
BRANCH   5  20
ATOM     20  S   UNL     1       2.818   7.096  -0.396  0.00  0.00    -0.076 S 
BRANCH  20  21
ATOM     21  C   UNL     1       1.562   8.349  -0.032  0.00  0.00    +0.173 C 
BRANCH  21  22
ATOM     22  C   UNL     1       2.163   9.722  -0.186  0.00  0.00    +0.224 C 
ATOM     23  O   UNL     1       3.326   9.842  -0.509  0.00  0.00    -0.275 OA
ATOM     24  N   UNL     1       1.409  10.817   0.036  0.00  0.00    -0.311 N 
ATOM     25  H   UNL     1       0.354  10.707   0.329  0.00  0.00    +0.149 HD
BRANCH  24  26
ATOM     26  C   UNL     1       1.994  12.152  -0.113  0.00  0.00    +0.131 C 
BRANCH  26  27
ATOM     27  C   UNL     1       0.948  13.194   0.189  0.00  0.00    -0.016 C 
ATOM     28  C   UNL     1       1.179  14.108   1.099  0.00  0.00    +0.005 C 
ENDBRANCH  26  27
ENDBRANCH  24  26
ENDBRANCH  21  22
ENDBRANCH  20  21
ENDBRANCH   5  20
TORSDOF 7
