REMARK  Name = ZINC39355944
REMARK  8 active torsions:
REMARK  status: ('A' for Active; 'I' for Inactive)
REMARK    1  A    between atoms: C_1  and  C_2
REMARK    2  A    between atoms: C_6  and  C_13
REMARK    3  A    between atoms: C_13  and  C_30
REMARK    4  A    between atoms: C_14  and  C_15
REMARK    5  A    between atoms: C_18  and  C_20
REMARK    6  A    between atoms: C_24  and  C_26
REMARK    7  A    between atoms: C_26  and  O_28
REMARK    8  A    between atoms: O_28  and  C_29
REMARK                            x       y       z     vdW  Elec       q    Type
REMARK                         _______ _______ _______ _____ _____    ______ ____
ROOT
ATOM      1  C   UNL     1      -1.642  -5.187  -1.408  0.00  0.00    +0.071 C 
ATOM      2  C   UNL     1      -2.274  -6.378  -1.261  0.00  0.00    +0.064 C 
ENDROOT
BRANCH   1   8
ATOM      3  C   UNL     1      -0.018   1.503   0.010  0.00  0.00    +0.044 C 
ATOM      4  C   UNL     1       0.002  -0.004   0.002  0.00  0.00    -0.049 C 
ATOM      5  C   UNL     1      -1.178  -0.663   0.004  0.00  0.00    +0.028 C 
ATOM      6  C   UNL     1      -1.166  -2.083   0.015  0.00  0.00    +0.059 C 
ATOM      7  N   UNL     1      -1.983  -3.016  -0.340  0.00  0.00    -0.262 NA
ATOM      8  C   UNL     1      -1.348  -4.336  -0.199  0.00  0.00    +0.214 C 
ATOM      9  N   UNL     1       0.114  -4.069  -0.099  0.00  0.00    -0.279 NA
ATOM     10  C   UNL     1       0.116  -2.732   0.510  0.00  0.00    +0.128 C 
ATOM     11  C   UNL     1       1.398  -1.998   0.230  0.00  0.00    -0.002 C 
ATOM     12  C   UNL     1       1.294  -0.681  -0.014  0.00  0.00    +0.001 C 
ATOM     13  H   UNL     1       0.564  -4.742   0.504  0.00  0.00    +0.125 HD
ENDBRANCH   1   8
BRANCH   2  14
ATOM     14  C   UNL     1      -2.550  -7.178  -2.395  0.00  0.00    +0.130 A 
ATOM     15  C   UNL     1      -3.189  -8.403  -2.389  0.00  0.00    +0.050 A 
ATOM     16  C   UNL     1      -3.249  -8.832  -3.718  0.00  0.00    +0.050 A 
ATOM     17  C   UNL     1      -2.653  -7.868  -4.480  0.00  0.00    +0.136 A 
ATOM     18  O   UNL     1      -2.241  -6.874  -3.673  0.00  0.00    -0.455 OA
BRANCH  17  19
ATOM     19  C   UNL     1      -2.492  -7.908  -5.947  0.00  0.00    +0.018 A 
ATOM     20  C   UNL     1      -2.977  -8.998  -6.676  0.00  0.00    +0.011 A 
ATOM     21  C   UNL     1      -2.828  -9.037  -8.047  0.00  0.00    +0.001 A 
ATOM     22  C   UNL     1      -2.200  -8.000  -8.710  0.00  0.00    +0.015 A 
ATOM     23  C   UNL     1      -1.710  -6.904  -7.994  0.00  0.00    +0.060 A 
ATOM     24  C   UNL     1      -1.863  -6.856  -6.610  0.00  0.00    +0.026 A 
BRANCH  23  25
ATOM     25  C   UNL     1      -1.038  -5.797  -8.705  0.00  0.00    +0.339 C 
ATOM     26  O   UNL     1      -0.613  -4.845  -8.082  0.00  0.00    -0.245 OA
BRANCH  25  27
ATOM     27  O   UNL     1      -0.897  -5.843 -10.044  0.00  0.00    -0.464 OA
ATOM     28  C   UNL     1      -0.238  -4.738 -10.665  0.00  0.00    +0.280 C 
ENDBRANCH  25  27
ENDBRANCH  23  25
ENDBRANCH  17  19
ENDBRANCH   2  14
BRANCH   1  29
ATOM     29  C   UNL     1      -1.254  -4.738  -2.711  0.00  0.00    +0.098 C 
ATOM     30  N   UNL     1      -0.947  -4.382  -3.745  0.00  0.00    -0.191 NA
ENDBRANCH   1  29
TORSDOF 6
