REMARK  Name = ZINC40986631
REMARK  14 active torsions:
REMARK  status: ('A' for Active; 'I' for Inactive)
REMARK    1  A    between atoms: C_1  and  C_2
REMARK    2  A    between atoms: C_2  and  C_3
REMARK    3  A    between atoms: C_3  and  C_4
REMARK    4  A    between atoms: C_4  and  S_5
REMARK    5  A    between atoms: S_5  and  C_6
REMARK    6  A    between atoms: C_11  and  C_27
REMARK    7  A    between atoms: C_13  and  C_17
REMARK    8  A    between atoms: C_14  and  C_16
REMARK    9  A    between atoms: N_19  and  C_20
REMARK   10  A    between atoms: C_25  and  C_26
REMARK   11  A    between atoms: C_30  and  O_33
REMARK   12  A    between atoms: O_33  and  C_34
REMARK   13  A    between atoms: C_34  and  C_35
REMARK   14  A    between atoms: C_34  and  C_36
REMARK                            x       y       z     vdW  Elec       q    Type
REMARK                         _______ _______ _______ _____ _____    ______ ____
ROOT
ATOM      1  C   UNL     1       4.306  -3.813   3.303  0.00  0.00    +0.210 A 
ATOM      2  N   UNL     1       3.574  -3.892   2.182  0.00  0.00    -0.187 NA
ATOM      3  C   UNL     1       2.965  -5.045   2.139  0.00  0.00    +0.219 A 
ATOM      4  N   UNL     1       3.305  -5.743   3.251  0.00  0.00    -0.220 N 
ATOM      5  N   UNL     1       4.169  -4.931   3.983  0.00  0.00    -0.141 NA
ATOM      6  C   UNL     1       2.818  -7.089   3.541  0.00  0.00    +0.177 C 
ATOM      7  C   UNL     1       1.691  -7.428   2.601  0.00  0.00    +0.060 C 
ATOM      8  C   UNL     1       1.398  -6.696   1.516  0.00  0.00    +0.018 C 
ATOM      9  N   UNL     1       2.104  -5.566   1.183  0.00  0.00    -0.287 N 
ATOM     10  C   UNL     1       0.257  -7.130   0.632  0.00  0.00    +0.061 C 
ATOM     11  H   UNL     1       2.004  -5.148   0.314  0.00  0.00    +0.155 HD
ENDROOT
BRANCH   6  12
ATOM     12  C   UNL     1       3.939  -8.079   3.358  0.00  0.00    -0.018 A 
ATOM     13  C   UNL     1       4.560  -8.200   2.129  0.00  0.00    +0.009 A 
ATOM     14  C   UNL     1       5.588  -9.107   1.959  0.00  0.00    +0.046 A 
ATOM     15  C   UNL     1       5.997  -9.897   3.024  0.00  0.00    +0.121 A 
ATOM     16  C   UNL     1       5.373  -9.773   4.256  0.00  0.00    +0.046 A 
ATOM     17  C   UNL     1       4.349  -8.861   4.423  0.00  0.00    +0.009 A 
BRANCH  15  18
ATOM     18  O   UNL     1       7.008 -10.790   2.859  0.00  0.00    -0.489 OA
BRANCH  18  19
ATOM     19  C   UNL     1       7.523 -10.950   1.536  0.00  0.00    +0.167 C 
ATOM     20  C   UNL     1       8.573  -9.871   1.264  0.00  0.00    +0.051 C 
ATOM     21  C   UNL     1       8.166 -12.332   1.402  0.00  0.00    +0.051 C 
ENDBRANCH  18  19
ENDBRANCH  15  18
ENDBRANCH   6  12
BRANCH   7  22
ATOM     22  C   UNL     1       0.905  -8.571   2.876  0.00  0.00    +0.248 C 
ATOM     23  O   UNL     1       0.009  -8.511   3.699  0.00  0.00    -0.270 OA
ATOM     24  N   UNL     1       1.147  -9.727   2.226  0.00  0.00    -0.281 N 
ATOM     25  H   UNL     1       1.893  -9.790   1.609  0.00  0.00    +0.155 HD
BRANCH  24  26
ATOM     26  C   UNL     1       0.323 -10.836   2.442  0.00  0.00    +0.037 A 
ATOM     27  C   UNL     1      -0.329 -10.993   3.659  0.00  0.00    +0.023 A 
ATOM     28  C   UNL     1      -1.141 -12.089   3.869  0.00  0.00    +0.002 A 
ATOM     29  C   UNL     1      -1.307 -13.031   2.869  0.00  0.00    +0.000 A 
ATOM     30  C   UNL     1      -0.660 -12.878   1.657  0.00  0.00    +0.005 A 
ATOM     31  C   UNL     1       0.150 -11.780   1.438  0.00  0.00    -0.029 A 
ATOM     32  C   UNL     1       0.850 -11.611   0.115  0.00  0.00    +0.045 C 
ENDBRANCH  24  26
ENDBRANCH   7  22
BRANCH   1  33
ATOM     33  S   UNL     1       5.296  -2.437   3.784  0.00  0.00    -0.084 S 
BRANCH  33  34
ATOM     34  C   UNL     1       5.062  -1.238   2.444  0.00  0.00    +0.077 C 
BRANCH  34  35
ATOM     35  C   UNL     1       5.878   0.022   2.738  0.00  0.00    +0.011 C 
BRANCH  35  37
ATOM     36  C   UNL     1       6.496   2.294   1.902  0.00  0.00    +0.004 C 
ATOM     37  C   UNL     1       5.680   1.034   1.608  0.00  0.00    -0.003 C 
ENDBRANCH  35  37
ENDBRANCH  34  35
ENDBRANCH  33  34
ENDBRANCH   1  33
TORSDOF 9
