REMARK  Name = ZINC40986372
REMARK  15 active torsions:
REMARK  status: ('A' for Active; 'I' for Inactive)
REMARK    1  A    between atoms: C_1  and  C_2
REMARK    2  A    between atoms: C_5  and  C_8
REMARK    3  A    between atoms: C_8  and  S_9
REMARK    4  A    between atoms: S_9  and  C_12
REMARK    5  A    between atoms: C_15  and  C_19
REMARK    6  A    between atoms: N_21  and  C_22
REMARK    7  A    between atoms: C_22  and  C_23
REMARK    8  A    between atoms: C_23  and  C_25
REMARK    9  A    between atoms: C_23  and  N_35
REMARK   10  A    between atoms: C_28  and  C_31
REMARK   11  A    between atoms: C_31  and  C_32
REMARK   12  A    between atoms: C_31  and  C_33
REMARK   13  A    between atoms: C_31  and  C_34
REMARK   14  A    between atoms: N_35  and  C_36
REMARK   15  A    between atoms: N_35  and  C_37
REMARK                            x       y       z     vdW  Elec       q    Type
REMARK                         _______ _______ _______ _____ _____    ______ ____
ROOT
ATOM      1  C   UNL     1       3.321 -13.347  -0.325  0.00  0.00    +0.248 C 
ATOM      2  O   UNL     1       2.612 -12.784  -1.136  0.00  0.00    -0.270 OA
ATOM      3  N   UNL     1       2.882 -13.539   0.935  0.00  0.00    -0.312 N 
ATOM      4  H   UNL     1       3.447 -13.989   1.582  0.00  0.00    +0.149 HD
ENDROOT
BRANCH   1   8
ATOM      5  C   UNL     1       7.097 -14.684  -1.437  0.00  0.00    +0.272 A 
ATOM      6  N   UNL     1       6.688 -14.882  -0.199  0.00  0.00    -0.219 NA
ATOM      7  C   UNL     1       5.495 -14.474   0.197  0.00  0.00    +0.130 A 
ATOM      8  C   UNL     1       4.663 -13.822  -0.720  0.00  0.00    +0.092 A 
ATOM      9  C   UNL     1       5.139 -13.634  -2.025  0.00  0.00    +0.146 A 
ATOM     10  N   UNL     1       6.349 -14.071  -2.333  0.00  0.00    -0.199 NA
ATOM     11 CL   UNL     1       4.160 -12.834  -3.214  0.00  0.00    -0.061 Cl
BRANCH   5  12
ATOM     12  S   UNL     1       8.698 -15.251  -1.907  0.00  0.00    +0.036 S 
ATOM     13  O   UNL     1       8.611 -15.461  -3.310  0.00  0.00    -0.166 OA
ATOM     14  O   UNL     1       8.971 -16.334  -1.028  0.00  0.00    -0.166 OA
BRANCH  12  15
ATOM     15  C   UNL     1       9.807 -13.862  -1.550  0.00  0.00    +0.210 C 
BRANCH  15  20
ATOM     16  C   UNL     1      15.223 -15.307  -2.959  0.00  0.00    +0.044 C 
ATOM     17  C   UNL     1      13.810 -14.930  -2.591  0.00  0.00    -0.050 A 
ATOM     18  C   UNL     1      12.988 -14.335  -3.530  0.00  0.00    +0.003 A 
ATOM     19  C   UNL     1      11.692 -13.989  -3.193  0.00  0.00    +0.005 A 
ATOM     20  C   UNL     1      11.219 -14.239  -1.918  0.00  0.00    -0.026 A 
ATOM     21  C   UNL     1      12.042 -14.835  -0.980  0.00  0.00    +0.005 A 
ATOM     22  C   UNL     1      13.336 -15.185  -1.318  0.00  0.00    +0.003 A 
ENDBRANCH  15  20
ENDBRANCH  12  15
ENDBRANCH   5  12
ENDBRANCH   1   8
BRANCH   3  23
ATOM     23  C   UNL     1       1.551 -13.069   1.327  0.00  0.00    +0.094 C 
BRANCH  23  24
ATOM     24  C   UNL     1       1.251 -13.521   2.757  0.00  0.00    -0.021 C 
BRANCH  24  25
ATOM     25  C   UNL     1       1.167 -15.025   2.800  0.00  0.00    -0.059 A 
ATOM     26  C   UNL     1       0.013 -15.665   2.387  0.00  0.00    +0.002 A 
ATOM     27  C   UNL     1      -0.064 -17.045   2.426  0.00  0.00    +0.004 A 
ATOM     28  C   UNL     1       1.012 -17.785   2.879  0.00  0.00    -0.042 A 
ATOM     29  C   UNL     1       2.166 -17.145   3.292  0.00  0.00    +0.004 A 
ATOM     30  C   UNL     1       2.245 -15.766   3.249  0.00  0.00    +0.002 A 
BRANCH  28  31
ATOM     31  C   UNL     1       0.927 -19.289   2.924  0.00  0.00    -0.013 C 
ATOM     32  C   UNL     1       0.676 -19.827   1.514  0.00  0.00    +0.015 C 
ATOM     33  C   UNL     1       2.242 -19.858   3.460  0.00  0.00    +0.015 C 
ATOM     34  C   UNL     1      -0.222 -19.708   3.842  0.00  0.00    +0.015 C 
ENDBRANCH  28  31
ENDBRANCH  24  25
BRANCH  24  35
ATOM     35  N   UNL     1      -0.028 -12.947   3.194  0.00  0.00    +0.382 N 
ATOM     36  C   UNL     1      -0.341 -13.422   4.549  0.00  0.00    -0.096 C 
ATOM     37  C   UNL     1       0.070 -11.481   3.200  0.00  0.00    -0.096 C 
ATOM     38  H   UNL     1      -0.759 -13.232   2.560  0.00  0.00    -0.082 HD
ENDBRANCH  24  35
ENDBRANCH  23  24
ENDBRANCH   3  23
TORSDOF 9
