REMARK  Name = ZINC10015307
REMARK  8 active torsions:
REMARK  status: ('A' for Active; 'I' for Inactive)
REMARK    1  A    between atoms: C_3  and  C_6
REMARK    2  A    between atoms: C_9  and  S_17
REMARK    3  A    between atoms: N_10  and  C_11
REMARK    4  A    between atoms: S_17  and  C_18
REMARK    5  A    between atoms: C_18  and  C_19
REMARK    6  A    between atoms: N_21  and  C_22
REMARK    7  A    between atoms: C_25  and  N_32
REMARK    8  A    between atoms: C_27  and  C_28
REMARK                            x       y       z     vdW  Elec       q    Type
REMARK                         _______ _______ _______ _____ _____    ______ ____
ROOT
ATOM      1  C   UNL     1      -3.787   0.468   3.152  0.00  0.00    +0.173 C 
ENDROOT
BRANCH   1   2
ATOM      2  C   UNL     1      -3.865   1.236   4.447  0.00  0.00    +0.227 C 
ATOM      3  O   UNL     1      -2.897   1.847   4.848  0.00  0.00    -0.275 OA
ATOM      4  N   UNL     1      -5.009   1.243   5.158  0.00  0.00    -0.284 N 
ATOM      5  H   UNL     1      -5.806   0.822   4.799  0.00  0.00    +0.155 HD
BRANCH   4   6
ATOM      6  C   UNL     1      -5.048   1.858   6.414  0.00  0.00    +0.045 A 
ATOM      7  C   UNL     1      -3.883   1.998   7.157  0.00  0.00    +0.026 A 
ATOM      8  C   UNL     1      -3.925   2.606   8.397  0.00  0.00    +0.034 A 
ATOM      9  C   UNL     1      -5.126   3.074   8.898  0.00  0.00    +0.127 A 
ATOM     10  C   UNL     1      -6.288   2.936   8.161  0.00  0.00    +0.047 A 
ATOM     11  C   UNL     1      -6.251   2.335   6.918  0.00  0.00    +0.078 A 
BRANCH  11  12
ATOM     12  C   UNL     1      -7.517   2.190   6.113  0.00  0.00    +0.419 C 
ATOM     13  F   UNL     1      -8.588   2.742   6.824  0.00  0.00    -0.166 F 
ATOM     14  F   UNL     1      -7.372   2.861   4.894  0.00  0.00    -0.166 F 
ATOM     15  F   UNL     1      -7.765   0.835   5.873  0.00  0.00    -0.166 F 
ENDBRANCH  11  12
BRANCH   9  16
ATOM     16  N   UNL     1      -5.168   3.725  10.227  0.00  0.00    +0.056 N 
ATOM     17  O   UNL     1      -4.145   3.848  10.877  0.00  0.00    -0.126 OA
ATOM     18  O   UNL     1      -6.224   4.139  10.670  0.00  0.00    -0.126 OA
ENDBRANCH   9  16
ENDBRANCH   4   6
ENDBRANCH   1   2
BRANCH   1  19
ATOM     19  S   UNL     1      -2.133   0.652   2.441  0.00  0.00    -0.077 S 
BRANCH  19  23
ATOM     20  C   UNL     1      -1.961  -1.345  -0.916  0.00  0.00    +0.201 A 
ATOM     21  N   UNL     1      -3.192  -1.565  -0.509  0.00  0.00    -0.125 NA
ATOM     22  N   UNL     1      -3.402  -0.958   0.604  0.00  0.00    -0.122 NA
ATOM     23  C   UNL     1      -2.318  -0.317   0.981  0.00  0.00    +0.193 A 
ATOM     24  N   UNL     1      -1.362  -0.542   0.030  0.00  0.00    -0.297 N 
BRANCH  24  25
ATOM     25  C   UNL     1       0.011  -0.032   0.018  0.00  0.00    +0.091 C 
ATOM     26  C   UNL     1      -0.013   1.497   0.015  0.00  0.00    +0.025 C 
ATOM     27  C   UNL     1       1.421   2.030   0.001  0.00  0.00    +0.002 C 
ATOM     28  C   UNL     1       2.161   1.534   1.246  0.00  0.00    +0.000 C 
ATOM     29  C   UNL     1       2.185   0.005   1.249  0.00  0.00    +0.002 C 
ATOM     30  C   UNL     1       0.751  -0.528   1.262  0.00  0.00    +0.025 C 
ENDBRANCH  24  25
BRANCH  20  33
ATOM     31  C   UNL     1      -0.918  -3.027  -3.991  0.00  0.00    +0.042 A 
ATOM     32  C   UNL     1      -1.824  -2.867  -2.925  0.00  0.00    +0.053 A 
ATOM     33  C   UNL     1      -1.340  -1.859  -2.146  0.00  0.00    +0.172 A 
ATOM     34  O   UNL     1      -0.197  -1.413  -2.703  0.00  0.00    -0.460 OA
ATOM     35  C   UNL     1       0.064  -2.120  -3.814  0.00  0.00    +0.196 A 
ENDBRANCH  20  33
ENDBRANCH  19  23
ENDBRANCH   1  19
TORSDOF 8
