REMARK  Name = ZINC03289903
REMARK  8 active torsions:
REMARK  status: ('A' for Active; 'I' for Inactive)
REMARK    1  A    between atoms: C_1  and  C_2
REMARK    2  A    between atoms: N_5  and  C_7
REMARK    3  A    between atoms: N_15  and  C_34
REMARK    4  A    between atoms: C_23  and  C_25
REMARK    5  A    between atoms: C_28  and  O_32
REMARK    6  A    between atoms: C_29  and  O_31
REMARK    7  A    between atoms: O_32  and  C_33
REMARK    8  A    between atoms: C_34  and  C_35
REMARK                            x       y       z     vdW  Elec       q    Type
REMARK                         _______ _______ _______ _____ _____    ______ ____
ROOT
ATOM      1  C   UNL     1       0.002  -0.004   0.002  0.00  0.00    +0.068 C 
ATOM      2  C   UNL     1      -0.018   1.503   0.010  0.00  0.00    +0.068 A 
ATOM      3  C   UNL     1      -1.156   2.298   0.019  0.00  0.00    +0.045 A 
ATOM      4  C   UNL     1      -0.758   3.623   0.028  0.00  0.00    +0.165 A 
ATOM      5  N   UNL     1       0.610   3.618   0.015  0.00  0.00    -0.214 N 
ATOM      6  N   UNL     1       1.035   2.283   0.004  0.00  0.00    -0.169 NA
ATOM      7  N   UNL     1      -1.675   4.618   0.042  0.00  0.00    -0.198 NA
ATOM      8  C   UNL     1      -2.976   4.436   0.053  0.00  0.00    +0.197 C 
ATOM      9  N   UNL     1      -3.998   5.354   0.067  0.00  0.00    -0.267 N 
ATOM     10  C   UNL     1      -5.209   4.668   0.075  0.00  0.00    +0.058 A 
ATOM     11  C   UNL     1      -6.532   5.087   0.089  0.00  0.00    +0.025 A 
ATOM     12  C   UNL     1      -7.550   4.154   0.093  0.00  0.00    +0.002 A 
ATOM     13  C   UNL     1      -7.257   2.801   0.083  0.00  0.00    +0.002 A 
ATOM     14  C   UNL     1      -5.944   2.374   0.070  0.00  0.00    +0.025 A 
ATOM     15  C   UNL     1      -4.913   3.304   0.065  0.00  0.00    +0.059 A 
ATOM     16  N   UNL     1      -3.529   3.183   0.051  0.00  0.00    -0.259 N 
ATOM     17  C   UNL     1      -2.639   2.010   0.037  0.00  0.00    +0.147 C 
ENDROOT
BRANCH   5  18
ATOM     18  C   UNL     1       1.439   4.747   0.013  0.00  0.00    +0.068 A 
ATOM     19  C   UNL     1       1.053   5.892  -0.672  0.00  0.00    +0.028 A 
ATOM     20  C   UNL     1       1.870   7.005  -0.668  0.00  0.00    +0.002 A 
ATOM     21  C   UNL     1       3.076   6.978   0.008  0.00  0.00    +0.000 A 
ATOM     22  C   UNL     1       3.465   5.838   0.686  0.00  0.00    +0.002 A 
ATOM     23  C   UNL     1       2.650   4.722   0.691  0.00  0.00    +0.028 A 
ENDBRANCH   5  18
BRANCH  17  24
ATOM     24  C   UNL     1      -2.964   1.190  -1.185  0.00  0.00    -0.018 A 
ATOM     25  C   UNL     1      -3.248   1.819  -2.383  0.00  0.00    +0.009 A 
ATOM     26  C   UNL     1      -3.541   1.072  -3.508  0.00  0.00    +0.050 A 
ATOM     27  C   UNL     1      -3.563  -0.312  -3.434  0.00  0.00    +0.161 A 
ATOM     28  C   UNL     1      -3.283  -0.946  -2.227  0.00  0.00    +0.159 A 
ATOM     29  C   UNL     1      -2.984  -0.190  -1.104  0.00  0.00    +0.055 A 
BRANCH  28  30
ATOM     30  O   UNL     1      -3.303  -2.303  -2.149  0.00  0.00    -0.503 OA
ATOM     31  H   UNL     1      -3.082  -2.803  -1.194  0.00  0.00    +0.292 HD
ENDBRANCH  28  30
BRANCH  27  32
ATOM     32  O   UNL     1      -3.857  -1.049  -4.538  0.00  0.00    -0.491 OA
ATOM     33  C   UNL     1      -4.133  -0.331  -5.742  0.00  0.00    +0.277 C 
ENDBRANCH  27  32
ENDBRANCH  17  24
BRANCH   9  34
ATOM     34  C   UNL     1      -3.841   6.811   0.073  0.00  0.00    +0.148 C 
BRANCH  34  35
ATOM     35  C   UNL     1      -3.800   7.318  -1.346  0.00  0.00    -0.030 A 
ATOM     36  C   UNL     1      -2.590   7.426  -2.006  0.00  0.00    +0.005 A 
ATOM     37  C   UNL     1      -2.553   7.887  -3.309  0.00  0.00    +0.000 A 
ATOM     38  C   UNL     1      -3.724   8.248  -3.948  0.00  0.00    +0.000 A 
ATOM     39  C   UNL     1      -4.933   8.144  -3.286  0.00  0.00    +0.000 A 
ATOM     40  C   UNL     1      -4.971   7.679  -1.985  0.00  0.00    +0.005 A 
ENDBRANCH  34  35
ENDBRANCH   9  34
TORSDOF 6
