REMARK  Name = ZINC02048576
REMARK  3 active torsions:
REMARK  status: ('A' for Active; 'I' for Inactive)
REMARK    1  A    between atoms: C_1  and  C_2
REMARK    2  A    between atoms: C_2  and  C_10
REMARK    3  A    between atoms: C_7  and  C_8
REMARK                            x       y       z     vdW  Elec       q    Type
REMARK                         _______ _______ _______ _____ _____    ______ ____
ROOT
ATOM      1  C   UNL     1      -1.994   3.606   1.113  0.00  0.00    +0.028 C 
ATOM      2  C   UNL     1      -1.323   3.227  -0.209  0.00  0.00    +0.100 C 
ATOM      3  C   UNL     1      -0.036   4.038  -0.376  0.00  0.00    +0.023 C 
ATOM      4  C   UNL     1       0.995   3.527   0.638  0.00  0.00    +0.005 C 
ATOM      5  C   UNL     1       1.409   2.110   0.238  0.00  0.00    +0.028 C 
ATOM      6  C   UNL     1       0.191   1.266  -0.005  0.00  0.00    -0.015 C 
ATOM      7  C   UNL     1      -1.012   1.759  -0.212  0.00  0.00    +0.053 C 
ENDROOT
BRANCH   7   8
ATOM      8  C   UNL     1      -2.114   0.818  -0.453  0.00  0.00    +0.383 C 
ATOM      9  O   UNL     1      -2.867   0.518   0.453  0.00  0.00    -0.241 OA
ATOM     10  O   UNL     1      -2.290   0.286  -1.679  0.00  0.00    -0.241 OA
ENDBRANCH   7   8
BRANCH   2  11
ATOM     11  C   UNL     1      -2.260   3.538  -1.348  0.00  0.00    +0.366 C 
ATOM     12  O   UNL     1      -1.890   4.235  -2.263  0.00  0.00    -0.245 OA
ATOM     13  O   UNL     1      -3.507   3.040  -1.346  0.00  0.00    -0.245 OA
ENDBRANCH   2  11
TORSDOF 2
