REMARK  Name = ZINC14459462
REMARK  12 active torsions:
REMARK  status: ('A' for Active; 'I' for Inactive)
REMARK    1  A    between atoms: C_1  and  C_2
REMARK    2  A    between atoms: C_2  and  N_65
REMARK    3  A    between atoms: C_3  and  C_4
REMARK    4  A    between atoms: C_3  and  N_65
REMARK    5  A    between atoms: C_5  and  C_6
REMARK    6  A    between atoms: C_5  and  N_65
REMARK    7  A    between atoms: C_6  and  N_7
REMARK    8  A    between atoms: C_8  and  C_10
REMARK    9  A    between atoms: C_23  and  C_26
REMARK   10  A    between atoms: C_29  and  O_34
REMARK   11  A    between atoms: C_30  and  O_32
REMARK   12  A    between atoms: O_32  and  C_33
REMARK                            x       y       z     vdW  Elec       q    Type
REMARK                         _______ _______ _______ _____ _____    ______ ____
ROOT
ATOM      1  C   UNL     1      -0.516   1.378  -1.746  0.00  0.00    +0.037 A 
ATOM      2  C   UNL     1       0.717   2.025  -1.881  0.00  0.00    +0.015 A 
ATOM      3  C   UNL     1       1.829   1.312  -2.261  0.00  0.00    +0.024 A 
ATOM      4  C   UNL     1       1.742  -0.055  -2.512  0.00  0.00    +0.031 A 
ATOM      5  C   UNL     1       0.503  -0.701  -2.388  0.00  0.00    -0.019 A 
ATOM      6  C   UNL     1      -0.610   0.008  -2.006  0.00  0.00    +0.019 A 
ATOM      7  C   UNL     1       0.454  -2.147  -2.694  0.00  0.00    +0.049 C 
ATOM      8  C   UNL     1      -0.565  -3.044  -2.091  0.00  0.00    -0.023 C 
ATOM      9  C   UNL     1      -0.038  -4.256  -1.959  0.00  0.00    -0.030 C 
ATOM     10  C   UNL     1       1.414  -4.250  -2.442  0.00  0.00    +0.033 C 
ATOM     11  C   UNL     1       1.802  -2.780  -2.235  0.00  0.00    +0.029 C 
ATOM     12  C   UNL     1       2.855  -2.203  -3.164  0.00  0.00    +0.105 C 
ATOM     13  N   UNL     1       2.894  -0.753  -2.872  0.00  0.00    -0.336 N 
ATOM     14  H   UNL     1       3.738  -0.279  -2.932  0.00  0.00    +0.147 HD
ENDROOT
BRANCH  12  15
ATOM     15  C   UNL     1       4.197  -2.827  -2.880  0.00  0.00    -0.023 A 
ATOM     16  C   UNL     1       4.954  -2.380  -1.814  0.00  0.00    +0.009 A 
ATOM     17  C   UNL     1       6.186  -2.949  -1.549  0.00  0.00    +0.049 A 
ATOM     18  C   UNL     1       6.664  -3.971  -2.354  0.00  0.00    +0.158 A 
ATOM     19  C   UNL     1       5.901  -4.422  -3.427  0.00  0.00    +0.162 A 
ATOM     20  C   UNL     1       4.665  -3.850  -3.684  0.00  0.00    +0.054 A 
BRANCH  19  21
ATOM     21  O   UNL     1       6.366  -5.424  -4.220  0.00  0.00    -0.491 OA
ATOM     22  C   UNL     1       5.530  -5.835  -5.303  0.00  0.00    +0.277 C 
ENDBRANCH  19  21
BRANCH  18  23
ATOM     23  O   UNL     1       7.875  -4.532  -2.095  0.00  0.00    -0.503 OA
ATOM     24  H   UNL     1       7.837  -5.290  -1.495  0.00  0.00    +0.292 HD
ENDBRANCH  18  23
ENDBRANCH  12  15
BRANCH   1  26
ATOM     25  N   UNL     1      -1.617   3.459  -1.087  0.00  0.00    -0.313 N 
ATOM     26  C   UNL     1      -1.712   2.138  -1.337  0.00  0.00    +0.244 C 
ATOM     27  O   UNL     1      -2.783   1.574  -1.225  0.00  0.00    -0.270 OA
ATOM     28  H   UNL     1      -0.762   3.910  -1.175  0.00  0.00    +0.149 HD
BRANCH  25  29
ATOM     29  C   UNL     1      -2.805   4.215  -0.680  0.00  0.00    +0.086 C 
BRANCH  29  30
ATOM     30  C   UNL     1      -2.426   5.681  -0.461  0.00  0.00    -0.060 C 
BRANCH  30  31
ATOM     31  N   UNL     1      -3.638   6.433  -0.073  0.00  0.00    +0.380 N 
ATOM     32  H   UNL     1      -4.380   6.245  -0.756  0.00  0.00    -0.082 HD
BRANCH  31  34
ATOM     33  C   UNL     1      -3.003   6.241   2.309  0.00  0.00    -0.017 C 
ATOM     34  C   UNL     1      -4.095   6.000   1.264  0.00  0.00    -0.082 C 
ENDBRANCH  31  34
BRANCH  31  35
ATOM     35  C   UNL     1      -3.350   7.883  -0.063  0.00  0.00    -0.082 C 
ATOM     36  C   UNL     1      -4.676   8.646  -0.023  0.00  0.00    -0.017 C 
ENDBRANCH  31  35
ENDBRANCH  30  31
ENDBRANCH  29  30
ENDBRANCH  25  29
ENDBRANCH   1  26
TORSDOF 9
