REMARK  Name = ZINC18019243
REMARK  13 active torsions:
REMARK  status: ('A' for Active; 'I' for Inactive)
REMARK    1  A    between atoms: C_1  and  C_2
REMARK    2  A    between atoms: C_2  and  N_63
REMARK    3  A    between atoms: C_3  and  C_4
REMARK    4  A    between atoms: C_3  and  N_63
REMARK    5  A    between atoms: C_5  and  C_7
REMARK    6  A    between atoms: C_5  and  C_30
REMARK    7  A    between atoms: C_5  and  N_63
REMARK    8  A    between atoms: C_7  and  N_8
REMARK    9  A    between atoms: C_9  and  C_11
REMARK   10  A    between atoms: C_14  and  N_17
REMARK   11  A    between atoms: N_17  and  S_18
REMARK   12  A    between atoms: S_18  and  C_21
REMARK   13  A    between atoms: C_25  and  N_27
REMARK                            x       y       z     vdW  Elec       q    Type
REMARK                         _______ _______ _______ _____ _____    ______ ____
ROOT
ATOM      1  C   UNL     1      -2.208   2.530  -7.447  0.00  0.00    +0.037 A 
ATOM      2  C   UNL     1      -1.412   2.784  -8.568  0.00  0.00    +0.015 A 
ATOM      3  C   UNL     1      -0.046   2.882  -8.432  0.00  0.00    +0.025 A 
ATOM      4  C   UNL     1       0.543   2.728  -7.180  0.00  0.00    +0.048 A 
ATOM      5  C   UNL     1      -0.247   2.469  -6.063  0.00  0.00    +0.025 A 
ATOM      6  C   UNL     1      -1.614   2.376  -6.192  0.00  0.00    +0.015 A 
ENDROOT
BRANCH   1   8
ATOM      7  N   UNL     1      -4.439   2.179  -6.509  0.00  0.00    -0.313 N 
ATOM      8  C   UNL     1      -3.673   2.424  -7.590  0.00  0.00    +0.244 C 
ATOM      9  O   UNL     1      -4.189   2.559  -8.683  0.00  0.00    -0.270 OA
ATOM     10  H   UNL     1      -4.027   2.071  -5.637  0.00  0.00    +0.149 HD
BRANCH   7  11
ATOM     11  C   UNL     1      -5.893   2.074  -6.650  0.00  0.00    +0.094 C 
BRANCH  11  12
ATOM     12  C   UNL     1      -6.520   1.794  -5.283  0.00  0.00    -0.020 C 
BRANCH  12  13
ATOM     13  C   UNL     1      -8.014   1.665  -5.431  0.00  0.00    -0.059 A 
ATOM     14  C   UNL     1      -8.545   1.002  -6.522  0.00  0.00    +0.002 A 
ATOM     15  C   UNL     1      -9.916   0.881  -6.656  0.00  0.00    +0.000 A 
ATOM     16  C   UNL     1     -10.755   1.430  -5.705  0.00  0.00    +0.000 A 
ATOM     17  C   UNL     1     -10.224   2.096  -4.617  0.00  0.00    +0.000 A 
ATOM     18  C   UNL     1      -8.853   2.214  -4.480  0.00  0.00    +0.002 A 
ENDBRANCH  12  13
BRANCH  12  19
ATOM     19  N   UNL     1      -5.944   0.547  -4.736  0.00  0.00    +0.385 N 
ATOM     20  H   UNL     1      -4.940   0.686  -4.574  0.00  0.00    -0.081 HD
BRANCH  19  22
ATOM     21  C   UNL     1      -6.204   1.261  -2.410  0.00  0.00    -0.017 C 
ATOM     22  C   UNL     1      -6.595   0.211  -3.452  0.00  0.00    -0.081 C 
ENDBRANCH  19  22
BRANCH  19  23
ATOM     23  C   UNL     1      -6.127  -0.559  -5.699  0.00  0.00    -0.081 C 
ATOM     24  C   UNL     1      -4.900  -0.617  -6.612  0.00  0.00    -0.017 C 
ENDBRANCH  19  23
ENDBRANCH  12  19
ENDBRANCH  11  12
ENDBRANCH   7  11
ENDBRANCH   1   8
BRANCH   4  25
ATOM     25  N   UNL     1       1.923   2.828  -7.046  0.00  0.00    -0.216 N 
ATOM     26  H   UNL     1       2.457   2.029  -6.915  0.00  0.00    +0.174 HD
BRANCH  25  27
ATOM     27  S   UNL     1       2.656   4.312  -7.109  0.00  0.00    +0.072 S 
ATOM     28  O   UNL     1       2.202   4.939  -8.300  0.00  0.00    -0.150 OA
ATOM     29  O   UNL     1       4.035   4.096  -6.839  0.00  0.00    -0.150 OA
BRANCH  27  30
ATOM     30  C   UNL     1       2.024   5.263  -5.766  0.00  0.00    +0.111 A 
ATOM     31  C   UNL     1       2.591   5.148  -4.511  0.00  0.00    +0.029 A 
ATOM     32  C   UNL     1       2.095   5.893  -3.458  0.00  0.00    +0.004 A 
ATOM     33  C   UNL     1       1.032   6.753  -3.660  0.00  0.00    +0.033 A 
ATOM     34  C   UNL     1       0.462   6.864  -4.915  0.00  0.00    +0.128 A 
ATOM     35  C   UNL     1       0.961   6.123  -5.969  0.00  0.00    +0.061 A 
BRANCH  34  36
ATOM     36  N   UNL     1      -0.681   7.781  -5.130  0.00  0.00    +0.056 N 
ATOM     37  O   UNL     1      -1.118   8.437  -4.202  0.00  0.00    -0.126 OA
ATOM     38  O   UNL     1      -1.183   7.878  -6.236  0.00  0.00    -0.126 OA
ENDBRANCH  34  36
ENDBRANCH  27  30
ENDBRANCH  25  27
ENDBRANCH   4  25
TORSDOF 11
