REMARK  Name = ZINC38940360
REMARK  8 active torsions:
REMARK  status: ('A' for Active; 'I' for Inactive)
REMARK    1  A    between atoms: C_1  and  C_2
REMARK    2  A    between atoms: C_2  and  C_4
REMARK    3  A    between atoms: C_2  and  N_24
REMARK    4  A    between atoms: C_4  and  C_6
REMARK    5  A    between atoms: C_4  and  N_11
REMARK    6  A    between atoms: N_14  and  C_17
REMARK    7  A    between atoms: C_17  and  C_18
REMARK    8  A    between atoms: C_25  and  C_27
REMARK                            x       y       z     vdW  Elec       q    Type
REMARK                         _______ _______ _______ _____ _____    ______ ____
ROOT
ATOM      1  C   UNL     1       0.742  -0.511   1.242  0.00  0.00    +0.113 C 
ENDROOT
BRANCH   1   2
ATOM      2  N   UNL     1       2.080   0.093   1.294  0.00  0.00    -0.297 NA
ATOM      3  C   UNL     1       2.832  -0.185   0.062  0.00  0.00    +0.066 C 
ATOM      4  C   UNL     1       4.194   0.509   0.132  0.00  0.00    -0.063 C 
ATOM      5  N   UNL     1       4.936   0.017   1.300  0.00  0.00    +0.384 N 
ATOM      6  C   UNL     1       4.184   0.324   2.524  0.00  0.00    -0.063 C 
ATOM      7  C   UNL     1       2.822  -0.372   2.474  0.00  0.00    +0.066 C 
ATOM      8  H   UNL     1       5.060  -0.982   1.223  0.00  0.00    -0.081 HD
BRANCH   5   9
ATOM      9  C   UNL     1       6.250   0.670   1.356  0.00  0.00    -0.043 C 
BRANCH   9  10
ATOM     10  C   UNL     1       7.058   0.077   2.481  0.00  0.00    -0.064 A 
ATOM     11  C   UNL     1       6.984   0.624   3.749  0.00  0.00    +0.002 A 
ATOM     12  C   UNL     1       7.725   0.080   4.781  0.00  0.00    +0.000 A 
ATOM     13  C   UNL     1       8.540  -1.011   4.546  0.00  0.00    +0.000 A 
ATOM     14  C   UNL     1       8.614  -1.559   3.279  0.00  0.00    +0.000 A 
ATOM     15  C   UNL     1       7.870  -1.018   2.248  0.00  0.00    +0.002 A 
ENDBRANCH   9  10
ENDBRANCH   5   9
ENDBRANCH   1   2
BRANCH   1  16
ATOM     16  C   UNL     1      -0.030  -0.130   2.478  0.00  0.00    +0.009 A 
ATOM     17  C   UNL     1      -0.860  -0.888   3.234  0.00  0.00    +0.013 A 
ATOM     18  C   UNL     1      -1.467  -0.321   4.339  0.00  0.00    +0.008 A 
ATOM     19  C   UNL     1      -1.214   0.977   4.634  0.00  0.00    +0.045 A 
ATOM     20  S   UNL     1      -0.082   1.437   3.333  0.00  0.00    -0.100 S 
ENDBRANCH   1  16
BRANCH   1  22
ATOM     21  C   UNL     1      -0.019   1.526   0.010  0.00  0.00    +0.030 C 
ATOM     22  C   UNL     1       0.002  -0.004   0.002  0.00  0.00    +0.092 C 
BRANCH  22  23
ATOM     23  N   UNL     1      -1.372  -0.511   0.012  0.00  0.00    -0.307 N 
ATOM     24  C   UNL     1      -2.051  -0.643  -1.145  0.00  0.00    +0.251 C 
ATOM     25  O   UNL     1      -1.522  -0.341  -2.197  0.00  0.00    -0.270 OA
ATOM     26  H   UNL     1      -1.794  -0.752   0.852  0.00  0.00    +0.149 HD
BRANCH  24  27
ATOM     27  C   UNL     1      -3.432  -1.153  -1.134  0.00  0.00    +0.122 A 
ATOM     28  C   UNL     1      -4.154  -1.304  -2.310  0.00  0.00    +0.031 A 
ATOM     29  C   UNL     1      -5.491  -1.771  -2.217  0.00  0.00    +0.018 A 
ATOM     30  C   UNL     1      -6.200  -2.134  -3.372  0.00  0.00    +0.011 A 
ATOM     31  C   UNL     1      -7.471  -2.621  -3.262  0.00  0.00    +0.001 A 
ATOM     32  C   UNL     1      -8.072  -2.753  -2.017  0.00  0.00    +0.004 A 
ATOM     33  C   UNL     1      -7.400  -2.384  -0.870  0.00  0.00    +0.047 A 
ATOM     34  C   UNL     1      -6.109  -1.880  -0.958  0.00  0.00    +0.139 A 
ATOM     35  O   UNL     1      -5.455  -1.474   0.157  0.00  0.00    -0.422 OA
ATOM     36  C   UNL     1      -4.101  -1.527   0.125  0.00  0.00    +0.350 A 
ATOM     37  O   UNL     1      -3.459  -1.869   1.101  0.00  0.00    -0.244 OA
ENDBRANCH  24  27
ENDBRANCH  22  23
ENDBRANCH   1  22
TORSDOF 7
