REMARK  Name = ZINC39711578
REMARK  10 active torsions:
REMARK  status: ('A' for Active; 'I' for Inactive)
REMARK    1  A    between atoms: C_1  and  C_2
REMARK    2  A    between atoms: C_2  and  C_3
REMARK    3  A    between atoms: C_3  and  N_4
REMARK    4  A    between atoms: N_7  and  C_10
REMARK    5  A    between atoms: C_10  and  C_12
REMARK    6  A    between atoms: C_10  and  C_27
REMARK    7  A    between atoms: N_32  and  C_33
REMARK    8  A    between atoms: C_33  and  C_34
REMARK    9  A    between atoms: C_33  and  C_35
REMARK   10  A    between atoms: C_33  and  C_36
REMARK                            x       y       z     vdW  Elec       q    Type
REMARK                         _______ _______ _______ _____ _____    ______ ____
ROOT
ATOM      1  C   UNL     1       0.189  -5.957  -2.547  0.00  0.00    +0.115 C 
ENDROOT
BRANCH   1   2
ATOM      2  C   UNL     1      -1.288  -6.329  -2.697  0.00  0.00    +0.119 C 
ATOM      3  C   UNL     1      -1.806  -5.674  -3.962  0.00  0.00    -0.003 C 
ATOM      4  C   UNL     1      -2.335  -6.487  -4.916  0.00  0.00    -0.003 A 
ATOM      5  C   UNL     1      -2.857  -5.933  -6.166  0.00  0.00    +0.059 A 
ATOM      6  C   UNL     1      -3.380  -6.772  -7.097  0.00  0.00    +0.167 A 
ATOM      7  C   UNL     1      -3.426  -8.167  -6.881  0.00  0.00    +0.168 A 
ATOM      8  C   UNL     1      -2.946  -8.738  -5.721  0.00  0.00    +0.073 A 
ATOM      9  C   UNL     1      -2.392  -7.946  -4.708  0.00  0.00    +0.044 A 
ATOM     10  N   UNL     1      -1.933  -8.519  -3.592  0.00  0.00    -0.284 N 
ATOM     11  C   UNL     1      -1.399  -7.834  -2.598  0.00  0.00    +0.226 C 
ATOM     12  O   UNL     1      -0.998  -8.412  -1.605  0.00  0.00    -0.275 OA
ATOM     13  O   UNL     1      -3.997  -8.748  -7.975  0.00  0.00    -0.453 OA
ATOM     14  C   UNL     1      -4.675  -7.686  -8.670  0.00  0.00    +0.466 C 
ATOM     15  O   UNL     1      -3.925  -6.509  -8.324  0.00  0.00    -0.453 OA
ATOM     16  H   UNL     1      -1.995  -9.483  -3.509  0.00  0.00    +0.155 HD
ENDBRANCH   1   2
BRANCH   1  20
ATOM     17  N   UNL     1       1.106  -1.950  -1.561  0.00  0.00    +0.381 N 
ATOM     18  C   UNL     1      -0.309  -2.331  -1.655  0.00  0.00    -0.063 C 
ATOM     19  C   UNL     1      -0.438  -3.851  -1.528  0.00  0.00    +0.066 C 
ATOM     20  N   UNL     1       0.333  -4.496  -2.600  0.00  0.00    -0.299 NA
ATOM     21  C   UNL     1       1.748  -4.103  -2.534  0.00  0.00    +0.066 C 
ATOM     22  C   UNL     1       1.859  -2.582  -2.653  0.00  0.00    -0.063 C 
ATOM     23  H   UNL     1       1.478  -2.256  -0.675  0.00  0.00    -0.082 HD
BRANCH  17  24
ATOM     24  C   UNL     1       1.227  -0.489  -1.665  0.00  0.00    -0.079 C 
BRANCH  24  26
ATOM     25  C   UNL     1       0.675   1.686  -0.567  0.00  0.00    +0.002 C 
ATOM     26  C   UNL     1       0.549   0.165  -0.459  0.00  0.00    -0.022 C 
ENDBRANCH  24  26
ENDBRANCH  17  24
ENDBRANCH   1  20
BRANCH   1  27
ATOM     27  C   UNL     1       0.993  -6.590  -3.684  0.00  0.00    +0.236 C 
ATOM     28  N   UNL     1       0.434  -6.202  -4.986  0.00  0.00    -0.148 NA
ATOM     29  N   UNL     1       0.061  -7.216  -5.579  0.00  0.00    -0.069 NA
ATOM     30  N   UNL     1       0.281  -8.383  -4.848  0.00  0.00    -0.179 N 
ATOM     31  N   UNL     1       0.865  -8.062  -3.648  0.00  0.00    -0.179 NA
ATOM     32  H   UNL     1       0.057  -9.280  -5.142  0.00  0.00    +0.191 HD
BRANCH  31  33
ATOM     33  C   UNL     1       2.181  -8.702  -3.513  0.00  0.00    +0.035 C 
ATOM     34  C   UNL     1       2.844  -8.234  -2.216  0.00  0.00    +0.029 C 
ATOM     35  C   UNL     1       2.009 -10.222  -3.479  0.00  0.00    +0.029 C 
ATOM     36  C   UNL     1       3.061  -8.315  -4.703  0.00  0.00    +0.029 C 
ENDBRANCH  31  33
ENDBRANCH   1  27
TORSDOF 6
