REMARK  Name = ZINC20904418
REMARK  11 active torsions:
REMARK  status: ('A' for Active; 'I' for Inactive)
REMARK    1  A    between atoms: C_1  and  C_2
REMARK    2  A    between atoms: C_2  and  C_3
REMARK    3  A    between atoms: C_2  and  C_4
REMARK    4  A    between atoms: C_4  and  N_5
REMARK    5  A    between atoms: C_6  and  C_31
REMARK    6  A    between atoms: C_8  and  C_18
REMARK    7  A    between atoms: N_20  and  C_21
REMARK    8  A    between atoms: C_21  and  C_22
REMARK    9  A    between atoms: C_22  and  N_23
REMARK   10  A    between atoms: N_23  and  C_24
REMARK   11  A    between atoms: N_23  and  C_25
REMARK                            x       y       z     vdW  Elec       q    Type
REMARK                         _______ _______ _______ _____ _____    ______ ____
ROOT
ATOM      1  N   UNL     1       0.076   0.245   0.178  0.00  0.00    -0.289 N 
ATOM      2  C   UNL     1       1.306  -0.523   0.362  0.00  0.00    +0.129 C 
ATOM      3  C   UNL     1       2.383  -0.073  -0.621  0.00  0.00    +0.131 C 
ATOM      4  C   UNL     1       2.534   1.425  -0.575  0.00  0.00    -0.021 A 
ATOM      5  C   UNL     1       3.761   2.015  -0.793  0.00  0.00    +0.005 A 
ATOM      6  C   UNL     1       3.881   3.393  -0.760  0.00  0.00    +0.000 A 
ATOM      7  C   UNL     1       2.775   4.187  -0.510  0.00  0.00    +0.001 A 
ATOM      8  C   UNL     1       1.542   3.608  -0.285  0.00  0.00    +0.013 A 
ATOM      9  C   UNL     1       1.418   2.221  -0.311  0.00  0.00    +0.041 A 
ATOM     10  C   UNL     1       0.115   1.570  -0.059  0.00  0.00    +0.247 C 
ATOM     11  O   UNL     1      -0.910   2.222  -0.071  0.00  0.00    -0.270 OA
ENDROOT
BRANCH   2  12
ATOM     12  C   UNL     1       1.806  -0.326   1.770  0.00  0.00    +0.011 A 
ATOM     13  C   UNL     1       2.352  -1.233   2.616  0.00  0.00    +0.013 A 
ATOM     14  C   UNL     1       2.745  -0.823   3.876  0.00  0.00    +0.008 A 
ATOM     15  C   UNL     1       2.574   0.475   4.228  0.00  0.00    +0.045 A 
ATOM     16  S   UNL     1       1.842   1.164   2.752  0.00  0.00    -0.100 S 
ENDBRANCH   2  12
BRANCH   3  17
ATOM     17  C   UNL     1       3.695  -0.719  -0.255  0.00  0.00    +0.223 C 
ATOM     18  O   UNL     1       4.392  -0.229   0.608  0.00  0.00    -0.275 OA
ATOM     19  N   UNL     1       4.092  -1.841  -0.888  0.00  0.00    -0.317 N 
ATOM     20  H   UNL     1       3.502  -2.238  -1.726  0.00  0.00    +0.149 HD
BRANCH  19  21
ATOM     21  C   UNL     1       5.312  -2.530  -0.458  0.00  0.00    +0.085 C 
BRANCH  21  22
ATOM     22  C   UNL     1       5.535  -3.764  -1.334  0.00  0.00    -0.060 C 
BRANCH  22  23
ATOM     23  N   UNL     1       6.757  -4.456  -0.904  0.00  0.00    +0.381 N 
ATOM     24  C   UNL     1       7.946  -3.629  -1.155  0.00  0.00    -0.096 C 
ATOM     25  H   UNL     1       6.686  -4.624   0.181  0.00  0.00    -0.082 HD
BRANCH  23  26
ATOM     26  C   UNL     1       6.879  -5.766  -1.558  0.00  0.00    -0.069 C 
ATOM     27  C   UNL     1       5.672  -6.632  -1.193  0.00  0.00    -0.015 C 
ATOM     28  C   UNL     1       5.799  -7.996  -1.874  0.00  0.00    -0.002 C 
ATOM     29  C   UNL     1       7.081  -8.684  -1.402  0.00  0.00    -0.000 C 
ATOM     30  C   UNL     1       8.289  -7.818  -1.766  0.00  0.00    -0.002 C 
ATOM     31  C   UNL     1       8.162  -6.454  -1.085  0.00  0.00    -0.015 C 
ENDBRANCH  23  26
ENDBRANCH  22  23
ENDBRANCH  21  22
ENDBRANCH  19  21
ENDBRANCH   3  17
BRANCH   1  32
ATOM     32  C   UNL     1      -1.219  -0.437   0.254  0.00  0.00    +0.111 C 
BRANCH  32  34
ATOM     33  C   UNL     1      -0.625  -1.997  -1.605  0.00  0.00    +0.009 C 
ATOM     34  C   UNL     1      -1.617  -0.930  -1.138  0.00  0.00    +0.000 C 
ATOM     35  C   UNL     1      -3.023  -1.531  -1.083  0.00  0.00    +0.009 C 
ENDBRANCH  32  34
ENDBRANCH   1  32
TORSDOF 8
