REMARK  Name = ZINC13031107
REMARK  11 active torsions:
REMARK  status: ('A' for Active; 'I' for Inactive)
REMARK    1  A    between atoms: C_1  and  C_2
REMARK    2  A    between atoms: C_2  and  C_3
REMARK    3  A    between atoms: C_2  and  C_4
REMARK    4  A    between atoms: C_4  and  C_5
REMARK    5  A    between atoms: C_5  and  N_6
REMARK    6  A    between atoms: C_7  and  C_9
REMARK    7  A    between atoms: C_9  and  C_11
REMARK    8  A    between atoms: C_9  and  N_17
REMARK    9  A    between atoms: N_17  and  C_18
REMARK   10  A    between atoms: C_28  and  C_30
REMARK   11  A    between atoms: C_30  and  N_31
REMARK                            x       y       z     vdW  Elec       q    Type
REMARK                         _______ _______ _______ _____ _____    ______ ____
ROOT
ATOM      1  N   UNL     1       3.639  -0.680   0.520  0.00  0.00    -0.254 N 
ATOM      2  C   UNL     1       4.858  -0.107   0.553  0.00  0.00    +0.242 C 
ATOM      3  O   UNL     1       5.832  -0.733   0.192  0.00  0.00    -0.273 OA
ENDROOT
BRANCH   1   4
ATOM      4  C   UNL     1       2.503   0.070   0.853  0.00  0.00    +0.041 A 
ATOM      5  C   UNL     1       1.820  -0.191   2.034  0.00  0.00    +0.027 A 
ATOM      6  C   UNL     1       0.700   0.547   2.361  0.00  0.00    +0.051 A 
ATOM      7  C   UNL     1       0.253   1.550   1.514  0.00  0.00    +0.162 A 
ATOM      8  C   UNL     1       0.936   1.815   0.333  0.00  0.00    +0.164 A 
ATOM      9  C   UNL     1       2.060   1.073   0.003  0.00  0.00    +0.073 A 
ATOM     10  O   UNL     1       0.518   2.801  -0.508  0.00  0.00    -0.485 OA
ATOM     11  C   UNL     1      -0.823   3.272  -0.331  0.00  0.00    +0.270 C 
ATOM     12  C   UNL     1      -1.056   3.505   1.168  0.00  0.00    +0.270 C 
ATOM     13  O   UNL     1      -0.859   2.262   1.850  0.00  0.00    -0.485 OA
ENDBRANCH   1   4
BRANCH   1  14
ATOM     14  C   UNL     1       3.501  -2.087   0.135  0.00  0.00    +0.197 C 
BRANCH  14  15
ATOM     15  C   UNL     1       2.074  -2.526   0.340  0.00  0.00    -0.015 A 
ATOM     16  C   UNL     1       1.028  -1.850  -0.271  0.00  0.00    +0.025 A 
ATOM     17  C   UNL     1      -0.267  -2.284  -0.063  0.00  0.00    +0.111 A 
ATOM     18  N   UNL     1      -0.515  -3.321   0.713  0.00  0.00    -0.263 NA
ATOM     19  C   UNL     1       0.454  -3.985   1.313  0.00  0.00    +0.111 A 
ATOM     20  C   UNL     1       1.774  -3.612   1.149  0.00  0.00    +0.025 A 
ENDBRANCH  14  15
BRANCH  14  22
ATOM     21  N   UNL     1       3.821  -3.467  -1.893  0.00  0.00    -0.313 N 
ATOM     22  C   UNL     1       3.873  -2.250  -1.316  0.00  0.00    +0.238 C 
ATOM     23  O   UNL     1       4.219  -1.286  -1.965  0.00  0.00    -0.273 OA
ATOM     24  H   UNL     1       3.543  -4.238  -1.373  0.00  0.00    +0.149 HD
BRANCH  21  25
ATOM     25  C   UNL     1       4.182  -3.625  -3.303  0.00  0.00    +0.104 C 
BRANCH  25  26
ATOM     26  C   UNL     1       4.038  -5.094  -3.705  0.00  0.00    +0.022 C 
BRANCH  26  28
ATOM     27  C   UNL     1       4.392  -6.744  -5.548  0.00  0.00    +0.007 C 
ATOM     28  C   UNL     1       4.416  -5.260  -5.178  0.00  0.00    -0.016 C 
ATOM     29  C   UNL     1       3.413  -4.501  -6.050  0.00  0.00    +0.007 C 
ENDBRANCH  26  28
ENDBRANCH  25  26
ENDBRANCH  21  25
ENDBRANCH  14  22
ENDBRANCH   1  14
BRANCH   2  30
ATOM     30  C   UNL     1       5.011   1.311   1.040  0.00  0.00    +0.242 C 
BRANCH  30  31
ATOM     31  N   UNL     1       6.410   1.725   0.905  0.00  0.00    -0.235 N 
ATOM     32  C   UNL     1       7.402   1.591   1.848  0.00  0.00    +0.090 A 
ATOM     33  C   UNL     1       7.450   1.060   3.132  0.00  0.00    +0.029 A 
ATOM     34  C   UNL     1       8.626   1.069   3.828  0.00  0.00    +0.002 A 
ATOM     35  C   UNL     1       9.778   1.600   3.262  0.00  0.00    +0.002 A 
ATOM     36  C   UNL     1       9.759   2.123   2.002  0.00  0.00    +0.032 A 
ATOM     37  C   UNL     1       8.566   2.125   1.267  0.00  0.00    +0.113 A 
ATOM     38  N   UNL     1       8.245   2.559   0.032  0.00  0.00    -0.129 NA
ATOM     39  N   UNL     1       7.000   2.341  -0.208  0.00  0.00    -0.064 NA
ENDBRANCH  30  31
ENDBRANCH   2  30
TORSDOF 9
