REMARK  Name = ZINC39601402
REMARK  8 active torsions:
REMARK  status: ('A' for Active; 'I' for Inactive)
REMARK    1  A    between atoms: C_1  and  C_2
REMARK    2  A    between atoms: C_2  and  C_3
REMARK    3  A    between atoms: C_2  and  C_4
REMARK    4  A    between atoms: C_4  and  C_5
REMARK    5  A    between atoms: C_5  and  N_6
REMARK    6  A    between atoms: C_7  and  C_9
REMARK    7  A    between atoms: C_20  and  C_22
REMARK    8  A    between atoms: C_25  and  C_27
REMARK                            x       y       z     vdW  Elec       q    Type
REMARK                         _______ _______ _______ _____ _____    ______ ____
ROOT
ATOM      1  C   UNL     1       0.888  -0.881   6.133  0.00  0.00    +0.100 C 
ATOM      2  C   UNL     1       0.857  -2.425   6.184  0.00  0.00    +0.121 C 
ATOM      3  N   UNL     1       0.704  -2.749   7.622  0.00  0.00    -0.294 N 
ATOM      4  C   UNL     1      -0.245  -1.731   8.130  0.00  0.00    +0.115 C 
ATOM      5  C   UNL     1       0.163  -0.429   7.411  0.00  0.00    -0.004 C 
ATOM      6  C   UNL     1       1.104   0.387   8.292  0.00  0.00    -0.010 C 
ATOM      7  C   UNL     1       0.344   0.873   9.530  0.00  0.00    -0.082 C 
ATOM      8  N   UNL     1      -0.801   1.691   9.113  0.00  0.00    +0.379 N 
ATOM      9  C   UNL     1      -1.747   0.874   8.344  0.00  0.00    -0.082 C 
ATOM     10  C   UNL     1      -1.076   0.388   7.056  0.00  0.00    -0.010 C 
ATOM     11  C   UNL     1       1.294  -3.745   8.312  0.00  0.00    +0.282 C 
ATOM     12  O   UNL     1       1.065  -3.883   9.499  0.00  0.00    -0.267 OA
ATOM     13  H   UNL     1      -1.264   2.060   9.930  0.00  0.00    -0.086 HD
ATOM     14  H   UNL     1      -0.476   2.455   8.540  0.00  0.00    -0.086 HD
ENDROOT
BRANCH  11  15
ATOM     15  C   UNL     1       2.213  -4.662   7.632  0.00  0.00    +0.190 A 
ATOM     16  C   UNL     1       2.876  -5.721   8.214  0.00  0.00    +0.055 A 
ATOM     17  C   UNL     1       3.640  -6.321   7.207  0.00  0.00    +0.051 A 
ATOM     18  C   UNL     1       3.417  -5.614   6.060  0.00  0.00    +0.139 A 
ATOM     19  O   UNL     1       2.552  -4.621   6.326  0.00  0.00    -0.450 OA
BRANCH  18  20
ATOM     20  C   UNL     1       4.022  -5.898   4.743  0.00  0.00    +0.052 A 
ATOM     21  C   UNL     1       5.402  -6.083   4.630  0.00  0.00    +0.014 A 
ATOM     22  C   UNL     1       5.961  -6.348   3.398  0.00  0.00    +0.001 A 
ATOM     23  C   UNL     1       5.159  -6.431   2.273  0.00  0.00    +0.003 A 
ATOM     24  C   UNL     1       3.792  -6.250   2.375  0.00  0.00    +0.039 A 
ATOM     25  C   UNL     1       3.216  -5.989   3.604  0.00  0.00    +0.134 A 
ATOM     26  F   UNL     1       1.880  -5.818   3.704  0.00  0.00    -0.205 F 
ENDBRANCH  18  20
ENDBRANCH  11  15
BRANCH   1  28
ATOM     27  N   UNL     1       0.514   0.789   4.347  0.00  0.00    -0.315 N 
ATOM     28  C   UNL     1       0.159  -0.382   4.912  0.00  0.00    +0.218 C 
ATOM     29  O   UNL     1      -0.747  -1.034   4.437  0.00  0.00    -0.275 OA
ATOM     30  H   UNL     1       1.238   1.311   4.727  0.00  0.00    +0.149 HD
BRANCH  27  31
ATOM     31  C   UNL     1      -0.195   1.274   3.160  0.00  0.00    +0.104 C 
BRANCH  31  32
ATOM     32  C   UNL     1       0.400   2.615   2.724  0.00  0.00    +0.022 C 
BRANCH  32  34
ATOM     33  C   UNL     1      -1.796   3.423   1.847  0.00  0.00    +0.007 C 
ATOM     34  C   UNL     1      -0.340   3.122   1.484  0.00  0.00    -0.016 C 
ATOM     35  C   UNL     1       0.333   4.398   0.975  0.00  0.00    +0.007 C 
ENDBRANCH  32  34
ENDBRANCH  31  32
ENDBRANCH  27  31
ENDBRANCH   1  28
TORSDOF 6
