REMARK  Name = ZINC02388245
REMARK  8 active torsions:
REMARK  status: ('A' for Active; 'I' for Inactive)
REMARK    1  A    between atoms: C_3  and  N_12
REMARK    2  A    between atoms: C_4  and  N_11
REMARK    3  A    between atoms: C_6  and  C_7
REMARK    4  A    between atoms: N_12  and  C_13
REMARK    5  A    between atoms: C_13  and  C_14
REMARK    6  A    between atoms: C_14  and  N_15
REMARK    7  A    between atoms: N_15  and  C_16
REMARK    8  A    between atoms: C_19  and  C_21
REMARK                            x       y       z     vdW  Elec       q    Type
REMARK                         _______ _______ _______ _____ _____    ______ ____
ROOT
ATOM      1  C   UNL     1      -0.753   1.593  -1.232  0.00  0.00    +0.120 C 
ENDROOT
BRANCH   1   2
ATOM      2  N   UNL     1      -0.067   1.120  -2.437  0.00  0.00    -0.341 N 
ATOM      3  H   UNL     1       0.730   0.573  -2.358  0.00  0.00    +0.146 HD
BRANCH   2   6
ATOM      4  C   UNL     1      -2.188   2.574  -5.067  0.00  0.00    +0.014 A 
ATOM      5  C   UNL     1      -1.701   2.241  -3.817  0.00  0.00    +0.025 A 
ATOM      6  C   UNL     1      -0.562   1.459  -3.702  0.00  0.00    +0.048 A 
ATOM      7  C   UNL     1       0.093   1.015  -4.851  0.00  0.00    +0.046 A 
ATOM      8  C   UNL     1      -0.405   1.350  -6.101  0.00  0.00    +0.037 A 
ATOM      9  C   UNL     1      -1.542   2.131  -6.206  0.00  0.00    +0.057 A 
BRANCH   9  10
ATOM     10  C   UNL     1      -2.078   2.499  -7.565  0.00  0.00    +0.417 C 
ATOM     11  F   UNL     1      -3.224   3.287  -7.417  0.00  0.00    -0.166 F 
ATOM     12  F   UNL     1      -1.106   3.217  -8.271  0.00  0.00    -0.166 F 
ATOM     13  F   UNL     1      -2.400   1.334  -8.271  0.00  0.00    -0.166 F 
ENDBRANCH   9  10
BRANCH   7  14
ATOM     14  N   UNL     1       1.247   0.229  -4.743  0.00  0.00    -0.357 N 
ATOM     15  H   UNL     1       1.592  -0.007  -3.868  0.00  0.00    +0.142 HD
ATOM     16  H   UNL     1       1.701  -0.079  -5.543  0.00  0.00    +0.142 HD
ENDBRANCH   7  14
ENDBRANCH   2   6
ENDBRANCH   1   2
BRANCH   1  17
ATOM     17  C   UNL     1      -0.013   1.086   0.008  0.00  0.00    +0.121 C 
BRANCH  17  18
ATOM     18  N   UNL     1      -0.698   1.558   1.213  0.00  0.00    -0.328 N 
ATOM     19  H   UNL     1      -1.495   2.106   1.135  0.00  0.00    +0.147 HD
BRANCH  18  20
ATOM     20  C   UNL     1      -0.207   1.222   2.470  0.00  0.00    +0.115 A 
ATOM     21  C   UNL     1      -0.860   1.679   3.612  0.00  0.00    +0.079 A 
ATOM     22  C   UNL     1      -0.363   1.332   4.855  0.00  0.00    +0.037 A 
ATOM     23  C   UNL     1       0.781   0.546   4.916  0.00  0.00    +0.072 A 
ATOM     24  C   UNL     1       1.381   0.133   3.744  0.00  0.00    +0.096 A 
ATOM     25 CL   UNL     1      -2.282   2.665   3.476  0.00  0.00    -0.080 Cl
ATOM     26  N   UNL     1       0.917   0.450   2.505  0.00  0.00    -0.348 N 
ATOM     27  H   UNL     1       1.384   0.128   1.649  0.00  0.00    +0.167 HD
BRANCH  23  28
ATOM     28  C   UNL     1       1.362   0.149   6.248  0.00  0.00    +0.419 C 
ATOM     29  F   UNL     1       2.502  -0.636   6.045  0.00  0.00    -0.166 F 
ATOM     30  F   UNL     1       1.708   1.297   6.968  0.00  0.00    -0.166 F 
ATOM     31  F   UNL     1       0.414  -0.585   6.970  0.00  0.00    -0.166 F 
ENDBRANCH  23  28
ENDBRANCH  18  20
ENDBRANCH  17  18
ENDBRANCH   1  17
TORSDOF 8
