REMARK  Name = ZINC08994418
REMARK  5 active torsions:
REMARK  status: ('A' for Active; 'I' for Inactive)
REMARK    1  A    between atoms: C_1  and  C_2
REMARK    2  A    between atoms: C_2  and  N_58
REMARK    3  A    between atoms: C_15  and  C_17
REMARK    4  A    between atoms: N_24  and  C_27
REMARK    5  A    between atoms: C_25  and  O_26
REMARK                            x       y       z     vdW  Elec       q    Type
REMARK                         _______ _______ _______ _____ _____    ______ ____
ROOT
ATOM      1  C   UNL     1      -1.399   3.492   2.528  0.00  0.00    +0.069 A 
ATOM      2  C   UNL     1      -2.783   3.239   2.506  0.00  0.00    +0.260 A 
ATOM      3  O   UNL     1      -3.279   2.624   1.577  0.00  0.00    -0.267 OA
ATOM      4  N   UNL     1      -3.556   3.681   3.517  0.00  0.00    -0.274 N 
ATOM      5  H   UNL     1      -4.540   3.502   3.503  0.00  0.00    +0.173 HD
ATOM      6  C   UNL     1      -3.015   4.361   4.544  0.00  0.00    +0.337 A 
ATOM      7  O   UNL     1      -3.730   4.751   5.447  0.00  0.00    -0.246 OA
ATOM      8  N   UNL     1      -1.694   4.615   4.587  0.00  0.00    -0.232 N 
ATOM      9  C   UNL     1      -0.869   4.178   3.580  0.00  0.00    +0.208 A 
ENDROOT
BRANCH   1  22
ATOM     10  C   UNL     1      -0.013   1.086   0.008  0.00  0.00    -0.073 C 
ATOM     11  C   UNL     1      -0.755   1.594  -1.235  0.00  0.00    +0.019 C 
ATOM     12  C   UNL     1      -0.997   3.073  -1.062  0.00  0.00    -0.022 A 
ATOM     13  C   UNL     1      -1.369   4.063  -2.047  0.00  0.00    +0.003 A 
ATOM     14  C   UNL     1      -1.620   3.990  -3.421  0.00  0.00    +0.010 A 
ATOM     15  C   UNL     1      -1.958   5.160  -4.054  0.00  0.00    +0.001 A 
ATOM     16  C   UNL     1      -2.050   6.364  -3.375  0.00  0.00    +0.002 A 
ATOM     17  C   UNL     1      -1.808   6.466  -2.016  0.00  0.00    +0.026 A 
ATOM     18  C   UNL     1      -1.462   5.294  -1.347  0.00  0.00    +0.047 A 
ATOM     19  N   UNL     1      -1.165   5.042  -0.038  0.00  0.00    -0.359 N 
ATOM     20  H   UNL     1      -1.151   5.706   0.669  0.00  0.00    +0.166 HD
ATOM     21  C   UNL     1      -0.889   3.712   0.126  0.00  0.00    +0.011 A 
ATOM     22  C   UNL     1      -0.515   3.007   1.408  0.00  0.00    +0.021 C 
ATOM     23  N   UNL     1      -0.732   1.554   1.214  0.00  0.00    +0.388 N 
ATOM     24  H   UNL     1      -1.736   1.381   1.091  0.00  0.00    -0.080 HD
BRANCH  23  26
ATOM     25  C   UNL     1       1.214   1.116   2.678  0.00  0.00    -0.017 C 
ATOM     26  C   UNL     1      -0.260   0.811   2.401  0.00  0.00    -0.081 C 
ENDBRANCH  23  26
ENDBRANCH   1  22
BRANCH   8  27
ATOM     27  C   UNL     1      -1.158   5.323   5.667  0.00  0.00    +0.062 A 
ATOM     28  C   UNL     1      -0.719   4.653   6.789  0.00  0.00    +0.027 A 
ATOM     29  C   UNL     1      -0.180   5.348   7.867  0.00  0.00    +0.003 A 
ATOM     30  C   UNL     1      -0.080   6.705   7.849  0.00  0.00    +0.008 A 
ATOM     31  C   UNL     1      -0.521   7.426   6.727  0.00  0.00    -0.016 A 
ATOM     32  C   UNL     1      -1.067   6.730   5.621  0.00  0.00    +0.006 A 
ATOM     33  C   UNL     1      -1.508   7.452   4.501  0.00  0.00    +0.010 A 
ATOM     34  C   UNL     1      -1.404   8.809   4.490  0.00  0.00    +0.001 A 
ATOM     35  C   UNL     1      -0.867   9.496   5.578  0.00  0.00    +0.001 A 
ATOM     36  C   UNL     1      -0.430   8.829   6.681  0.00  0.00    +0.008 A 
ENDBRANCH   8  27
BRANCH   9  37
ATOM     37  O   UNL     1       0.457   4.430   3.629  0.00  0.00    -0.493 OA
ATOM     38  H   UNL     1       0.735   4.921   4.414  0.00  0.00    +0.294 HD
ENDBRANCH   9  37
TORSDOF 4
