REMARK  Name = ZINC40744800
REMARK  14 active torsions:
REMARK  status: ('A' for Active; 'I' for Inactive)
REMARK    1  A    between atoms: C_1  and  C_2
REMARK    2  A    between atoms: C_2  and  O_3
REMARK    3  A    between atoms: O_3  and  C_4
REMARK    4  A    between atoms: C_6  and  C_20
REMARK    5  A    between atoms: C_9  and  O_10
REMARK    6  A    between atoms: O_10  and  C_11
REMARK    7  A    between atoms: C_11  and  C_12
REMARK    8  A    between atoms: C_17  and  C_18
REMARK    9  A    between atoms: C_20  and  N_21
REMARK   10  A    between atoms: N_21  and  C_22
REMARK   11  A    between atoms: C_22  and  C_23
REMARK   12  A    between atoms: C_23  and  S_24
REMARK   13  A    between atoms: S_24  and  C_25
REMARK   14  A    between atoms: N_29  and  C_30
REMARK                            x       y       z     vdW  Elec       q    Type
REMARK                         _______ _______ _______ _____ _____    ______ ____
ROOT
ATOM      1  C   UNL     1       0.802  -1.825   1.306  0.00  0.00    +0.164 A 
ATOM      2  C   UNL     1       0.260  -2.673   0.352  0.00  0.00    +0.051 A 
ATOM      3  C   UNL     1       0.371  -4.043   0.502  0.00  0.00    -0.059 A 
ATOM      4  C   UNL     1       1.022  -4.571   1.601  0.00  0.00    +0.025 A 
ATOM      5  C   UNL     1       1.565  -3.731   2.557  0.00  0.00    +0.086 A 
ATOM      6  C   UNL     1       1.462  -2.356   2.409  0.00  0.00    +0.181 A 
ATOM      7 CL   UNL     1       2.381  -4.397   3.937  0.00  0.00    -0.080 Cl
ENDROOT
BRANCH   1   8
ATOM      8  O   UNL     1       0.693  -0.477   1.160  0.00  0.00    -0.489 OA
BRANCH   8  10
ATOM      9  C   UNL     1      -0.019   1.526   0.010  0.00  0.00    +0.048 C 
ATOM     10  C   UNL     1       0.002  -0.004   0.002  0.00  0.00    +0.226 C 
ENDBRANCH   8  10
ENDBRANCH   1   8
BRANCH   6  11
ATOM     11  O   UNL     1       2.001  -1.527   3.345  0.00  0.00    -0.482 OA
BRANCH  11  12
ATOM     12  C   UNL     1       1.161  -1.150   4.438  0.00  0.00    +0.265 C 
BRANCH  12  13
ATOM     13  C   UNL     1       1.923  -0.238   5.364  0.00  0.00    -0.007 A 
ATOM     14  C   UNL     1       3.230   0.106   5.075  0.00  0.00    +0.007 A 
ATOM     15  C   UNL     1       3.928   0.943   5.925  0.00  0.00    +0.000 A 
ATOM     16  C   UNL     1       3.319   1.436   7.064  0.00  0.00    +0.000 A 
ATOM     17  C   UNL     1       2.012   1.093   7.353  0.00  0.00    +0.004 A 
ATOM     18  C   UNL     1       1.312   0.259   6.500  0.00  0.00    -0.044 A 
ATOM     19  C   UNL     1      -0.115  -0.111   6.812  0.00  0.00    +0.044 C 
ENDBRANCH  12  13
ENDBRANCH  11  12
ENDBRANCH   6  11
BRANCH   3  20
ATOM     20  C   UNL     1      -0.218  -4.962  -0.536  0.00  0.00    -0.047 C 
BRANCH  20  21
ATOM     21  N   UNL     1       0.786  -5.240  -1.571  0.00  0.00    +0.382 N 
ATOM     22  H   UNL     1       1.066  -4.375  -2.009  0.00  0.00    -0.085 HD
ATOM     23  H   UNL     1       1.590  -5.680  -1.150  0.00  0.00    -0.085 HD
BRANCH  21  24
ATOM     24  C   UNL     1       0.211  -6.137  -2.583  0.00  0.00    -0.071 C 
BRANCH  24  25
ATOM     25  C   UNL     1       1.257  -6.426  -3.662  0.00  0.00    +0.058 C 
BRANCH  25  26
ATOM     26  S   UNL     1       0.547  -7.534  -4.911  0.00  0.00    -0.086 S 
BRANCH  26  27
ATOM     27  C   UNL     1       1.857  -7.768  -6.066  0.00  0.00    +0.209 A 
ATOM     28  N   UNL     1       3.062  -7.246  -5.998  0.00  0.00    -0.102 NA
ATOM     29  N   UNL     1       3.772  -7.619  -7.001  0.00  0.00    -0.022 NA
ATOM     30  N   UNL     1       3.086  -8.392  -7.772  0.00  0.00    -0.043 NA
ATOM     31  N   UNL     1       1.813  -8.524  -7.189  0.00  0.00    -0.223 N 
ATOM     32  C   UNL     1       0.682  -9.308  -7.690  0.00  0.00    +0.177 C 
ENDBRANCH  26  27
ENDBRANCH  25  26
ENDBRANCH  24  25
ENDBRANCH  21  24
ENDBRANCH  20  21
ENDBRANCH   3  20
TORSDOF 11
