REMARK  Name = ZINC21703993
REMARK  8 active torsions:
REMARK  status: ('A' for Active; 'I' for Inactive)
REMARK    1  A    between atoms: C_4  and  C_7
REMARK    2  A    between atoms: C_13  and  C_15
REMARK    3  A    between atoms: C_15  and  O_16
REMARK    4  A    between atoms: O_16  and  C_17
REMARK    5  A    between atoms: C_17  and  C_19
REMARK    6  A    between atoms: C_20  and  C_24
REMARK    7  A    between atoms: C_24  and  O_25
REMARK    8  A    between atoms: O_25  and  C_26
REMARK                            x       y       z     vdW  Elec       q    Type
REMARK                         _______ _______ _______ _____ _____    ______ ____
ROOT
ATOM      1  C   UNL     1       3.703   5.370  -0.004  0.00  0.00    +0.328 C 
ENDROOT
BRANCH   1   8
ATOM      2  C   UNL     1       9.605   5.692  -0.057  0.00  0.00    +0.250 A 
ATOM      3  N   UNL     1       9.219   4.439  -0.060  0.00  0.00    -0.106 NA
ATOM      4  N   UNL     1       7.934   4.387  -0.043  0.00  0.00    -0.092 NA
ATOM      5  C   UNL     1       7.448   5.605  -0.037  0.00  0.00    +0.315 A 
ATOM      6  O   UNL     1       8.491   6.456  -0.043  0.00  0.00    -0.405 OA
ATOM      7  N   UNL     1       6.107   5.953  -0.023  0.00  0.00    -0.236 N 
ATOM      8  C   UNL     1       5.162   4.992  -0.020  0.00  0.00    +0.258 C 
ATOM      9  O   UNL     1       5.485   3.823  -0.029  0.00  0.00    -0.272 OA
ATOM     10  H   UNL     1       5.813   7.013  -0.015  0.00  0.00    +0.159 HD
BRANCH   2  14
ATOM     11  C   UNL     1      13.615   7.091  -0.085  0.00  0.00    +0.000 A 
ATOM     12  C   UNL     1      13.360   5.731  -0.090  0.00  0.00    +0.001 A 
ATOM     13  C   UNL     1      12.059   5.270  -0.081  0.00  0.00    +0.013 A 
ATOM     14  C   UNL     1      11.000   6.179  -0.067  0.00  0.00    +0.039 A 
ATOM     15  C   UNL     1      11.264   7.549  -0.067  0.00  0.00    +0.013 A 
ATOM     16  C   UNL     1      12.569   7.997  -0.071  0.00  0.00    +0.001 A 
ENDBRANCH   2  14
ENDBRANCH   1   8
BRANCH   1  17
ATOM     17  O   UNL     1       2.891   4.166  -0.003  0.00  0.00    -0.450 OA
BRANCH  17  18
ATOM     18  C   UNL     1       1.552   4.330   0.010  0.00  0.00    +0.376 C 
ATOM     19  O   UNL     1       1.077   5.450   0.020  0.00  0.00    -0.241 OA
BRANCH  18  20
ATOM     20  C   UNL     1       0.671   3.161   0.012  0.00  0.00    +0.218 A 
ATOM     21  C   UNL     1      -0.695   3.184   0.025  0.00  0.00    +0.042 A 
ATOM     22  C   UNL     1      -1.122   1.848   0.017  0.00  0.00    +0.049 A 
ATOM     23  C   UNL     1      -0.013   1.076   0.008  0.00  0.00    +0.196 A 
ATOM     24  O   UNL     1       1.065   1.870   0.002  0.00  0.00    -0.456 OA
BRANCH  21  25
ATOM     25  C   UNL     1      -1.574   4.409   0.039  0.00  0.00    +0.268 C 
BRANCH  25  26
ATOM     26  O   UNL     1      -2.946   4.011   0.049  0.00  0.00    -0.487 OA
BRANCH  26  27
ATOM     27  C   UNL     1      -3.876   5.002   0.063  0.00  0.00    +0.121 A 
ATOM     28  C   UNL     1      -3.475   6.330   0.072  0.00  0.00    +0.045 A 
ATOM     29  C   UNL     1      -4.423   7.336   0.080  0.00  0.00    +0.004 A 
ATOM     30  C   UNL     1      -5.769   7.019   0.091  0.00  0.00    +0.000 A 
ATOM     31  C   UNL     1      -6.170   5.696   0.088  0.00  0.00    +0.004 A 
ATOM     32  C   UNL     1      -5.227   4.687   0.074  0.00  0.00    +0.045 A 
ENDBRANCH  26  27
ENDBRANCH  25  26
ENDBRANCH  21  25
ENDBRANCH  18  20
ENDBRANCH  17  18
ENDBRANCH   1  17
TORSDOF 8
