REMARK  Name = ZINC63499162
REMARK  3 active torsions:
REMARK  status: ('A' for Active; 'I' for Inactive)
REMARK    1  A    between atoms: C_1  and  C_2
REMARK    2  A    between atoms: C_5  and  C_11
REMARK    3  A    between atoms: C_7  and  N_8
REMARK                            x       y       z     vdW  Elec       q    Type
REMARK                         _______ _______ _______ _____ _____    ______ ____
ROOT
ATOM      1  C   UNL     1       0.578  -4.220  -0.099  0.00  0.00    +0.190 C 
ATOM      2  N   UNL     1      -0.215  -4.836  -1.170  0.00  0.00    -0.322 N 
ATOM      3  C   UNL     1      -1.573  -5.047  -0.954  0.00  0.00    +0.041 A 
ATOM      4  C   UNL     1      -2.491  -5.034  -1.989  0.00  0.00    +0.025 A 
ATOM      5  C   UNL     1      -3.829  -5.246  -1.719  0.00  0.00    +0.022 A 
ATOM      6  C   UNL     1      -4.259  -5.472  -0.420  0.00  0.00    +0.042 A 
ATOM      7  C   UNL     1      -3.356  -5.490   0.624  0.00  0.00    +0.035 A 
ATOM      8  C   UNL     1      -2.004  -5.279   0.365  0.00  0.00    +0.059 A 
ATOM      9  C   UNL     1      -0.996  -5.296   1.440  0.00  0.00    +0.247 C 
ATOM     10  O   UNL     1      -1.277  -5.732   2.540  0.00  0.00    -0.270 OA
ATOM     11  N   UNL     1       0.242  -4.822   1.191  0.00  0.00    -0.289 N 
ATOM     12 CL   UNL     1      -5.946  -5.735  -0.104  0.00  0.00    -0.084 Cl
ATOM     13  H   UNL     1       0.198  -5.090  -2.010  0.00  0.00    +0.148 HD
ATOM     14  H   UNL     1       0.923  -4.882   1.879  0.00  0.00    +0.151 HD
ENDROOT
BRANCH   1  19
ATOM     15  C   UNL     1      -0.537   1.447   0.088  0.00  0.00    +0.046 C 
ATOM     16  C   UNL     1      -0.246  -0.031   0.039  0.00  0.00    -0.020 A 
ATOM     17  C   UNL     1      -0.347  -0.716  -1.157  0.00  0.00    +0.006 A 
ATOM     18  C   UNL     1      -0.080  -2.071  -1.202  0.00  0.00    +0.007 A 
ATOM     19  C   UNL     1       0.288  -2.742  -0.051  0.00  0.00    -0.007 A 
ATOM     20  C   UNL     1       0.390  -2.057   1.145  0.00  0.00    +0.040 A 
ATOM     21  C   UNL     1       0.127  -0.700   1.190  0.00  0.00    +0.129 A 
BRANCH  21  22
ATOM     22  N   UNL     1       0.241   0.035   2.470  0.00  0.00    +0.057 N 
ATOM     23  O   UNL     1       0.674   1.163   2.482  0.00  0.00    -0.126 OA
ATOM     24  O   UNL     1      -0.099  -0.494   3.502  0.00  0.00    -0.126 OA
ENDBRANCH  21  22
ENDBRANCH   1  19
TORSDOF 2
