REMARK  Name = ZINC43763131
REMARK  5 active torsions:
REMARK  status: ('A' for Active; 'I' for Inactive)
REMARK    1  A    between atoms: C_14  and  C_25
REMARK    2  A    between atoms: C_14  and  O_29
REMARK    3  A    between atoms: C_25  and  C_26
REMARK    4  A    between atoms: C_26  and  C_27
REMARK    5  A    between atoms: C_27  and  O_28
REMARK                            x       y       z     vdW  Elec       q    Type
REMARK                         _______ _______ _______ _____ _____    ______ ____
ROOT
ATOM      1  C   UNL     1       0.260  -0.063  -0.762  0.00  0.00    +0.031 C 
ATOM      2  C   UNL     1       1.651   0.610  -0.619  0.00  0.00    +0.043 C 
ATOM      3  C   UNL     1       2.355  -0.266   0.427  0.00  0.00    +0.133 C 
ATOM      4  C   UNL     1       2.223   0.342   1.823  0.00  0.00    +0.133 C 
ATOM      5  C   UNL     1       2.711   1.790   1.866  0.00  0.00    +0.043 C 
ATOM      6  C   UNL     1       1.473   2.594   2.360  0.00  0.00    +0.031 C 
ATOM      7  C   UNL     1       0.320   1.686   1.850  0.00  0.00    +0.161 C 
ATOM      8  O   UNL     1       0.812   0.364   2.170  0.00  0.00    -0.367 OA
ATOM      9  C   UNL     1       2.915  -0.546   2.852  0.00  0.00    +0.132 C 
ATOM     10  C   UNL     1       2.881   0.135   4.240  0.00  0.00    +0.043 C 
ATOM     11  C   UNL     1       1.526  -0.404   4.797  0.00  0.00    +0.031 C 
ATOM     12  C   UNL     1       1.658  -1.882   4.332  0.00  0.00    +0.161 C 
ATOM     13  O   UNL     1       2.154  -1.768   2.984  0.00  0.00    -0.367 OA
ATOM     14  C   UNL     1       4.353  -0.915   2.497  0.00  0.00    +0.129 C 
ATOM     15  C   UNL     1       4.446  -1.455   1.075  0.00  0.00    +0.132 C 
ATOM     16  C   UNL     1       3.816  -0.486   0.070  0.00  0.00    +0.133 C 
ATOM     17  C   UNL     1       3.936  -1.085  -1.348  0.00  0.00    +0.043 C 
ATOM     18  C   UNL     1       4.346   0.111  -2.237  0.00  0.00    +0.031 C 
ATOM     19  C   UNL     1       4.338   1.316  -1.269  0.00  0.00    +0.161 C 
ATOM     20  O   UNL     1       4.580   0.729   0.030  0.00  0.00    -0.367 OA
ATOM     21  C   UNL     1       5.907  -1.742   0.677  0.00  0.00    +0.043 C 
ATOM     22  C   UNL     1       6.032  -3.255   1.049  0.00  0.00    +0.031 C 
ATOM     23  C   UNL     1       4.644  -3.739   0.543  0.00  0.00    +0.161 C 
ATOM     24  O   UNL     1       3.743  -2.711   1.000  0.00  0.00    -0.367 OA
ATOM     25  O   UNL     1       1.677  -1.538   0.434  0.00  0.00    -0.367 OA
ATOM     26  C   UNL     1       0.635  -1.552  -0.555  0.00  0.00    +0.161 C 
ENDROOT
BRANCH  14  27
ATOM     27  O   UNL     1       4.745  -1.983   3.392  0.00  0.00    -0.383 OA
ATOM     28  H   UNL     1       4.211  -2.784   3.306  0.00  0.00    +0.210 HD
ENDBRANCH  14  27
BRANCH  14  29
ATOM     29  C   UNL     1       5.308   0.247   2.741  0.00  0.00    +0.043 C 
BRANCH  29  30
ATOM     30  C   UNL     1       5.404   0.520   4.244  0.00  0.00    +0.031 C 
BRANCH  30  31
ATOM     31  C   UNL     1       6.520   1.533   4.507  0.00  0.00    +0.156 C 
BRANCH  31  32
ATOM     32  O   UNL     1       6.610   1.789   5.910  0.00  0.00    -0.395 OA
ATOM     33  H   UNL     1       7.299   2.424   6.151  0.00  0.00    +0.209 HD
ENDBRANCH  31  32
ENDBRANCH  30  31
ENDBRANCH  29  30
ENDBRANCH  14  29
TORSDOF 5
