REMARK  Name = ZINC46583216
REMARK  11 active torsions:
REMARK  status: ('A' for Active; 'I' for Inactive)
REMARK    1  A    between atoms: C_1  and  C_2
REMARK    2  A    between atoms: C_2  and  C_4
REMARK    3  A    between atoms: C_2  and  N_11
REMARK    4  A    between atoms: N_11  and  C_12
REMARK    5  A    between atoms: N_11  and  C_13
REMARK    6  A    between atoms: C_13  and  C_14
REMARK    7  A    between atoms: N_16  and  C_17
REMARK    8  A    between atoms: C_21  and  S_23
REMARK    9  A    between atoms: S_23  and  N_26
REMARK   10  A    between atoms: N_26  and  C_27
REMARK   11  A    between atoms: N_26  and  C_28
REMARK                            x       y       z     vdW  Elec       q    Type
REMARK                         _______ _______ _______ _____ _____    ______ ____
ROOT
ATOM      1  C   UNL     1       1.074  -2.401   2.544  0.00  0.00    +0.201 C 
ATOM      2  O   UNL     1       1.459  -1.611   3.381  0.00  0.00    -0.278 OA
ATOM      3  N   UNL     1       1.284  -3.721   2.717  0.00  0.00    -0.287 N 
ATOM      4  H   UNL     1       0.917  -4.357   2.084  0.00  0.00    +0.155 HD
ENDROOT
BRANCH   3   5
ATOM      5  C   UNL     1       2.033  -4.173   3.810  0.00  0.00    +0.035 A 
ATOM      6  C   UNL     1       2.862  -5.279   3.676  0.00  0.00    +0.025 A 
ATOM      7  C   UNL     1       3.599  -5.723   4.756  0.00  0.00    +0.024 A 
ATOM      8  C   UNL     1       3.512  -5.067   5.971  0.00  0.00    +0.067 A 
ATOM      9  C   UNL     1       2.687  -3.965   6.108  0.00  0.00    +0.125 A 
ATOM     10  C   UNL     1       1.952  -3.513   5.029  0.00  0.00    +0.053 A 
ATOM     11 CL   UNL     1       4.439  -5.629   7.327  0.00  0.00    -0.082 Cl
BRANCH   9  12
ATOM     12  S   UNL     1       2.579  -3.133   7.657  0.00  0.00    +0.062 S 
ATOM     13  O   UNL     1       1.665  -2.059   7.479  0.00  0.00    -0.153 OA
ATOM     14  O   UNL     1       2.391  -4.137   8.645  0.00  0.00    -0.153 OA
BRANCH  12  15
ATOM     15  N   UNL     1       4.059  -2.451   7.951  0.00  0.00    -0.183 NA
ATOM     16  C   UNL     1       4.400  -1.156   7.357  0.00  0.00    +0.131 C 
ATOM     17  C   UNL     1       5.028  -3.143   8.806  0.00  0.00    +0.131 C 
ENDBRANCH  12  15
ENDBRANCH   9  12
ENDBRANCH   3   5
BRANCH   1  18
ATOM     18  C   UNL     1       0.362  -1.906   1.312  0.00  0.00    +0.019 C 
BRANCH  18  19
ATOM     19  N   UNL     1       0.259  -0.442   1.360  0.00  0.00    +0.388 N 
ATOM     20  C   UNL     1       1.604   0.146   1.293  0.00  0.00    -0.095 C 
ATOM     21  H   UNL     1      -0.187  -0.164   2.221  0.00  0.00    -0.081 HD
BRANCH  19  23
ATOM     22  C   UNL     1      -0.646   1.556   0.271  0.00  0.00    -0.008 C 
ATOM     23  C   UNL     1      -0.539   0.031   0.221  0.00  0.00    -0.041 C 
BRANCH  23  24
ATOM     24  C   UNL     1      -1.918  -0.572   0.289  0.00  0.00    -0.061 A 
ATOM     25  C   UNL     1      -2.563  -0.686   1.506  0.00  0.00    +0.003 A 
ATOM     26  C   UNL     1      -3.828  -1.239   1.570  0.00  0.00    +0.020 A 
ATOM     27  C   UNL     1      -4.449  -1.678   0.414  0.00  0.00    +0.041 A 
ATOM     28  C   UNL     1      -3.804  -1.563  -0.804  0.00  0.00    +0.020 A 
ATOM     29  C   UNL     1      -2.541  -1.005  -0.867  0.00  0.00    +0.003 A 
ATOM     30 CL   UNL     1      -6.038  -2.373   0.493  0.00  0.00    -0.084 Cl
ENDBRANCH  23  24
ENDBRANCH  19  23
ENDBRANCH  18  19
ENDBRANCH   1  18
TORSDOF 7
