REMARK  Name = ZINC01202423
REMARK  7 active torsions:
REMARK  status: ('A' for Active; 'I' for Inactive)
REMARK    1  A    between atoms: C_1  and  C_2
REMARK    2  A    between atoms: C_3  and  C_30
REMARK    3  A    between atoms: C_4  and  C_21
REMARK    4  A    between atoms: C_10  and  C_15
REMARK    5  A    between atoms: C_25  and  N_27
REMARK    6  A    between atoms: C_30  and  O_32
REMARK    7  A    between atoms: O_32  and  C_33
REMARK                            x       y       z     vdW  Elec       q    Type
REMARK                         _______ _______ _______ _____ _____    ______ ____
ROOT
ATOM      1  C   UNL     1      -1.368   1.920  -0.492  0.00  0.00    +0.061 C 
ATOM      2  C   UNL     1      -0.033   1.270  -0.234  0.00  0.00    +0.016 C 
ATOM      3  C   UNL     1       0.030  -0.049   0.019  0.00  0.00    +0.065 C 
ATOM      4  C   UNL     1       1.342  -0.733   0.265  0.00  0.00    +0.092 C 
ATOM      5  C   UNL     1       2.417   0.266   0.611  0.00  0.00    +0.024 C 
ATOM      6  C   UNL     1       2.254   1.577   0.335  0.00  0.00    +0.016 C 
ATOM      7  N   UNL     1       1.107   2.023  -0.265  0.00  0.00    -0.321 N 
ATOM      8  C   UNL     1       3.324   2.583   0.681  0.00  0.00    +0.059 C 
ATOM      9  C   UNL     1       4.699   1.916   0.611  0.00  0.00    +0.032 C 
ATOM     10  C   UNL     1       4.714   0.730   1.581  0.00  0.00    +0.088 C 
ATOM     11  C   UNL     1       3.591  -0.206   1.226  0.00  0.00    +0.162 C 
ATOM     12  O   UNL     1       3.699  -1.390   1.474  0.00  0.00    -0.292 OA
ATOM     13  H   UNL     1       1.108   2.998  -0.774  0.00  0.00    +0.152 HD
ENDROOT
BRANCH   9  14
ATOM     14  C   UNL     1       5.763   2.907   1.007  0.00  0.00    -0.044 A 
ATOM     15  C   UNL     1       5.723   3.503   2.254  0.00  0.00    +0.004 A 
ATOM     16  C   UNL     1       6.702   4.409   2.619  0.00  0.00    +0.000 A 
ATOM     17  C   UNL     1       7.715   4.725   1.734  0.00  0.00    +0.000 A 
ATOM     18  C   UNL     1       7.753   4.133   0.485  0.00  0.00    +0.000 A 
ATOM     19  C   UNL     1       6.777   3.224   0.122  0.00  0.00    +0.004 A 
ENDBRANCH   9  14
BRANCH   4  20
ATOM     20  C   UNL     1       1.748  -1.485  -0.976  0.00  0.00    -0.033 A 
ATOM     21  C   UNL     1       1.933  -0.806  -2.166  0.00  0.00    +0.005 A 
ATOM     22  C   UNL     1       2.309  -1.495  -3.304  0.00  0.00    +0.003 A 
ATOM     23  C   UNL     1       2.492  -2.865  -3.254  0.00  0.00    +0.033 A 
ATOM     24  C   UNL     1       2.303  -3.544  -2.065  0.00  0.00    +0.126 A 
ATOM     25  C   UNL     1       1.931  -2.854  -0.926  0.00  0.00    +0.037 A 
BRANCH  24  26
ATOM     26  N   UNL     1       2.499  -5.011  -2.011  0.00  0.00    +0.056 N 
ATOM     27  O   UNL     1       2.332  -5.609  -0.964  0.00  0.00    -0.126 OA
ATOM     28  O   UNL     1       2.827  -5.618  -3.015  0.00  0.00    -0.126 OA
ENDBRANCH  24  26
ENDBRANCH   4  20
BRANCH   3  29
ATOM     29  C   UNL     1      -1.165  -0.806   0.054  0.00  0.00    +0.338 C 
ATOM     30  O   UNL     1      -2.243  -0.246  -0.022  0.00  0.00    -0.245 OA
BRANCH  29  31
ATOM     31  O   UNL     1      -1.109  -2.149   0.171  0.00  0.00    -0.458 OA
BRANCH  31  32
ATOM     32  C   UNL     1      -2.354  -2.850   0.200  0.00  0.00    +0.177 C 
ATOM     33  C   UNL     1      -2.816  -3.047   1.658  0.00  0.00    +0.044 C 
ATOM     34  C   UNL     1      -3.465  -4.454   1.664  0.00  0.00    +0.004 C 
ATOM     35  C   UNL     1      -2.544  -5.259   0.714  0.00  0.00    +0.004 C 
ATOM     36  C   UNL     1      -2.181  -4.256  -0.401  0.00  0.00    +0.044 C 
ENDBRANCH  31  32
ENDBRANCH  29  31
ENDBRANCH   3  29
TORSDOF 6
