REMARK  Name = ZINC13214363
REMARK  8 active torsions:
REMARK  status: ('A' for Active; 'I' for Inactive)
REMARK    1  A    between atoms: C_1  and  O_2
REMARK    2  A    between atoms: O_2  and  C_3
REMARK    3  A    between atoms: C_6  and  C_10
REMARK    4  A    between atoms: C_10  and  C_12
REMARK    5  A    between atoms: N_16  and  C_28
REMARK    6  A    between atoms: C_17  and  C_19
REMARK    7  A    between atoms: C_24  and  N_25
REMARK    8  A    between atoms: C_32  and  C_34
REMARK                            x       y       z     vdW  Elec       q    Type
REMARK                         _______ _______ _______ _____ _____    ______ ____
ROOT
ATOM      1  C   UNL     1       3.300  -1.711  -5.631  0.00  0.00    +0.077 C 
ATOM      2  C   UNL     1       3.864  -2.069  -6.809  0.00  0.00    +0.250 C 
ATOM      3  C   UNL     1       4.219  -0.852  -7.567  0.00  0.00    +0.292 C 
ATOM      4  O   UNL     1       4.742  -0.842  -8.664  0.00  0.00    -0.266 OA
ATOM      5  N   UNL     1       3.878   0.243  -6.864  0.00  0.00    -0.253 N 
ATOM      6  C   UNL     1       3.272  -0.201  -5.603  0.00  0.00    +0.152 C 
ATOM      7  O   UNL     1       4.069  -3.340  -7.225  0.00  0.00    -0.282 OA
ENDROOT
BRANCH   6   8
ATOM      8  C   UNL     1       4.078   0.310  -4.436  0.00  0.00    +0.008 A 
ATOM      9  C   UNL     1       5.399   0.676  -4.615  0.00  0.00    +0.008 A 
ATOM     10  C   UNL     1       6.138   1.145  -3.546  0.00  0.00    +0.000 A 
ATOM     11  C   UNL     1       5.556   1.249  -2.296  0.00  0.00    +0.002 A 
ATOM     12  C   UNL     1       4.234   0.885  -2.117  0.00  0.00    +0.033 A 
ATOM     13  C   UNL     1       3.494   0.420  -3.188  0.00  0.00    +0.131 A 
BRANCH  13  14
ATOM     14  N   UNL     1       2.078   0.035  -2.997  0.00  0.00    +0.057 N 
ATOM     15  O   UNL     1       1.585   0.070  -1.894  0.00  0.00    -0.126 OA
ATOM     16  O   UNL     1       1.414  -0.316  -3.945  0.00  0.00    -0.126 OA
ENDBRANCH  13  14
ENDBRANCH   6   8
BRANCH   5  17
ATOM     17  C   UNL     1       4.063   1.569  -7.265  0.00  0.00    +0.038 A 
ATOM     18  C   UNL     1       3.667   2.610  -6.432  0.00  0.00    +0.023 A 
ATOM     19  C   UNL     1       3.848   3.923  -6.824  0.00  0.00    +0.003 A 
ATOM     20  C   UNL     1       4.422   4.211  -8.046  0.00  0.00    +0.015 A 
ATOM     21  C   UNL     1       4.824   3.173  -8.890  0.00  0.00    +0.065 A 
ATOM     22  C   UNL     1       4.647   1.847  -8.492  0.00  0.00    +0.038 A 
BRANCH  21  23
ATOM     23  C   UNL     1       5.438   3.478 -10.197  0.00  0.00    +0.387 C 
ATOM     24  O   UNL     1       5.596   4.640 -10.542  0.00  0.00    -0.241 OA
ATOM     25  O   UNL     1       5.789   2.568 -10.935  0.00  0.00    -0.241 OA
ENDBRANCH  21  23
ENDBRANCH   5  17
BRANCH   1  26
ATOM     26  C   UNL     1       2.806  -2.615  -4.588  0.00  0.00    +0.198 C 
ATOM     27  O   UNL     1       3.454  -2.783  -3.571  0.00  0.00    -0.287 OA
BRANCH  26  31
ATOM     28  C   UNL     1      -0.885  -4.649  -5.113  0.00  0.00    +0.123 A 
ATOM     29  C   UNL     1      -0.473  -3.704  -6.048  0.00  0.00    +0.046 A 
ATOM     30  C   UNL     1       0.722  -3.043  -5.881  0.00  0.00    +0.018 A 
ATOM     31  C   UNL     1       1.524  -3.321  -4.769  0.00  0.00    +0.057 A 
ATOM     32  C   UNL     1       1.106  -4.272  -3.830  0.00  0.00    +0.138 A 
ATOM     33  C   UNL     1      -0.097  -4.925  -4.003  0.00  0.00    +0.084 A 
ATOM     34  F   UNL     1       1.876  -4.545  -2.754  0.00  0.00    -0.205 F 
BRANCH  28  36
ATOM     35  C   UNL     1      -2.827  -4.965  -6.445  0.00  0.00    +0.277 C 
ATOM     36  O   UNL     1      -2.065  -5.298  -5.282  0.00  0.00    -0.495 OA
ENDBRANCH  28  36
ENDBRANCH  26  31
ENDBRANCH   1  26
TORSDOF 7
