REMARK  Name = ZINC39939412
REMARK  7 active torsions:
REMARK  status: ('A' for Active; 'I' for Inactive)
REMARK    1  A    between atoms: C_4  and  N_9
REMARK    2  A    between atoms: C_5  and  C_7
REMARK    3  A    between atoms: C_10  and  C_12
REMARK    4  A    between atoms: C_12  and  S_13
REMARK    5  A    between atoms: S_13  and  C_14
REMARK    6  A    between atoms: C_18  and  C_23
REMARK    7  A    between atoms: N_19  and  C_20
REMARK                            x       y       z     vdW  Elec       q    Type
REMARK                         _______ _______ _______ _____ _____    ______ ____
ROOT
ATOM      1  C   UNL     1       8.949  -0.459  -0.559  0.00  0.00    +0.237 C 
ATOM      2  N   UNL     1       9.061  -1.373   0.589  0.00  0.00    -0.237 N 
ATOM      3  N   UNL     1       9.022  -2.672   0.069  0.00  0.00    -0.169 NA
ATOM      4  C   UNL     1       8.902  -2.659  -1.232  0.00  0.00    +0.147 C 
ATOM      5  N   UNL     1       8.848  -1.350  -1.727  0.00  0.00    -0.282 N 
ATOM      6  H   UNL     1       9.147  -1.125   1.523  0.00  0.00    +0.171 HD
ENDROOT
BRANCH   4   7
ATOM      7  C   UNL     1       8.837  -3.809  -2.033  0.00  0.00    +0.022 C 
ATOM      8  C   UNL     1       8.789  -5.135  -1.602  0.00  0.00    +0.006 A 
ATOM      9  C   UNL     1       8.789  -5.721  -0.318  0.00  0.00    +0.010 A 
ATOM     10  C   UNL     1       8.733  -7.072  -0.193  0.00  0.00    +0.001 A 
ATOM     11  C   UNL     1       8.675  -7.907  -1.311  0.00  0.00    +0.002 A 
ATOM     12  C   UNL     1       8.671  -7.413  -2.573  0.00  0.00    +0.026 A 
ATOM     13  C   UNL     1       8.727  -6.011  -2.783  0.00  0.00    +0.043 A 
ATOM     14  N   UNL     1       8.736  -5.295  -3.890  0.00  0.00    -0.380 N 
ATOM     15  C   UNL     1       8.797  -3.871  -3.544  0.00  0.00    +0.152 C 
ATOM     16  H   UNL     1       8.702  -5.652  -4.791  0.00  0.00    +0.160 HD
ENDBRANCH   4   7
BRANCH   5  17
ATOM     17  C   UNL     1       8.718  -0.944  -3.129  0.00  0.00    +0.078 C 
ATOM     18  C   UNL     1       8.762   0.553  -3.438  0.00  0.00    +0.024 C 
ATOM     19  C   UNL     1       7.439  -0.209  -3.535  0.00  0.00    +0.024 C 
ENDBRANCH   5  17
BRANCH   1  20
ATOM     20  S   UNL     1       7.458   0.564  -0.411  0.00  0.00    -0.109 S 
BRANCH  20  21
ATOM     21  C   UNL     1       6.109  -0.642  -0.278  0.00  0.00    +0.168 C 
BRANCH  21  23
ATOM     22  N   UNL     1       3.648  -0.611  -0.035  0.00  0.00    -0.284 N 
ATOM     23  C   UNL     1       4.796   0.086  -0.148  0.00  0.00    +0.227 C 
ATOM     24  O   UNL     1       4.772   1.298  -0.146  0.00  0.00    -0.275 OA
ATOM     25  H   UNL     1       3.673  -1.578   0.044  0.00  0.00    +0.155 HD
BRANCH  22  29
ATOM     26  C   UNL     1      -0.013   1.389  -0.026  0.00  0.00    +0.001 A 
ATOM     27  C   UNL     1       1.095   1.960  -0.631  0.00  0.00    +0.002 A 
ATOM     28  C   UNL     1       2.308   1.301  -0.635  0.00  0.00    +0.024 A 
ATOM     29  C   UNL     1       2.425   0.057  -0.031  0.00  0.00    +0.051 A 
ATOM     30  C   UNL     1       1.306  -0.525   0.583  0.00  0.00    +0.073 A 
ATOM     31  C   UNL     1       0.085   0.154   0.579  0.00  0.00    +0.021 A 
BRANCH  30  32
ATOM     32  C   UNL     1       1.413  -1.809   1.209  0.00  0.00    +0.101 C 
ATOM     33  N   UNL     1       1.499  -2.827   1.706  0.00  0.00    -0.191 NA
ENDBRANCH  30  32
ENDBRANCH  22  29
ENDBRANCH  21  23
ENDBRANCH  20  21
ENDBRANCH   1  20
TORSDOF 7
