REMARK  Name = ZINC48324739
REMARK  7 active torsions:
REMARK  status: ('A' for Active; 'I' for Inactive)
REMARK    1  A    between atoms: C_1  and  N_2
REMARK    2  A    between atoms: N_5  and  C_8
REMARK    3  A    between atoms: C_8  and  C_10
REMARK    4  A    between atoms: C_8  and  C_30
REMARK    5  A    between atoms: C_10  and  N_11
REMARK    6  A    between atoms: C_12  and  C_14
REMARK    7  A    between atoms: C_14  and  N_15
REMARK                            x       y       z     vdW  Elec       q    Type
REMARK                         _______ _______ _______ _____ _____    ______ ____
ROOT
ATOM      1  N   UNL     1       3.573  -3.474   1.079  0.00  0.00    -0.312 N 
ATOM      2  C   UNL     1       4.470  -3.488   2.085  0.00  0.00    +0.231 C 
ATOM      3  O   UNL     1       4.205  -4.050   3.126  0.00  0.00    -0.274 OA
ATOM      4  H   UNL     1       3.784  -3.025   0.246  0.00  0.00    +0.149 HD
ENDROOT
BRANCH   1   5
ATOM      5  C   UNL     1       2.277  -4.138   1.245  0.00  0.00    +0.128 C 
BRANCH   5   6
ATOM      6  C   UNL     1       1.453  -3.974  -0.034  0.00  0.00    +0.110 C 
BRANCH   6  11
ATOM      7  C   UNL     1      -0.133   1.333  -1.064  0.00  0.00    -0.096 C 
ATOM      8  N   UNL     1      -0.077  -0.094  -0.722  0.00  0.00    +0.379 N 
ATOM      9  C   UNL     1       0.423  -0.854  -1.876  0.00  0.00    -0.064 C 
ATOM     10  C   UNL     1       0.464  -2.343  -1.526  0.00  0.00    +0.066 C 
ATOM     11  N   UNL     1       1.343  -2.547  -0.366  0.00  0.00    -0.297 NA
ATOM     12  C   UNL     1       0.869  -1.773   0.790  0.00  0.00    +0.066 C 
ATOM     13  C   UNL     1       0.825  -0.288   0.421  0.00  0.00    -0.064 C 
ATOM     14  H   UNL     1      -1.001  -0.419  -0.480  0.00  0.00    -0.082 HD
ENDBRANCH   6  11
BRANCH   6  15
ATOM     15  C   UNL     1       0.076  -4.549   0.178  0.00  0.00    +0.008 A 
ATOM     16  C   UNL     1      -0.468  -5.676  -0.342  0.00  0.00    +0.013 A 
ATOM     17  C   UNL     1      -1.765  -6.012  -0.004  0.00  0.00    +0.008 A 
ATOM     18  C   UNL     1      -2.454  -5.205   0.840  0.00  0.00    +0.045 A 
ATOM     19  S   UNL     1      -1.258  -3.926   1.187  0.00  0.00    -0.100 S 
ENDBRANCH   6  15
ENDBRANCH   5   6
ENDBRANCH   1   5
BRANCH   2  20
ATOM     20  C   UNL     1       5.803  -2.805   1.915  0.00  0.00    +0.213 C 
BRANCH  20  21
ATOM     21  N   UNL     1       6.592  -2.962   3.139  0.00  0.00    -0.215 N 
ATOM     22  C   UNL     1       6.562  -2.098   4.177  0.00  0.00    +0.251 C 
ATOM     23  O   UNL     1       5.904  -1.084   4.272  0.00  0.00    -0.272 OA
ATOM     24  C   UNL     1       7.522  -2.665   5.191  0.00  0.00    +0.138 C 
ATOM     25  C   UNL     1       6.813  -2.963   6.519  0.00  0.00    +0.045 C 
ATOM     26  C   UNL     1       7.111  -1.689   7.341  0.00  0.00    +0.038 C 
ATOM     27  C   UNL     1       8.391  -1.129   6.756  0.00  0.00    -0.042 A 
ATOM     28  C   UNL     1       8.626  -1.694   5.513  0.00  0.00    -0.012 A 
ATOM     29  C   UNL     1       9.749  -1.325   4.792  0.00  0.00    +0.006 A 
ATOM     30  C   UNL     1      10.633  -0.397   5.306  0.00  0.00    +0.000 A 
ATOM     31  C   UNL     1      10.399   0.167   6.546  0.00  0.00    +0.000 A 
ATOM     32  C   UNL     1       9.280  -0.200   7.269  0.00  0.00    +0.004 A 
ATOM     33  N   UNL     1       8.034  -3.887   4.572  0.00  0.00    -0.281 N 
ATOM     34  C   UNL     1       7.428  -3.983   3.371  0.00  0.00    +0.310 C 
ATOM     35  O   UNL     1       7.620  -4.891   2.587  0.00  0.00    -0.252 OA
ATOM     36  H   UNL     1       8.678  -4.506   4.950  0.00  0.00    +0.152 HD
ENDBRANCH  20  21
ENDBRANCH   2  20
TORSDOF 6
