REMARK  Name = ZINC20921156
REMARK  6 active torsions:
REMARK  status: ('A' for Active; 'I' for Inactive)
REMARK    1  A    between atoms: C_1  and  C_2
REMARK    2  A    between atoms: N_13  and  C_24
REMARK    3  A    between atoms: C_14  and  S_16
REMARK    4  A    between atoms: S_16  and  C_17
REMARK    5  A    between atoms: C_17  and  C_18
REMARK    6  A    between atoms: N_20  and  C_21
REMARK                            x       y       z     vdW  Elec       q    Type
REMARK                         _______ _______ _______ _____ _____    ______ ____
ROOT
ATOM      1  C   UNL     1      -0.003   3.976  -1.535  0.00  0.00    +0.008 C 
ATOM      2  C   UNL     1       0.217   2.471  -1.367  0.00  0.00    -0.009 C 
ATOM      3  C   UNL     1      -1.090   1.726  -1.653  0.00  0.00    +0.008 C 
ATOM      4  C   UNL     1      -0.950   0.258  -1.251  0.00  0.00    +0.037 C 
ATOM      5  C   UNL     1       0.294  -0.321  -1.918  0.00  0.00    -0.023 A 
ATOM      6  C   UNL     1       1.260   0.495  -2.397  0.00  0.00    -0.004 A 
ATOM      7  S   UNL     1       2.492  -0.589  -3.075  0.00  0.00    -0.073 S 
ATOM      8  C   UNL     1       1.713  -2.131  -2.715  0.00  0.00    +0.117 A 
ATOM      9  C   UNL     1       0.511  -1.750  -2.075  0.00  0.00    +0.076 A 
ATOM     10  C   UNL     1      -0.364  -2.801  -1.648  0.00  0.00    +0.268 A 
ATOM     11  O   UNL     1      -1.423  -2.574  -1.088  0.00  0.00    -0.267 OA
ATOM     12  N   UNL     1       0.056  -4.062  -1.905  0.00  0.00    -0.255 N 
ATOM     13  C   UNL     1       1.235  -4.338  -2.531  0.00  0.00    +0.178 A 
ATOM     14  N   UNL     1       2.068  -3.390  -2.938  0.00  0.00    -0.215 NA
ATOM     15  C   UNL     1       1.283   1.992  -2.362  0.00  0.00    +0.046 C 
ENDROOT
BRANCH  12  16
ATOM     16  C   UNL     1      -0.758  -5.132  -1.510  0.00  0.00    +0.052 A 
ATOM     17  C   UNL     1      -1.722  -5.630  -2.377  0.00  0.00    +0.028 A 
ATOM     18  C   UNL     1      -2.520  -6.688  -1.988  0.00  0.00    +0.022 A 
ATOM     19  C   UNL     1      -2.367  -7.245  -0.730  0.00  0.00    +0.041 A 
ATOM     20  C   UNL     1      -1.411  -6.747   0.138  0.00  0.00    +0.022 A 
ATOM     21  C   UNL     1      -0.607  -5.693  -0.249  0.00  0.00    +0.028 A 
ATOM     22 CL   UNL     1      -3.377  -8.569  -0.241  0.00  0.00    -0.084 Cl
ENDBRANCH  12  16
BRANCH  13  23
ATOM     23  S   UNL     1       1.671  -6.022  -2.810  0.00  0.00    -0.078 S 
BRANCH  23  24
ATOM     24  C   UNL     1       3.265  -5.802  -3.638  0.00  0.00    +0.173 C 
BRANCH  24  25
ATOM     25  C   UNL     1       3.843  -7.151  -3.982  0.00  0.00    +0.224 C 
ATOM     26  O   UNL     1       3.237  -8.161  -3.695  0.00  0.00    -0.275 OA
ATOM     27  N   UNL     1       5.034  -7.234  -4.608  0.00  0.00    -0.312 N 
ATOM     28  H   UNL     1       5.583  -6.317  -4.868  0.00  0.00    +0.149 HD
BRANCH  27  29
ATOM     29  C   UNL     1       5.596  -8.545  -4.942  0.00  0.00    +0.073 C 
ATOM     30  C   UNL     1       7.085  -8.765  -4.672  0.00  0.00    +0.024 C 
ATOM     31  C   UNL     1       6.583  -8.614  -6.109  0.00  0.00    +0.024 C 
ENDBRANCH  27  29
ENDBRANCH  24  25
ENDBRANCH  23  24
ENDBRANCH  13  23
TORSDOF 5
