REMARK  Name = ZINC19532148
REMARK  15 active torsions:
REMARK  status: ('A' for Active; 'I' for Inactive)
REMARK    1  A    between atoms: C_1  and  C_2
REMARK    2  A    between atoms: C_3  and  C_34
REMARK    3  A    between atoms: N_4  and  C_28
REMARK    4  A    between atoms: C_5  and  N_9
REMARK    5  A    between atoms: C_6  and  C_7
REMARK    6  A    between atoms: C_10  and  C_12
REMARK    7  A    between atoms: C_12  and  N_13
REMARK    8  A    between atoms: N_13  and  C_14
REMARK    9  A    between atoms: N_13  and  C_15
REMARK   10  A    between atoms: C_15  and  C_16
REMARK   11  A    between atoms: C_19  and  O_24
REMARK   12  A    between atoms: C_20  and  O_22
REMARK   13  A    between atoms: O_22  and  C_23
REMARK   14  A    between atoms: O_24  and  C_25
REMARK   15  A    between atoms: C_28  and  C_29
REMARK                            x       y       z     vdW  Elec       q    Type
REMARK                         _______ _______ _______ _____ _____    ______ ____
ROOT
ATOM      1  N   UNL     1       1.771   3.168   0.011  0.00  0.00    -0.272 N 
ATOM      2  C   UNL     1       3.090   3.419  -0.101  0.00  0.00    +0.202 C 
ATOM      3  O   UNL     1       3.867   2.507  -0.289  0.00  0.00    -0.278 OA
ATOM      4  H   UNL     1       1.056   4.001   0.083  0.00  0.00    +0.156 HD
ENDROOT
BRANCH   1   9
ATOM      5  C   UNL     1       1.416  -1.825   0.709  0.00  0.00    +0.047 C 
ATOM      6  C   UNL     1       1.121  -0.394   0.338  0.00  0.00    -0.011 A 
ATOM      7  C   UNL     1      -0.003   0.071  -0.230  0.00  0.00    +0.022 A 
ATOM      8  N   UNL     1       0.108   1.424  -0.413  0.00  0.00    -0.324 N 
ATOM      9  C   UNL     1       1.314   1.859   0.037  0.00  0.00    +0.124 A 
ATOM     10  C   UNL     1       2.008   0.761   0.525  0.00  0.00    +0.095 A 
ATOM     11  C   UNL     1      -1.200  -0.763  -0.607  0.00  0.00    +0.064 C 
BRANCH  10  12
ATOM     12  C   UNL     1       3.319   0.756   1.101  0.00  0.00    +0.103 C 
ATOM     13  N   UNL     1       4.359   0.753   1.558  0.00  0.00    -0.191 NA
ENDBRANCH  10  12
BRANCH   8  14
ATOM     14  C   UNL     1      -0.923   2.278  -1.006  0.00  0.00    +0.197 C 
BRANCH  14  15
ATOM     15  C   UNL     1      -1.907   2.691   0.059  0.00  0.00    +0.124 A 
ATOM     16  C   UNL     1      -1.863   3.832   0.769  0.00  0.00    +0.046 A 
ATOM     17  C   UNL     1      -2.971   3.811   1.647  0.00  0.00    +0.041 A 
ATOM     18  C   UNL     1      -3.621   2.654   1.426  0.00  0.00    +0.195 A 
ATOM     19  O   UNL     1      -2.972   1.980   0.463  0.00  0.00    -0.466 OA
ENDBRANCH  14  15
ENDBRANCH   8  14
ENDBRANCH   1   9
BRANCH   2  20
ATOM     20  C   UNL     1       3.599   4.834   0.007  0.00  0.00    +0.019 C 
BRANCH  20  21
ATOM     21  N   UNL     1       5.068   4.829  -0.031  0.00  0.00    +0.386 N 
ATOM     22  C   UNL     1       5.559   4.502  -1.376  0.00  0.00    -0.095 C 
ATOM     23  H   UNL     1       5.422   4.048   0.657  0.00  0.00    -0.081 HD
BRANCH  21  24
ATOM     24  C   UNL     1       5.610   6.115   0.429  0.00  0.00    -0.043 C 
BRANCH  24  25
ATOM     25  C   UNL     1       7.101   5.995   0.611  0.00  0.00    -0.060 A 
ATOM     26  C   UNL     1       7.618   5.608   1.833  0.00  0.00    +0.005 A 
ATOM     27  C   UNL     1       8.985   5.491   2.003  0.00  0.00    +0.050 A 
ATOM     28  C   UNL     1       9.841   5.772   0.951  0.00  0.00    +0.168 A 
ATOM     29  C   UNL     1       9.321   6.167  -0.278  0.00  0.00    +0.162 A 
ATOM     30  C   UNL     1       7.950   6.277  -0.444  0.00  0.00    +0.051 A 
BRANCH  29  31
ATOM     31  O   UNL     1      10.157   6.444  -1.315  0.00  0.00    -0.491 OA
ATOM     32  C   UNL     1       9.553   6.842  -2.547  0.00  0.00    +0.277 C 
ENDBRANCH  29  31
BRANCH  28  33
ATOM     33  O   UNL     1      11.186   5.663   1.118  0.00  0.00    -0.431 OA
BRANCH  33  34
ATOM     34  C   UNL     1      11.648   5.253   2.406  0.00  0.00    +0.541 C 
ATOM     35  F   UNL     1      11.224   6.175   3.369  0.00  0.00    -0.166 F 
ATOM     36  F   UNL     1      11.128   3.990   2.709  0.00  0.00    -0.166 F 
ENDBRANCH  33  34
ENDBRANCH  28  33
ENDBRANCH  24  25
ENDBRANCH  21  24
ENDBRANCH  20  21
ENDBRANCH   2  20
TORSDOF 11
