REMARK  Name = ZINC19203883
REMARK  5 active torsions:
REMARK  status: ('A' for Active; 'I' for Inactive)
REMARK    1  A    between atoms: C_2  and  C_3
REMARK    2  A    between atoms: C_3  and  N_4
REMARK    3  A    between atoms: C_7  and  C_10
REMARK    4  A    between atoms: C_16  and  C_18
REMARK    5  A    between atoms: C_18  and  C_19
REMARK                            x       y       z     vdW  Elec       q    Type
REMARK                         _______ _______ _______ _____ _____    ______ ____
ROOT
ATOM      1  N   UNL     1      -0.918   5.032   0.039  0.00  0.00    -0.246 N 
ATOM      2  C   UNL     1      -0.465   3.719   0.026  0.00  0.00    +0.168 A 
ATOM      3  N   UNL     1       0.774   3.263   0.012  0.00  0.00    -0.224 NA
ATOM      4  C   UNL     1       1.028   1.963   0.003  0.00  0.00    +0.080 A 
ATOM      5  C   UNL     1      -0.013   1.076   0.008  0.00  0.00    +0.076 A 
ATOM      6  S   UNL     1      -1.404   2.198   0.019  0.00  0.00    -0.060 S 
ATOM      7  C   UNL     1      -0.034   6.050   0.036  0.00  0.00    +0.227 C 
ATOM      8  O   UNL     1       1.156   5.819   0.024  0.00  0.00    -0.275 OA
ENDROOT
BRANCH   4   9
ATOM      9  C   UNL     1       2.428   1.474  -0.013  0.00  0.00    +0.001 A 
ATOM     10  C   UNL     1       2.691   0.105  -0.016  0.00  0.00    +0.010 A 
ATOM     11  C   UNL     1       3.996  -0.344  -0.036  0.00  0.00    +0.001 A 
ATOM     12  C   UNL     1       5.042   0.561  -0.041  0.00  0.00    +0.000 A 
ATOM     13  C   UNL     1       4.787   1.921  -0.032  0.00  0.00    +0.001 A 
ATOM     14  C   UNL     1       3.486   2.381  -0.018  0.00  0.00    +0.010 A 
ENDBRANCH   4   9
BRANCH   1  15
ATOM     15  C   UNL     1      -2.356   5.311   0.054  0.00  0.00    +0.142 C 
BRANCH  15  17
ATOM     16  C   UNL     1      -3.472   6.466   1.893  0.00  0.00    +0.005 C 
ATOM     17  C   UNL     1      -2.836   5.398   1.480  0.00  0.00    -0.015 C 
ENDBRANCH  15  17
ENDBRANCH   1  15
BRANCH   7  18
ATOM     18  C   UNL     1      -0.525   7.474   0.050  0.00  0.00    +0.155 C 
BRANCH  18  19
ATOM     19  C   UNL     1       0.654   8.413   0.044  0.00  0.00    +0.100 A 
ATOM     20  C   UNL     1       1.322   8.960  -1.140  0.00  0.00    +0.045 A 
ATOM     21  C   UNL     1       1.120   8.817  -2.515  0.00  0.00    +0.013 A 
ATOM     22  C   UNL     1       1.933   9.476  -3.393  0.00  0.00    +0.001 A 
ATOM     23  C   UNL     1       2.960  10.287  -2.929  0.00  0.00    +0.004 A 
ATOM     24  C   UNL     1       3.176  10.441  -1.577  0.00  0.00    +0.049 A 
ATOM     25  C   UNL     1       2.359   9.780  -0.667  0.00  0.00    +0.168 A 
ATOM     26  O   UNL     1       2.321   9.731   0.679  0.00  0.00    -0.354 OA
ATOM     27  N   UNL     1       1.261   8.889   1.087  0.00  0.00    -0.082 NA
ENDBRANCH  18  19
ENDBRANCH   7  18
TORSDOF 5
