REMARK  Name = ZINC01755957
REMARK  8 active torsions:
REMARK  status: ('A' for Active; 'I' for Inactive)
REMARK    1  A    between atoms: C_1  and  C_2
REMARK    2  A    between atoms: C_5  and  C_8
REMARK    3  A    between atoms: C_11  and  S_20
REMARK    4  A    between atoms: N_12  and  C_13
REMARK    5  A    between atoms: S_20  and  C_21
REMARK    6  A    between atoms: C_21  and  C_22
REMARK    7  A    between atoms: N_24  and  N_25
REMARK    8  A    between atoms: C_26  and  C_27
REMARK                            x       y       z     vdW  Elec       q    Type
REMARK                         _______ _______ _______ _____ _____    ______ ____
ROOT
ATOM      1  C   UNL     1       0.060  -4.251  -0.021  0.00  0.00    +0.169 A 
ATOM      2  N   UNL     1      -0.203  -5.029  -1.045  0.00  0.00    -0.128 NA
ATOM      3  N   UNL     1      -0.093  -6.262  -0.701  0.00  0.00    -0.122 NA
ATOM      4  C   UNL     1       0.248  -6.349   0.566  0.00  0.00    +0.197 A 
ATOM      5  N   UNL     1       0.363  -5.072   1.043  0.00  0.00    -0.270 N 
ENDROOT
BRANCH   1  10
ATOM      6  C   UNL     1      -0.018   1.503   0.010  0.00  0.00    +0.044 C 
ATOM      7  C   UNL     1       0.002  -0.004   0.002  0.00  0.00    -0.050 A 
ATOM      8  C   UNL     1       0.006  -0.686  -1.202  0.00  0.00    +0.004 A 
ATOM      9  C   UNL     1       0.024  -2.066  -1.216  0.00  0.00    +0.012 A 
ATOM     10  C   UNL     1       0.040  -2.773  -0.013  0.00  0.00    +0.020 A 
ATOM     11  C   UNL     1       0.037  -2.079   1.198  0.00  0.00    +0.012 A 
ATOM     12  C   UNL     1       0.023  -0.699   1.198  0.00  0.00    +0.004 A 
ENDBRANCH   1  10
BRANCH   5  13
ATOM     13  C   UNL     1       0.714  -4.681   2.343  0.00  0.00    +0.051 A 
ATOM     14  C   UNL     1       1.891  -3.979   2.564  0.00  0.00    +0.028 A 
ATOM     15  C   UNL     1       2.234  -3.594   3.845  0.00  0.00    +0.022 A 
ATOM     16  C   UNL     1       1.406  -3.908   4.908  0.00  0.00    +0.041 A 
ATOM     17  C   UNL     1       0.232  -4.608   4.690  0.00  0.00    +0.022 A 
ATOM     18  C   UNL     1      -0.119  -4.989   3.410  0.00  0.00    +0.028 A 
ATOM     19 CL   UNL     1       1.840  -3.423   6.518  0.00  0.00    -0.084 Cl
ENDBRANCH   5  13
BRANCH   4  20
ATOM     20  S   UNL     1       0.513  -7.833   1.478  0.00  0.00    -0.076 S 
BRANCH  20  21
ATOM     21  C   UNL     1       0.209  -9.151   0.269  0.00  0.00    +0.174 C 
BRANCH  21  22
ATOM     22  C   UNL     1       0.405 -10.492   0.929  0.00  0.00    +0.242 C 
ATOM     23  O   UNL     1       0.719 -10.553   2.099  0.00  0.00    -0.273 OA
ATOM     24  N   UNL     1       0.231 -11.624   0.218  0.00  0.00    -0.206 N 
ATOM     25  H   UNL     1      -0.019 -11.576  -0.718  0.00  0.00    +0.177 HD
BRANCH  24  26
ATOM     26  N   UNL     1       0.413 -12.871   0.831  0.00  0.00    -0.188 NA
ATOM     27  C   UNL     1       0.246 -13.961   0.147  0.00  0.00    +0.139 C 
BRANCH  27  28
ATOM     28  C   UNL     1       0.438 -15.273   0.792  0.00  0.00    +0.008 A 
ATOM     29  C   UNL     1       0.265 -16.448   0.057  0.00  0.00    +0.010 A 
ATOM     30  C   UNL     1       0.446 -17.672   0.666  0.00  0.00    +0.001 A 
ATOM     31  C   UNL     1       0.799 -17.738   2.003  0.00  0.00    +0.001 A 
ATOM     32  C   UNL     1       0.972 -16.579   2.738  0.00  0.00    +0.016 A 
ATOM     33  C   UNL     1       0.799 -15.347   2.140  0.00  0.00    +0.027 A 
ATOM     34 BR   UNL     1       1.045 -13.763   3.143  0.00  0.00    -0.050 Br
ENDBRANCH  27  28
ENDBRANCH  24  26
ENDBRANCH  21  22
ENDBRANCH  20  21
ENDBRANCH   4  20
TORSDOF 7
