REMARK  Name = ZINC21880524
REMARK  7 active torsions:
REMARK  status: ('A' for Active; 'I' for Inactive)
REMARK    1  A    between atoms: C_1  and  C_2
REMARK    2  A    between atoms: C_5  and  N_9
REMARK    3  A    between atoms: C_6  and  C_8
REMARK    4  A    between atoms: C_15  and  C_17
REMARK    5  A    between atoms: C_17  and  C_18
REMARK    6  A    between atoms: C_18  and  C_19
REMARK    7  A    between atoms: C_23  and  C_31
REMARK                            x       y       z     vdW  Elec       q    Type
REMARK                         _______ _______ _______ _____ _____    ______ ____
ROOT
ATOM      1  N   UNL     1      -9.907  -0.007  -1.137  0.00  0.00    -0.327 N 
ATOM      2  C   UNL     1     -10.674   0.598  -0.041  0.00  0.00    +0.124 C 
ATOM      3  C   UNL     1     -10.155   2.016   0.219  0.00  0.00    +0.126 C 
ATOM      4  N   UNL     1      -8.703   1.949   0.440  0.00  0.00    -0.298 N 
ATOM      5  C   UNL     1      -7.880   1.242  -0.554  0.00  0.00    +0.126 C 
ATOM      6  C   UNL     1      -8.489  -0.151  -0.780  0.00  0.00    +0.124 C 
ATOM      7  C   UNL     1      -8.139   2.525   1.520  0.00  0.00    +0.216 C 
ATOM      8  O   UNL     1      -8.832   3.108   2.327  0.00  0.00    -0.276 OA
ENDROOT
BRANCH   1  13
ATOM      9  C   UNL     1     -12.136  -4.993  -2.664  0.00  0.00    +0.044 C 
ATOM     10  C   UNL     1     -11.543  -3.668  -2.258  0.00  0.00    -0.050 A 
ATOM     11  C   UNL     1     -11.090  -3.482  -0.965  0.00  0.00    +0.005 A 
ATOM     12  C   UNL     1     -10.547  -2.269  -0.590  0.00  0.00    +0.023 A 
ATOM     13  C   UNL     1     -10.455  -1.236  -1.514  0.00  0.00    +0.033 A 
ATOM     14  C   UNL     1     -10.915  -1.425  -2.811  0.00  0.00    -0.029 A 
ATOM     15  C   UNL     1     -11.453  -2.642  -3.180  0.00  0.00    +0.008 A 
ATOM     16  C   UNL     1     -10.824  -0.304  -3.814  0.00  0.00    +0.045 C 
ENDBRANCH   1  13
BRANCH   7  17
ATOM     17  C   UNL     1      -6.649   2.444   1.726  0.00  0.00    +0.103 C 
BRANCH  17  18
ATOM     18  C   UNL     1      -6.272   3.173   3.018  0.00  0.00    +0.082 C 
BRANCH  18  19
ATOM     19  C   UNL     1      -4.781   3.092   3.224  0.00  0.00    +0.115 C 
ATOM     20  N   UNL     1      -4.082   2.465   2.347  0.00  0.00    -0.234 NA
ATOM     21  C   UNL     1      -2.740   2.233   2.367  0.00  0.00    +0.092 A 
ATOM     22  C   UNL     1      -2.080   1.786   1.219  0.00  0.00    +0.033 A 
ATOM     23  C   UNL     1      -0.718   1.572   1.248  0.00  0.00    -0.048 A 
ATOM     24  C   UNL     1       0.008   1.804   2.403  0.00  0.00    +0.005 A 
ATOM     25  C   UNL     1      -0.635   2.247   3.548  0.00  0.00    +0.031 A 
ATOM     26  C   UNL     1      -1.990   2.453   3.528  0.00  0.00    +0.134 A 
ATOM     27  S   UNL     1      -2.863   2.998   4.967  0.00  0.00    +0.075 S 
ATOM     28  O   UNL     1      -3.262   1.837   5.682  0.00  0.00    -0.150 OA
ATOM     29  O   UNL     1      -2.098   4.043   5.553  0.00  0.00    -0.150 OA
ATOM     30  N   UNL     1      -4.248   3.692   4.338  0.00  0.00    -0.203 N 
ATOM     31  C   UNL     1      -0.013   1.086   0.008  0.00  0.00    +0.044 C 
ATOM     32  H   UNL     1      -4.683   4.582   4.817  0.00  0.00    +0.175 HD
ENDBRANCH  18  19
ENDBRANCH  17  18
ENDBRANCH   7  17
TORSDOF 4
