REMARK  Name = ZINC39367414
REMARK  11 active torsions:
REMARK  status: ('A' for Active; 'I' for Inactive)
REMARK    1  A    between atoms: C_1  and  C_2
REMARK    2  A    between atoms: C_2  and  O_3
REMARK    3  A    between atoms: O_3  and  C_4
REMARK    4  A    between atoms: C_9  and  C_10
REMARK    5  A    between atoms: N_12  and  C_13
REMARK    6  A    between atoms: C_13  and  C_14
REMARK    7  A    between atoms: C_14  and  O_16
REMARK    8  A    between atoms: O_16  and  C_17
REMARK    9  A    between atoms: C_17  and  C_19
REMARK   10  A    between atoms: C_17  and  C_25
REMARK   11  A    between atoms: C_25  and  C_27
REMARK                            x       y       z     vdW  Elec       q    Type
REMARK                         _______ _______ _______ _____ _____    ______ ____
ROOT
ATOM      1  C   UNL     1       5.120  -2.161   8.614  0.00  0.00    +0.277 C 
ENDROOT
BRANCH   1   2
ATOM      2  C   UNL     1       6.553  -2.437   8.238  0.00  0.00    +0.000 A 
ATOM      3  C   UNL     1       7.338  -1.426   7.715  0.00  0.00    +0.008 A 
ATOM      4  C   UNL     1       8.653  -1.680   7.371  0.00  0.00    +0.000 A 
ATOM      5  C   UNL     1       9.183  -2.944   7.551  0.00  0.00    +0.000 A 
ATOM      6  C   UNL     1       8.398  -3.954   8.074  0.00  0.00    +0.000 A 
ATOM      7  C   UNL     1       7.085  -3.700   8.422  0.00  0.00    +0.008 A 
ENDBRANCH   1   2
BRANCH   1   8
ATOM      8  C   UNL     1       5.075  -1.475   9.955  0.00  0.00    +0.206 C 
ATOM      9  O   UNL     1       4.839  -0.286  10.021  0.00  0.00    -0.288 OA
BRANCH   8  10
ATOM     10  C   UNL     1       5.308  -2.215  11.133  0.00  0.00    +0.027 C 
ATOM     11  C   UNL     1       5.297  -1.743  12.434  0.00  0.00    +0.006 A 
ATOM     12  C   UNL     1       5.071  -0.462  12.990  0.00  0.00    +0.010 A 
ATOM     13  C   UNL     1       5.123  -0.282  14.329  0.00  0.00    +0.001 A 
ATOM     14  C   UNL     1       5.400  -1.331  15.220  0.00  0.00    +0.002 A 
ATOM     15  C   UNL     1       5.631  -2.591  14.792  0.00  0.00    +0.026 A 
ATOM     16  C   UNL     1       5.592  -2.874  13.348  0.00  0.00    +0.043 A 
ATOM     17  N   UNL     1       5.773  -3.972  12.671  0.00  0.00    -0.380 N 
ATOM     18  C   UNL     1       5.614  -3.693  11.241  0.00  0.00    +0.152 C 
ATOM     19  H   UNL     1       5.978  -4.839  13.055  0.00  0.00    +0.160 HD
ENDBRANCH   8  10
ENDBRANCH   1   8
BRANCH   1  20
ATOM     20  O   UNL     1       4.524  -1.316   7.627  0.00  0.00    -0.447 OA
BRANCH  20  21
ATOM     21  C   UNL     1       3.922  -1.921   6.590  0.00  0.00    +0.325 C 
ATOM     22  O   UNL     1       3.903  -3.127   6.523  0.00  0.00    -0.249 OA
BRANCH  21  23
ATOM     23  C   UNL     1       3.271  -1.096   5.511  0.00  0.00    +0.225 C 
BRANCH  23  26
ATOM     24  C   UNL     1       2.052  -1.464   3.434  0.00  0.00    +0.248 C 
ATOM     25  O   UNL     1       1.958  -0.258   3.309  0.00  0.00    -0.270 OA
ATOM     26  N   UNL     1       2.690  -1.984   4.501  0.00  0.00    -0.301 N 
ATOM     27  H   UNL     1       2.765  -2.946   4.600  0.00  0.00    +0.150 HD
BRANCH  24  33
ATOM     28  C   UNL     1       0.802  -1.822   1.305  0.00  0.00    +0.133 A 
ATOM     29  C   UNL     1       0.260  -2.672   0.352  0.00  0.00    +0.046 A 
ATOM     30  C   UNL     1       0.371  -4.040   0.502  0.00  0.00    +0.004 A 
ATOM     31  C   UNL     1       1.022  -4.574   1.602  0.00  0.00    +0.001 A 
ATOM     32  C   UNL     1       1.566  -3.744   2.559  0.00  0.00    +0.017 A 
ATOM     33  C   UNL     1       1.466  -2.358   2.417  0.00  0.00    +0.078 A 
BRANCH  28  34
ATOM     34  O   UNL     1       0.693  -0.477   1.160  0.00  0.00    -0.491 OA
BRANCH  34  36
ATOM     35  C   UNL     1      -0.019   1.526   0.010  0.00  0.00    +0.048 C 
ATOM     36  C   UNL     1       0.002  -0.004   0.002  0.00  0.00    +0.226 C 
ENDBRANCH  34  36
ENDBRANCH  28  34
ENDBRANCH  24  33
ENDBRANCH  23  26
ENDBRANCH  21  23
ENDBRANCH  20  21
ENDBRANCH   1  20
TORSDOF 10
