REMARK  Name = ZINC12127293
REMARK  6 active torsions:
REMARK  status: ('A' for Active; 'I' for Inactive)
REMARK    1  A    between atoms: C_6  and  C_7
REMARK    2  A    between atoms: N_9  and  C_10
REMARK    3  A    between atoms: N_9  and  C_29
REMARK    4  A    between atoms: C_10  and  C_11
REMARK    5  A    between atoms: C_19  and  N_20
REMARK    6  A    between atoms: C_29  and  C_30
REMARK                            x       y       z     vdW  Elec       q    Type
REMARK                         _______ _______ _______ _____ _____    ______ ____
ROOT
ATOM      1  C   UNL     1       0.803  -0.119   0.344  0.00  0.00    +0.008 A 
ATOM      2  C   UNL     1       1.126   1.200   0.227  0.00  0.00    +0.018 A 
ATOM      3  C   UNL     1       2.472   1.576   0.409  0.00  0.00    -0.001 A 
ATOM      4  C   UNL     1       2.877   2.915   0.303  0.00  0.00    +0.014 A 
ATOM      5  C   UNL     1       4.187   3.248   0.487  0.00  0.00    -0.043 A 
ATOM      6  C   UNL     1       5.135   2.269   0.781  0.00  0.00    -0.042 A 
ATOM      7  C   UNL     1       4.773   0.958   0.890  0.00  0.00    +0.030 A 
ATOM      8  C   UNL     1       3.433   0.579   0.706  0.00  0.00    +0.048 A 
ATOM      9  C   UNL     1       1.801  -1.059   0.638  0.00  0.00    +0.104 A 
ATOM     10  C   UNL     1       6.498   2.914   0.934  0.00  0.00    +0.036 C 
ATOM     11  C   UNL     1       6.215   4.416   1.141  0.00  0.00    +0.009 C 
ATOM     12  C   UNL     1       4.861   4.604   0.425  0.00  0.00    +0.036 C 
ATOM     13  N   UNL     1       3.110  -0.754   0.824  0.00  0.00    -0.343 N 
ATOM     14  H   UNL     1       3.813  -1.471   1.039  0.00  0.00    +0.167 HD
ENDROOT
BRANCH   9  15
ATOM     15  N   UNL     1       1.457  -2.398   0.753  0.00  0.00    -0.312 N 
ATOM     16  C   UNL     1       0.997  -2.708   2.115  0.00  0.00    +0.134 C 
ATOM     17  C   UNL     1       0.573  -4.178   2.181  0.00  0.00    +0.178 C 
ATOM     18  O   UNL     1       1.669  -5.004   1.778  0.00  0.00    -0.377 OA
ATOM     19  C   UNL     1       2.142  -4.729   0.457  0.00  0.00    +0.178 C 
ATOM     20  C   UNL     1       2.582  -3.265   0.373  0.00  0.00    +0.134 C 
ENDBRANCH   9  15
BRANCH   1  21
ATOM     21  C   UNL     1      -0.624  -0.566   0.158  0.00  0.00    +0.146 C 
BRANCH  21  24
ATOM     22  C   UNL     1      -0.721  -2.336  -1.514  0.00  0.00    +0.247 C 
ATOM     23  O   UNL     1      -0.454  -3.137  -0.639  0.00  0.00    -0.270 OA
ATOM     24  N   UNL     1      -0.816  -1.024  -1.221  0.00  0.00    -0.291 N 
BRANCH  22  30
ATOM     25  C   UNL     1      -0.138  -3.810  -3.433  0.00  0.00    +0.017 A 
ATOM     26  C   UNL     1      -0.345  -4.243  -4.725  0.00  0.00    +0.050 A 
ATOM     27  C   UNL     1      -1.350  -3.679  -5.498  0.00  0.00    +0.166 A 
ATOM     28  C   UNL     1      -2.156  -2.670  -4.969  0.00  0.00    +0.167 A 
ATOM     29  C   UNL     1      -1.957  -2.236  -3.674  0.00  0.00    +0.062 A 
ATOM     30  C   UNL     1      -0.941  -2.801  -2.898  0.00  0.00    +0.041 A 
ATOM     31  O   UNL     1      -3.058  -2.288  -5.921  0.00  0.00    -0.453 OA
ATOM     32  C   UNL     1      -3.064  -3.352  -6.891  0.00  0.00    +0.466 C 
ATOM     33  O   UNL     1      -1.749  -3.927  -6.779  0.00  0.00    -0.453 OA
ENDBRANCH  22  30
BRANCH  24  34
ATOM     34  C   UNL     1      -1.112  -0.056  -2.280  0.00  0.00    +0.140 C 
BRANCH  34  35
ATOM     35  C   UNL     1      -2.588   0.339  -2.212  0.00  0.00    +0.136 C 
ATOM     36  C   UNL     1      -2.971   1.204  -3.434  0.00  0.00    +0.035 C 
ATOM     37  C   UNL     1      -3.961   2.243  -2.863  0.00  0.00    +0.031 C 
ATOM     38  C   UNL     1      -4.060   1.884  -1.364  0.00  0.00    +0.160 C 
ATOM     39  O   UNL     1      -2.829   1.189  -1.069  0.00  0.00    -0.375 OA
ENDBRANCH  34  35
ENDBRANCH  24  34
ENDBRANCH  21  24
ENDBRANCH   1  21
TORSDOF 6
