REMARK  Name = ZINC39710900
REMARK  9 active torsions:
REMARK  status: ('A' for Active; 'I' for Inactive)
REMARK    1  A    between atoms: C_1  and  C_2
REMARK    2  A    between atoms: C_8  and  C_14
REMARK    3  A    between atoms: C_14  and  C_16
REMARK    4  A    between atoms: C_14  and  N_27
REMARK    5  A    between atoms: N_21  and  C_22
REMARK    6  A    between atoms: N_27  and  C_28
REMARK    7  A    between atoms: N_27  and  C_35
REMARK    8  A    between atoms: C_28  and  C_29
REMARK    9  A    between atoms: C_35  and  C_36
REMARK                            x       y       z     vdW  Elec       q    Type
REMARK                         _______ _______ _______ _____ _____    ______ ____
ROOT
ATOM      1  C   UNL     1      -1.747  -1.461   5.040  0.00  0.00    -0.009 C 
ENDROOT
BRANCH   1   9
ATOM      2  C   UNL     1      -1.871   4.236   2.759  0.00  0.00    +0.045 C 
ATOM      3  C   UNL     1      -1.880   2.890   2.081  0.00  0.00    -0.029 A 
ATOM      4  C   UNL     1      -2.237   2.795   0.774  0.00  0.00    +0.005 A 
ATOM      5  C   UNL     1      -2.266   1.581   0.087  0.00  0.00    +0.001 A 
ATOM      6  C   UNL     1      -1.934   0.415   0.699  0.00  0.00    +0.009 A 
ATOM      7  C   UNL     1      -1.540   0.444   2.108  0.00  0.00    -0.007 A 
ATOM      8  C   UNL     1      -1.199  -0.702   2.763  0.00  0.00    -0.006 C 
ATOM      9  C   UNL     1      -0.804  -0.578   4.221  0.00  0.00    +0.088 C 
ATOM     10  C   UNL     1      -0.820   0.806   4.830  0.00  0.00    +0.223 C 
ATOM     11  O   UNL     1      -0.512   0.964   5.997  0.00  0.00    -0.275 OA
ATOM     12  N   UNL     1      -1.171   1.845   4.090  0.00  0.00    -0.284 N 
ATOM     13  C   UNL     1      -1.514   1.741   2.806  0.00  0.00    +0.043 A 
ATOM     14  H   UNL     1      -1.174   2.724   4.500  0.00  0.00    +0.155 HD
ENDBRANCH   1   9
BRANCH   1  15
ATOM     15  C   UNL     1      -1.765  -2.873   4.450  0.00  0.00    +0.205 C 
ATOM     16  N   UNL     1      -2.318  -2.853   3.090  0.00  0.00    -0.152 NA
ATOM     17  N   UNL     1      -3.334  -3.550   3.062  0.00  0.00    -0.070 NA
ATOM     18  N   UNL     1      -3.632  -4.123   4.298  0.00  0.00    -0.179 N 
ATOM     19  N   UNL     1      -2.685  -3.740   5.215  0.00  0.00    -0.185 NA
ATOM     20  H   UNL     1      -4.389  -4.702   4.481  0.00  0.00    +0.191 HD
BRANCH  19  21
ATOM     21  C   UNL     1      -1.978  -4.905   5.763  0.00  0.00    +0.080 C 
ATOM     22  C   UNL     1      -1.518  -5.831   4.617  0.00  0.00    +0.021 C 
ATOM     23  C   UNL     1      -1.705  -7.260   5.186  0.00  0.00    +0.002 C 
ATOM     24  C   UNL     1      -3.015  -7.135   6.001  0.00  0.00    +0.002 C 
ATOM     25  C   UNL     1      -2.930  -5.734   6.643  0.00  0.00    +0.021 C 
ENDBRANCH  19  21
ENDBRANCH   1  15
BRANCH   1  26
ATOM     26  N   UNL     1      -1.280  -1.518   6.432  0.00  0.00    +0.390 N 
ATOM     27  H   UNL     1      -1.031  -0.590   6.741  0.00  0.00    -0.080 HD
BRANCH  26  28
ATOM     28  C   UNL     1      -0.106  -2.395   6.519  0.00  0.00    -0.042 C 
BRANCH  28  29
ATOM     29  C   UNL     1       1.085  -1.703   5.907  0.00  0.00    -0.064 A 
ATOM     30  C   UNL     1       1.732  -2.268   4.824  0.00  0.00    +0.002 A 
ATOM     31  C   UNL     1       2.825  -1.633   4.263  0.00  0.00    +0.000 A 
ATOM     32  C   UNL     1       3.269  -0.433   4.785  0.00  0.00    +0.000 A 
ATOM     33  C   UNL     1       2.622   0.133   5.867  0.00  0.00    +0.000 A 
ATOM     34  C   UNL     1       1.527  -0.500   6.426  0.00  0.00    +0.002 A 
ENDBRANCH  28  29
ENDBRANCH  26  28
BRANCH  26  35
ATOM     35  C   UNL     1      -2.351  -2.047   7.287  0.00  0.00    -0.040 C 
BRANCH  35  36
ATOM     36  C   UNL     1      -1.941  -1.937   8.733  0.00  0.00    -0.046 A 
ATOM     37  C   UNL     1      -1.252  -2.971   9.348  0.00  0.00    +0.005 A 
ATOM     38  C   UNL     1      -0.895  -2.826  10.679  0.00  0.00    +0.020 A 
ATOM     39  C   UNL     1      -1.235  -1.663  11.345  0.00  0.00    +0.111 A 
ATOM     40  N   UNL     1      -1.891  -0.700  10.728  0.00  0.00    -0.263 NA
ATOM     41  C   UNL     1      -2.241  -0.801   9.460  0.00  0.00    +0.112 A 
ENDBRANCH  35  36
ENDBRANCH  26  35
ENDBRANCH   1  26
TORSDOF 8
