REMARK  Name = ZINC63589133
REMARK  7 active torsions:
REMARK  status: ('A' for Active; 'I' for Inactive)
REMARK    1  A    between atoms: C_1  and  C_2
REMARK    2  A    between atoms: C_3  and  N_9
REMARK    3  A    between atoms: N_11  and  C_12
REMARK    4  A    between atoms: C_12  and  C_13
REMARK    5  A    between atoms: C_13  and  C_14
REMARK    6  A    between atoms: N_23  and  C_24
REMARK    7  A    between atoms: C_24  and  C_26
REMARK                            x       y       z     vdW  Elec       q    Type
REMARK                         _______ _______ _______ _____ _____    ______ ____
ROOT
ATOM      1  N   UNL     1       1.111  -0.630  -3.211  0.00  0.00    -0.328 N 
ATOM      2  C   UNL     1       0.278  -0.920  -4.253  0.00  0.00    +0.194 C 
ATOM      3  N   UNL     1      -0.206   0.083  -5.041  0.00  0.00    -0.357 N 
ATOM      4  N   UNL     1      -0.062  -2.176  -4.499  0.00  0.00    -0.143 NA
ATOM      5  H   UNL     1      -0.843  -0.116  -5.744  0.00  0.00    +0.162 HD
ATOM      6  H   UNL     1       2.053  -0.854  -3.267  0.00  0.00    +0.169 HD
ENDROOT
BRANCH   1   9
ATOM      7  C   UNL     1       2.958   0.218  -1.220  0.00  0.00    +0.047 C 
ATOM      8  C   UNL     1       1.473   0.421  -1.067  0.00  0.00    -0.009 A 
ATOM      9  C   UNL     1       0.607  -0.009  -2.064  0.00  0.00    +0.046 A 
ATOM     10  C   UNL     1      -0.762   0.179  -1.920  0.00  0.00    +0.026 A 
ATOM     11  C   UNL     1      -1.258   0.793  -0.786  0.00  0.00    +0.003 A 
ATOM     12  C   UNL     1      -0.394   1.220   0.205  0.00  0.00    +0.020 A 
ATOM     13  C   UNL     1       0.970   1.029   0.067  0.00  0.00    +0.046 A 
ATOM     14 CL   UNL     1       2.051   1.561   1.317  0.00  0.00    -0.083 Cl
ENDBRANCH   1   9
BRANCH   4  15
ATOM     15  C   UNL     1       0.261  -3.141  -3.626  0.00  0.00    +0.270 C 
ATOM     16  O   UNL     1       0.757  -2.849  -2.552  0.00  0.00    -0.268 OA
BRANCH  15  17
ATOM     17  C   UNL     1       0.016  -4.559  -3.967  0.00  0.00    +0.043 A 
ATOM     18  C   UNL     1      -0.441  -4.904  -5.240  0.00  0.00    +0.017 A 
ATOM     19  C   UNL     1      -0.669  -6.225  -5.557  0.00  0.00    +0.050 A 
ATOM     20  C   UNL     1      -0.447  -7.218  -4.612  0.00  0.00    +0.166 A 
ATOM     21  C   UNL     1       0.009  -6.880  -3.337  0.00  0.00    +0.167 A 
ATOM     22  C   UNL     1       0.246  -5.557  -3.018  0.00  0.00    +0.062 A 
ATOM     23  O   UNL     1       0.146  -8.024  -2.606  0.00  0.00    -0.453 OA
ATOM     24  C   UNL     1      -0.618  -9.022  -3.308  0.00  0.00    +0.466 C 
ATOM     25  O   UNL     1      -0.594  -8.572  -4.676  0.00  0.00    -0.453 OA
ENDBRANCH  15  17
ENDBRANCH   4  15
BRANCH   3  26
ATOM     26  C   UNL     1       0.238   1.462  -4.824  0.00  0.00    +0.120 C 
BRANCH  26  27
ATOM     27  C   UNL     1      -0.492   2.392  -5.795  0.00  0.00    +0.054 C 
BRANCH  27  28
ATOM     28  C   UNL     1       0.049   3.791  -5.655  0.00  0.00    -0.040 C 
ATOM     29  C   UNL     1       1.156   4.298  -6.244  0.00  0.00    -0.001 A 
ATOM     30  C   UNL     1       2.150   3.720  -7.156  0.00  0.00    +0.010 A 
ATOM     31  C   UNL     1       3.173   4.492  -7.587  0.00  0.00    +0.001 A 
ATOM     32  C   UNL     1       3.308   5.828  -7.184  0.00  0.00    +0.002 A 
ATOM     33  C   UNL     1       2.435   6.429  -6.349  0.00  0.00    +0.026 A 
ATOM     34  C   UNL     1       1.321   5.711  -5.835  0.00  0.00    +0.043 A 
ATOM     35  N   UNL     1       0.353   6.064  -5.024  0.00  0.00    -0.380 N 
ATOM     36  C   UNL     1      -0.539   4.915  -4.832  0.00  0.00    +0.144 C 
ATOM     37  H   UNL     1       0.243   6.940  -4.621  0.00  0.00    +0.160 HD
ENDBRANCH  27  28
ENDBRANCH  26  27
ENDBRANCH   3  26
TORSDOF 6
