REMARK  Name = ZINC22829823
REMARK  10 active torsions:
REMARK  status: ('A' for Active; 'I' for Inactive)
REMARK    1  A    between atoms: C_1  and  C_2
REMARK    2  A    between atoms: C_3  and  C_15
REMARK    3  A    between atoms: C_4  and  S_13
REMARK    4  A    between atoms: C_6  and  C_8
REMARK    5  A    between atoms: S_13  and  C_14
REMARK    6  A    between atoms: C_15  and  O_17
REMARK    7  A    between atoms: O_17  and  C_18
REMARK    8  A    between atoms: C_18  and  C_19
REMARK    9  A    between atoms: N_21  and  C_22
REMARK   10  A    between atoms: C_23  and  C_32
REMARK                            x       y       z     vdW  Elec       q    Type
REMARK                         _______ _______ _______ _____ _____    ______ ____
ROOT
ATOM      1  O   UNL     1      -2.420   0.986   0.019  0.00  0.00    -0.452 OA
ENDROOT
BRANCH   1   2
ATOM      2  C   UNL     1      -3.673   1.484   0.028  0.00  0.00    +0.344 C 
ATOM      3  O   UNL     1      -3.849   2.687   0.035  0.00  0.00    -0.245 OA
BRANCH   2   6
ATOM      4  C   UNL     1      -4.804   0.552   2.552  0.00  0.00    +0.066 C 
ATOM      5  C   UNL     1      -5.381   0.116   1.230  0.00  0.00    +0.057 A 
ATOM      6  C   UNL     1      -4.826   0.573   0.028  0.00  0.00    +0.112 A 
ATOM      7  C   UNL     1      -5.402   0.130  -1.185  0.00  0.00    +0.115 A 
ATOM      8  N   UNL     1      -6.443  -0.693  -1.136  0.00  0.00    -0.218 NA
ATOM      9  C   UNL     1      -6.937  -1.094   0.029  0.00  0.00    +0.197 A 
ATOM     10  N   UNL     1      -6.420  -0.696   1.190  0.00  0.00    -0.229 NA
BRANCH   9  11
ATOM     11  C   UNL     1      -8.093  -2.008   0.039  0.00  0.00    +0.172 A 
ATOM     12  C   UNL     1      -8.731  -2.502  -1.059  0.00  0.00    +0.053 A 
ATOM     13  C   UNL     1      -9.768  -3.326  -0.588  0.00  0.00    +0.042 A 
ATOM     14  C   UNL     1      -9.716  -3.297   0.761  0.00  0.00    +0.196 A 
ATOM     15  O   UNL     1      -8.700  -2.505   1.135  0.00  0.00    -0.460 OA
ENDBRANCH   9  11
BRANCH   7  16
ATOM     16  S   UNL     1      -4.750   0.660  -2.733  0.00  0.00    -0.108 S 
ATOM     17  C   UNL     1      -5.866  -0.212  -3.860  0.00  0.00    +0.091 C 
ENDBRANCH   7  16
ENDBRANCH   2   6
ENDBRANCH   1   2
BRANCH   1  18
ATOM     18  C   UNL     1      -1.330   1.944   0.019  0.00  0.00    +0.328 C 
BRANCH  18  19
ATOM     19  C   UNL     1      -0.014   1.209   0.009  0.00  0.00    +0.255 C 
ATOM     20  O   UNL     1       0.002  -0.004   0.002  0.00  0.00    -0.272 OA
ATOM     21  N   UNL     1       1.143   1.898   0.001  0.00  0.00    -0.276 N 
ATOM     22  H   UNL     1       1.129   2.998   0.007  0.00  0.00    +0.155 HD
BRANCH  21  23
ATOM     23  C   UNL     1       2.355   1.221  -0.014  0.00  0.00    +0.090 A 
ATOM     24  C   UNL     1       3.636   1.748  -0.029  0.00  0.00    +0.084 A 
ATOM     25  C   UNL     1       4.753   0.814  -0.035  0.00  0.00    -0.018 A 
ATOM     26  C   UNL     1       4.404  -0.491  -0.043  0.00  0.00    -0.004 A 
ATOM     27  S   UNL     1       2.632  -0.489  -0.026  0.00  0.00    -0.077 S 
ATOM     28  C   UNL     1       5.311  -1.681  -0.076  0.00  0.00    +0.043 C 
ATOM     29  C   UNL     1       6.400  -1.518   0.993  0.00  0.00    +0.005 C 
ATOM     30  C   UNL     1       7.582  -0.782   0.369  0.00  0.00    +0.001 C 
ATOM     31  C   UNL     1       7.089   0.213  -0.679  0.00  0.00    +0.005 C 
ATOM     32  C   UNL     1       6.205   1.274  -0.032  0.00  0.00    +0.037 C 
BRANCH  24  33
ATOM     33  C   UNL     1       3.854   3.163  -0.034  0.00  0.00    +0.102 C 
ATOM     34  N   UNL     1       4.027   4.285  -0.039  0.00  0.00    -0.191 NA
ENDBRANCH  24  33
ENDBRANCH  21  23
ENDBRANCH  18  19
ENDBRANCH   1  18
TORSDOF 8
