REMARK  Name = ZINC09220486
REMARK  4 active torsions:
REMARK  status: ('A' for Active; 'I' for Inactive)
REMARK    1  A    between atoms: C_1  and  C_2
REMARK    2  A    between atoms: C_2  and  C_4
REMARK    3  A    between atoms: C_2  and  N_17
REMARK    4  A    between atoms: N_17  and  C_18
REMARK                            x       y       z     vdW  Elec       q    Type
REMARK                         _______ _______ _______ _____ _____    ______ ____
ROOT
ATOM      1  C   UNL     1       3.024  -2.430   1.380  0.00  0.00    +0.038 C 
ATOM      2  C   UNL     1       3.470  -2.217  -0.069  0.00  0.00    +0.154 C 
ENDROOT
BRANCH   2   3
ATOM      3  C   UNL     1       4.953  -2.459  -0.179  0.00  0.00    +0.240 C 
ATOM      4  O   UNL     1       5.711  -1.524  -0.330  0.00  0.00    -0.273 OA
ATOM      5  N   UNL     1       5.438  -3.715  -0.109  0.00  0.00    -0.259 N 
ATOM      6  C   UNL     1       4.536  -4.874  -0.040  0.00  0.00    +0.209 C 
ATOM      7  C   UNL     1       5.070  -5.859   0.963  0.00  0.00    +0.235 C 
ATOM      8  O   UNL     1       4.301  -6.581   1.560  0.00  0.00    -0.274 OA
ATOM      9  N   UNL     1       6.391  -5.946   1.209  0.00  0.00    -0.283 N 
ATOM     10  C   UNL     1       7.295  -5.090   0.570  0.00  0.00    +0.055 A 
ATOM     11  C   UNL     1       6.820  -3.958  -0.095  0.00  0.00    +0.058 A 
ATOM     12  C   UNL     1       7.703  -3.099  -0.724  0.00  0.00    +0.025 A 
ATOM     13  C   UNL     1       9.060  -3.369  -0.695  0.00  0.00    +0.002 A 
ATOM     14  C   UNL     1       9.533  -4.491  -0.041  0.00  0.00    +0.002 A 
ATOM     15  C   UNL     1       8.655  -5.353   0.592  0.00  0.00    +0.025 A 
ATOM     16  H   UNL     1       6.719  -6.609   1.835  0.00  0.00    +0.155 HD
ENDBRANCH   2   3
BRANCH   2  17
ATOM     17  N   UNL     1       3.168  -0.843  -0.475  0.00  0.00    -0.333 N 
ATOM     18  H   UNL     1       3.850  -0.156  -0.408  0.00  0.00    +0.147 HD
BRANCH  17  19
ATOM     19  C   UNL     1       1.895  -0.520  -0.960  0.00  0.00    +0.030 A 
ATOM     20  C   UNL     1       0.921  -1.505  -1.055  0.00  0.00    +0.024 A 
ATOM     21  C   UNL     1      -0.337  -1.185  -1.533  0.00  0.00    +0.018 A 
ATOM     22  C   UNL     1      -0.621   0.114  -1.916  0.00  0.00    +0.030 A 
ATOM     23  C   UNL     1       0.351   1.111  -1.829  0.00  0.00    +0.049 A 
ATOM     24  C   UNL     1       1.613   0.782  -1.345  0.00  0.00    +0.047 A 
ATOM     25  N   UNL     1       0.089   2.421  -2.220  0.00  0.00    -0.284 N 
ATOM     26  C   UNL     1      -1.110   2.990  -2.314  0.00  0.00    +0.227 C 
ATOM     27  O   UNL     1      -1.168   4.151  -2.661  0.00  0.00    -0.275 OA
ATOM     28  C   UNL     1      -2.397   2.271  -2.015  0.00  0.00    +0.170 C 
ATOM     29  S   UNL     1      -2.228   0.533  -2.516  0.00  0.00    -0.114 S 
ATOM     30  H   UNL     1       0.855   2.973  -2.444  0.00  0.00    +0.155 HD
ENDBRANCH  17  19
ENDBRANCH   2  17
TORSDOF 3
