REMARK  Name = ZINC39653567
REMARK  12 active torsions:
REMARK  status: ('A' for Active; 'I' for Inactive)
REMARK    1  A    between atoms: C_1  and  C_2
REMARK    2  A    between atoms: C_2  and  O_3
REMARK    3  A    between atoms: O_3  and  C_4
REMARK    4  A    between atoms: C_6  and  C_12
REMARK    5  A    between atoms: C_9  and  O_10
REMARK    6  A    between atoms: O_10  and  C_11
REMARK    7  A    between atoms: C_12  and  C_13
REMARK    8  A    between atoms: C_13  and  N_14
REMARK    9  A    between atoms: C_15  and  C_17
REMARK   10  A    between atoms: C_28  and  C_30
REMARK   11  A    between atoms: C_30  and  C_31
REMARK   12  A    between atoms: C_34  and  C_37
REMARK                            x       y       z     vdW  Elec       q    Type
REMARK                         _______ _______ _______ _____ _____    ______ ____
ROOT
ATOM      1  C   UNL     1       3.997  -7.452   2.564  0.00  0.00    +0.100 C 
ATOM      2  C   UNL     1       5.159  -6.787   1.792  0.00  0.00    +0.121 C 
ATOM      3  N   UNL     1       5.972  -6.124   2.839  0.00  0.00    -0.300 N 
ATOM      4  C   UNL     1       5.965  -7.081   3.972  0.00  0.00    +0.115 C 
ATOM      5  C   UNL     1       4.531  -7.647   3.992  0.00  0.00    -0.004 C 
ATOM      6  C   UNL     1       4.554  -9.130   4.351  0.00  0.00    -0.010 C 
ATOM      7  C   UNL     1       5.034  -9.294   5.795  0.00  0.00    -0.082 C 
ATOM      8  N   UNL     1       4.134  -8.566   6.698  0.00  0.00    +0.379 N 
ATOM      9  C   UNL     1       4.189  -7.128   6.407  0.00  0.00    -0.082 C 
ATOM     10  C   UNL     1       3.673  -6.872   4.988  0.00  0.00    -0.010 C 
ATOM     11  C   UNL     1       6.581  -4.924   2.776  0.00  0.00    +0.220 C 
ATOM     12  O   UNL     1       7.216  -4.515   3.724  0.00  0.00    -0.275 OA
ATOM     13  H   UNL     1       3.189  -8.898   6.569  0.00  0.00    -0.086 HD
ATOM     14  H   UNL     1       4.416  -8.725   7.653  0.00  0.00    -0.086 HD
ENDROOT
BRANCH   1  16
ATOM     15  N   UNL     1       1.553  -7.081   2.655  0.00  0.00    -0.315 N 
ATOM     16  C   UNL     1       2.789  -6.551   2.574  0.00  0.00    +0.218 C 
ATOM     17  O   UNL     1       2.930  -5.348   2.508  0.00  0.00    -0.275 OA
ATOM     18  H   UNL     1       1.440  -8.043   2.708  0.00  0.00    +0.149 HD
BRANCH  15  19
ATOM     19  C   UNL     1       0.379  -6.204   2.665  0.00  0.00    +0.109 C 
BRANCH  19  20
ATOM     20  C   UNL     1      -0.890  -7.053   2.764  0.00  0.00    +0.054 C 
BRANCH  20  23
ATOM     21  C   UNL     1      -3.814  -4.968   1.591  0.00  0.00    +0.162 A 
ATOM     22  C   UNL     1      -2.704  -5.797   1.583  0.00  0.00    +0.053 A 
ATOM     23  C   UNL     1      -2.098  -6.151   2.774  0.00  0.00    -0.042 A 
ATOM     24  C   UNL     1      -2.597  -5.680   3.974  0.00  0.00    +0.007 A 
ATOM     25  C   UNL     1      -3.704  -4.853   3.989  0.00  0.00    +0.049 A 
ATOM     26  C   UNL     1      -4.313  -4.489   2.799  0.00  0.00    +0.162 A 
BRANCH  26  27
ATOM     27  O   UNL     1      -5.399  -3.671   2.811  0.00  0.00    -0.491 OA
ATOM     28  C   UNL     1      -5.856  -3.218   4.087  0.00  0.00    +0.277 C 
ENDBRANCH  26  27
BRANCH  21  29
ATOM     29  O   UNL     1      -4.412  -4.619   0.420  0.00  0.00    -0.489 OA
BRANCH  29  31
ATOM     30  C   UNL     1      -4.646  -4.648  -1.985  0.00  0.00    +0.048 C 
ATOM     31  C   UNL     1      -3.845  -5.148  -0.780  0.00  0.00    +0.226 C 
ENDBRANCH  29  31
ENDBRANCH  21  29
ENDBRANCH  20  23
ENDBRANCH  19  20
ENDBRANCH  15  19
ENDBRANCH   1  16
BRANCH  11  32
ATOM     32  C   UNL     1       6.471  -4.088   1.526  0.00  0.00    +0.131 C 
BRANCH  32  33
ATOM     33  C   UNL     1       7.235  -2.803   1.713  0.00  0.00    -0.039 A 
ATOM     34  C   UNL     1       6.602  -1.692   2.239  0.00  0.00    +0.004 A 
ATOM     35  C   UNL     1       7.303  -0.513   2.410  0.00  0.00    +0.003 A 
ATOM     36  C   UNL     1       8.637  -0.445   2.055  0.00  0.00    -0.050 A 
ATOM     37  C   UNL     1       9.271  -1.555   1.530  0.00  0.00    +0.003 A 
ATOM     38  C   UNL     1       8.571  -2.736   1.363  0.00  0.00    +0.004 A 
ATOM     39  C   UNL     1       9.401   0.841   2.241  0.00  0.00    +0.044 C 
ENDBRANCH  32  33
ENDBRANCH  11  32
TORSDOF 9
