REMARK  Name = ZINC02883333
REMARK  5 active torsions:
REMARK  status: ('A' for Active; 'I' for Inactive)
REMARK    1  A    between atoms: C_1  and  C_2
REMARK    2  A    between atoms: C_2  and  O_3
REMARK    3  A    between atoms: O_3  and  C_4
REMARK    4  A    between atoms: C_17  and  C_20
REMARK    5  A    between atoms: C_23  and  N_26
REMARK                            x       y       z     vdW  Elec       q    Type
REMARK                         _______ _______ _______ _____ _____    ______ ____
ROOT
ATOM      1  C   UNL     1       4.043  -0.285  -1.066  0.00  0.00    +0.121 A 
ATOM      2  C   UNL     1       4.358   0.210  -2.323  0.00  0.00    +0.047 A 
ATOM      3  C   UNL     1       3.649   1.279  -2.833  0.00  0.00    +0.027 A 
ATOM      4  C   UNL     1       2.626   1.855  -2.090  0.00  0.00    +0.032 A 
ATOM      5  C   UNL     1       2.306   1.366  -0.834  0.00  0.00    -0.016 A 
ATOM      6  C   UNL     1       3.023   0.290  -0.328  0.00  0.00    +0.051 A 
ATOM      7  C   UNL     1       1.214   1.956   0.001  0.00  0.00    +0.049 C 
ATOM      8  C   UNL     1      -0.013   1.076   0.008  0.00  0.00    -0.023 C 
ATOM      9  C   UNL     1      -1.098   1.811   0.017  0.00  0.00    -0.030 C 
ATOM     10  C   UNL     1      -0.741   3.285   0.031  0.00  0.00    +0.033 C 
ATOM     11  C   UNL     1       0.708   3.308  -0.538  0.00  0.00    +0.029 C 
ATOM     12  C   UNL     1       0.599   3.253  -2.065  0.00  0.00    +0.105 C 
ATOM     13  N   UNL     1       1.917   2.939  -2.625  0.00  0.00    -0.336 N 
ATOM     14  H   UNL     1       2.289   3.469  -3.348  0.00  0.00    +0.147 HD
ENDROOT
BRANCH  12  15
ATOM     15  C   UNL     1      -0.386   2.184  -2.462  0.00  0.00    -0.027 A 
ATOM     16  C   UNL     1       0.001   0.857  -2.472  0.00  0.00    +0.008 A 
ATOM     17  C   UNL     1      -0.904  -0.124  -2.832  0.00  0.00    +0.033 A 
ATOM     18  C   UNL     1      -2.193   0.223  -3.191  0.00  0.00    +0.126 A 
ATOM     19  C   UNL     1      -2.579   1.550  -3.185  0.00  0.00    +0.033 A 
ATOM     20  C   UNL     1      -1.675   2.531  -2.821  0.00  0.00    +0.008 A 
BRANCH  18  21
ATOM     21  N   UNL     1      -3.161  -0.827  -3.580  0.00  0.00    +0.056 N 
ATOM     22  O   UNL     1      -4.297  -0.522  -3.895  0.00  0.00    -0.126 OA
ATOM     23  O   UNL     1      -2.821  -1.997  -3.584  0.00  0.00    -0.126 OA
ENDBRANCH  18  21
ENDBRANCH  12  15
BRANCH   1  24
ATOM     24  O   UNL     1       4.738  -1.338  -0.558  0.00  0.00    -0.492 OA
BRANCH  24  26
ATOM     25  C   UNL     1       6.441  -3.051  -0.640  0.00  0.00    +0.048 C 
ATOM     26  C   UNL     1       5.777  -1.883  -1.373  0.00  0.00    +0.225 C 
ENDBRANCH  24  26
ENDBRANCH   1  24
TORSDOF 4
