REMARK  Name = ZINC04914807
REMARK  3 active torsions:
REMARK  status: ('A' for Active; 'I' for Inactive)
REMARK    1  A    between atoms: C_6  and  C_7
REMARK    2  A    between atoms: C_12  and  C_18
REMARK    3  A    between atoms: C_20  and  N_25
REMARK                            x       y       z     vdW  Elec       q    Type
REMARK                         _______ _______ _______ _____ _____    ______ ____
ROOT
ATOM      1  C   UNL     1       2.013   6.083  -3.692  0.00  0.00    +0.032 C 
ATOM      2  C   UNL     1       1.986   6.936  -2.421  0.00  0.00    +0.059 C 
ATOM      3  C   UNL     1       1.934   6.038  -1.210  0.00  0.00    +0.018 C 
ATOM      4  C   UNL     1       2.506   4.816  -1.229  0.00  0.00    +0.020 C 
ATOM      5  C   UNL     1       2.451   3.939  -0.001  0.00  0.00    +0.064 C 
ATOM      6  C   UNL     1       2.532   4.814   1.252  0.00  0.00    +0.109 C 
ATOM      7  C   UNL     1       1.551   5.951   1.123  0.00  0.00    +0.218 C 
ATOM      8  O   UNL     1       0.992   6.382   2.108  0.00  0.00    -0.275 OA
ATOM      9  N   UNL     1       1.296   6.489  -0.083  0.00  0.00    -0.289 N 
ATOM     10  C   UNL     1       3.158   4.332  -2.376  0.00  0.00    +0.162 C 
ATOM     11  O   UNL     1       3.670   3.230  -2.352  0.00  0.00    -0.292 OA
ATOM     12  C   UNL     1       3.232   5.156  -3.633  0.00  0.00    +0.088 C 
ATOM     13  H   UNL     1       0.649   7.208  -0.156  0.00  0.00    +0.155 HD
ENDROOT
BRANCH   1  19
ATOM     14  C   UNL     1       3.199   7.827  -5.040  0.00  0.00    +0.007 A 
ATOM     15  C   UNL     1       3.298   8.644  -6.150  0.00  0.00    +0.038 A 
ATOM     16  C   UNL     1       2.307   8.622  -7.116  0.00  0.00    +0.123 A 
ATOM     17  C   UNL     1       1.220   7.776  -6.972  0.00  0.00    +0.038 A 
ATOM     18  C   UNL     1       1.127   6.955  -5.864  0.00  0.00    +0.007 A 
ATOM     19  C   UNL     1       2.117   6.978  -4.900  0.00  0.00    -0.043 A 
ATOM     20  F   UNL     1       2.399   9.425  -8.198  0.00  0.00    -0.205 F 
ENDBRANCH   1  19
BRANCH   5  21
ATOM     21  C   UNL     1       1.157   3.167   0.008  0.00  0.00    -0.019 A 
ATOM     22  C   UNL     1      -0.050   3.841   0.023  0.00  0.00    +0.038 A 
ATOM     23  C   UNL     1      -1.237   3.133   0.031  0.00  0.00    +0.127 A 
ATOM     24  C   UNL     1      -1.218   1.751   0.017  0.00  0.00    +0.034 A 
ATOM     25  C   UNL     1      -0.013   1.076   0.008  0.00  0.00    +0.022 A 
ATOM     26  C   UNL     1       1.176   1.784   0.000  0.00  0.00    +0.045 A 
ATOM     27 CL   UNL     1       2.691   0.937  -0.018  0.00  0.00    -0.083 Cl
BRANCH  23  28
ATOM     28  N   UNL     1      -2.529   3.855   0.047  0.00  0.00    +0.056 N 
ATOM     29  O   UNL     1      -2.546   5.073   0.053  0.00  0.00    -0.126 OA
ATOM     30  O   UNL     1      -3.575   3.231   0.053  0.00  0.00    -0.126 OA
ENDBRANCH  23  28
ENDBRANCH   5  21
TORSDOF 3
