REMARK  Name = ZINC63351336
REMARK  9 active torsions:
REMARK  status: ('A' for Active; 'I' for Inactive)
REMARK    1  A    between atoms: C_1  and  O_2
REMARK    2  A    between atoms: O_2  and  C_3
REMARK    3  A    between atoms: C_7  and  C_9
REMARK    4  A    between atoms: N_28  and  N_29
REMARK    5  A    between atoms: C_30  and  C_31
REMARK    6  A    between atoms: C_34  and  O_39
REMARK    7  A    between atoms: C_36  and  O_37
REMARK    8  A    between atoms: O_37  and  C_38
REMARK    9  A    between atoms: O_39  and  C_40
REMARK                            x       y       z     vdW  Elec       q    Type
REMARK                         _______ _______ _______ _____ _____    ______ ____
ROOT
ATOM      1  C   UNL     1       1.325  -4.106  -2.289  0.00  0.00    +0.202 C 
ATOM      2  N   UNL     1       1.160  -4.556  -3.680  0.00  0.00    -0.265 NA
ATOM      3  C   UNL     1       2.345  -4.527  -4.530  0.00  0.00    +0.116 C 
ATOM      4  C   UNL     1       1.876  -4.922  -5.939  0.00  0.00    +0.120 C 
ATOM      5  C   UNL     1       1.087  -6.218  -5.813  0.00  0.00    -0.035 C 
ATOM      6  C   UNL     1       1.611  -7.060  -6.694  0.00  0.00    -0.001 A 
ATOM      7  C   UNL     1       1.220  -8.416  -7.110  0.00  0.00    +0.010 A 
ATOM      8  C   UNL     1       2.009  -9.008  -8.045  0.00  0.00    +0.001 A 
ATOM      9  C   UNL     1       3.135  -8.393  -8.602  0.00  0.00    +0.002 A 
ATOM     10  C   UNL     1       3.563  -7.145  -8.285  0.00  0.00    +0.026 A 
ATOM     11  C   UNL     1       2.811  -6.420  -7.316  0.00  0.00    +0.043 A 
ATOM     12  N   UNL     1       2.981  -5.201  -6.851  0.00  0.00    -0.376 N 
ATOM     13  C   UNL     1       0.016  -6.422  -4.757  0.00  0.00    +0.062 C 
ATOM     14  C   UNL     1       0.684  -5.949  -3.463  0.00  0.00    +0.151 C 
ATOM     15  C   UNL     1      -0.257  -5.795  -2.299  0.00  0.00    +0.254 C 
ATOM     16  O   UNL     1      -1.209  -6.502  -2.040  0.00  0.00    -0.272 OA
ATOM     17  N   UNL     1       0.166  -4.710  -1.588  0.00  0.00    -0.170 N 
ATOM     18  H   UNL     1       3.708  -4.595  -7.066  0.00  0.00    +0.160 HD
ENDROOT
BRANCH   1  23
ATOM     19  C   UNL     1       2.240  -0.523  -1.511  0.00  0.00    +0.120 A 
ATOM     20  C   UNL     1       1.164   0.160  -2.059  0.00  0.00    +0.045 A 
ATOM     21  C   UNL     1       0.146  -0.539  -2.679  0.00  0.00    +0.004 A 
ATOM     22  C   UNL     1       0.200  -1.919  -2.753  0.00  0.00    +0.007 A 
ATOM     23  C   UNL     1       1.271  -2.602  -2.207  0.00  0.00    -0.007 A 
ATOM     24  C   UNL     1       2.293  -1.907  -1.591  0.00  0.00    +0.052 A 
BRANCH  19  26
ATOM     25  C   UNL     1       3.120   1.586  -0.855  0.00  0.00    +0.277 C 
ATOM     26  O   UNL     1       3.242   0.163  -0.901  0.00  0.00    -0.495 OA
ENDBRANCH  19  26
ENDBRANCH   1  23
BRANCH  17  27
ATOM     27  N   UNL     1      -0.400  -4.241  -0.396  0.00  0.00    -0.183 NA
ATOM     28  C   UNL     1      -1.418  -4.857   0.125  0.00  0.00    +0.142 C 
BRANCH  28  29
ATOM     29  C   UNL     1      -2.014  -4.364   1.379  0.00  0.00    +0.036 A 
ATOM     30  C   UNL     1      -3.106  -5.027   1.945  0.00  0.00    +0.016 A 
ATOM     31  C   UNL     1      -3.660  -4.564   3.118  0.00  0.00    +0.046 A 
ATOM     32  C   UNL     1      -3.136  -3.437   3.741  0.00  0.00    +0.124 A 
ATOM     33  C   UNL     1      -2.053  -2.771   3.187  0.00  0.00    +0.091 A 
ATOM     34  C   UNL     1      -1.484  -3.231   2.013  0.00  0.00    +0.132 A 
BRANCH  34  35
ATOM     35  O   UNL     1      -0.419  -2.583   1.472  0.00  0.00    -0.494 OA
ATOM     36  C   UNL     1       0.067  -1.437   2.173  0.00  0.00    +0.277 C 
ENDBRANCH  34  35
BRANCH  32  37
ATOM     37  O   UNL     1      -3.688  -2.986   4.898  0.00  0.00    -0.495 OA
ATOM     38  C   UNL     1      -4.802  -3.718   5.414  0.00  0.00    +0.277 C 
ENDBRANCH  32  37
ENDBRANCH  28  29
ENDBRANCH  17  27
TORSDOF 6
