REMARK  Name = ZINC04083573
REMARK  10 active torsions:
REMARK  status: ('A' for Active; 'I' for Inactive)
REMARK    1  A    between atoms: C_1  and  C_2
REMARK    2  A    between atoms: C_14  and  O_35
REMARK    3  A    between atoms: C_18  and  C_34
REMARK    4  A    between atoms: C_23  and  C_33
REMARK    5  A    between atoms: C_24  and  C_25
REMARK    6  A    between atoms: C_24  and  O_32
REMARK    7  A    between atoms: C_25  and  C_27
REMARK    8  A    between atoms: C_27  and  O_28
REMARK    9  A    between atoms: O_28  and  C_29
REMARK   10  A    between atoms: C_29  and  C_31
REMARK                            x       y       z     vdW  Elec       q    Type
REMARK                         _______ _______ _______ _____ _____    ______ ____
ROOT
ATOM      1  C   UNL     1      -0.704   1.998   1.428  0.00  0.00    +0.011 C 
ATOM      2  C   UNL     1      -0.100   1.492   0.117  0.00  0.00    +0.026 C 
ATOM      3  C   UNL     1      -0.083  -0.061   0.102  0.00  0.00    +0.011 C 
ATOM      4  C   UNL     1       1.330  -0.393   0.594  0.00  0.00    +0.002 C 
ATOM      5  C   UNL     1       1.863  -1.759   0.203  0.00  0.00    -0.004 C 
ATOM      6  C   UNL     1       1.023  -2.863   0.845  0.00  0.00    +0.004 C 
ATOM      7  C   UNL     1       1.608  -4.228   0.477  0.00  0.00    +0.004 C 
ATOM      8  C   UNL     1       3.047  -4.322   0.988  0.00  0.00    -0.002 C 
ATOM      9  C   UNL     1       3.632  -5.686   0.616  0.00  0.00    +0.035 C 
ATOM     10  C   UNL     1       5.070  -5.781   1.130  0.00  0.00    +0.115 C 
ATOM     11  C   UNL     1       5.913  -4.675   0.493  0.00  0.00    +0.032 C 
ATOM     12  C   UNL     1       5.328  -3.311   0.865  0.00  0.00    +0.010 C 
ATOM     13  C   UNL     1       3.889  -3.215   0.352  0.00  0.00    -0.026 C 
ATOM     14  C   UNL     1       3.304  -1.852   0.729  0.00  0.00    -0.001 C 
ATOM     15  C   UNL     1       4.179  -0.736   0.168  0.00  0.00    +0.005 C 
ATOM     16  C   UNL     1       3.569   0.648   0.447  0.00  0.00    +0.010 C 
ATOM     17  C   UNL     1       2.182   0.661  -0.163  0.00  0.00    +0.007 C 
ATOM     18  C   UNL     1       1.376   1.946   0.001  0.00  0.00    +0.135 C 
ATOM     19  C   UNL     1       2.265   0.290  -1.645  0.00  0.00    +0.015 C 
ATOM     20  C   UNL     1       3.878  -3.374  -1.169  0.00  0.00    +0.012 C 
ENDROOT
BRANCH  18  21
ATOM     21  C   UNL     1       1.557   2.833  -1.204  0.00  0.00    +0.202 C 
ATOM     22  O   UNL     1       0.799   2.741  -2.140  0.00  0.00    -0.291 OA
BRANCH  21  23
ATOM     23  C   UNL     1       2.683   3.833  -1.242  0.00  0.00    +0.309 C 
BRANCH  23  24
ATOM     24  O   UNL     1       2.643   4.560  -2.498  0.00  0.00    -0.457 OA
BRANCH  24  25
ATOM     25  C   UNL     1       3.587   5.496  -2.691  0.00  0.00    +0.304 C 
ATOM     26  O   UNL     1       4.417   5.701  -1.838  0.00  0.00    -0.251 OA
ATOM     27  C   UNL     1       3.609   6.291  -3.971  0.00  0.00    +0.136 C 
ENDBRANCH  24  25
ENDBRANCH  23  24
ENDBRANCH  21  23
ENDBRANCH  18  21
BRANCH  18  28
ATOM     28  O   UNL     1       1.777   2.633   1.187  0.00  0.00    -0.380 OA
ATOM     29  H   UNL     1       1.272   3.438   1.366  0.00  0.00    +0.211 HD
ENDBRANCH  18  28
BRANCH  10  30
ATOM     30  O   UNL     1       5.616  -7.056   0.784  0.00  0.00    -0.392 OA
ATOM     31  H   UNL     1       6.528  -7.186   1.079  0.00  0.00    +0.210 HD
ENDBRANCH  10  30
TORSDOF 6
