REMARK  Name = ZINC22065692
REMARK  13 active torsions:
REMARK  status: ('A' for Active; 'I' for Inactive)
REMARK    1  A    between atoms: C_1  and  C_2
REMARK    2  A    between atoms: C_5  and  C_8
REMARK    3  A    between atoms: C_8  and  C_9
REMARK    4  A    between atoms: C_9  and  C_10
REMARK    5  A    between atoms: N_13  and  C_16
REMARK    6  A    between atoms: C_16  and  C_17
REMARK    7  A    between atoms: C_23  and  C_35
REMARK    8  A    between atoms: C_24  and  C_28
REMARK    9  A    between atoms: C_28  and  O_30
REMARK   10  A    between atoms: O_30  and  C_31
REMARK   11  A    between atoms: C_31  and  C_32
REMARK   12  A    between atoms: C_32  and  O_33
REMARK   13  A    between atoms: O_33  and  C_34
REMARK                            x       y       z     vdW  Elec       q    Type
REMARK                         _______ _______ _______ _____ _____    ______ ____
ROOT
ATOM      1  C   UNL     1       5.455   4.340  -1.282  0.00  0.00    +0.094 A 
ATOM      2  N   UNL     1       6.368   3.364  -1.504  0.00  0.00    -0.312 N 
ATOM      3  H   UNL     1       6.502   2.558  -0.766  0.00  0.00    +0.170 HD
ATOM      4  C   UNL     1       7.127   3.352  -2.617  0.00  0.00    +0.260 A 
ATOM      5  O   UNL     1       7.946   2.470  -2.806  0.00  0.00    -0.267 OA
ATOM      6  C   UNL     1       6.940   4.439  -3.605  0.00  0.00    +0.076 A 
ATOM      7  C   UNL     1       7.593   4.649  -4.821  0.00  0.00    -0.015 A 
ATOM      8  C   UNL     1       7.266   5.728  -5.591  0.00  0.00    +0.102 A 
ATOM      9  S   UNL     1       5.992   6.527  -4.628  0.00  0.00    -0.062 S 
ATOM     10  C   UNL     1       5.958   5.396  -3.260  0.00  0.00    +0.116 A 
ATOM     11  N   UNL     1       5.264   5.312  -2.132  0.00  0.00    -0.229 NA
ATOM     12  C   UNL     1       8.657   3.687  -5.282  0.00  0.00    +0.046 C 
ENDROOT
BRANCH   8  13
ATOM     13  C   UNL     1       7.822   6.130  -6.884  0.00  0.00    +0.346 C 
ATOM     14  O   UNL     1       8.695   5.463  -7.405  0.00  0.00    -0.244 OA
BRANCH  13  15
ATOM     15  O   UNL     1       7.364   7.240  -7.499  0.00  0.00    -0.458 OA
BRANCH  15  16
ATOM     16  C   UNL     1       7.961   7.578  -8.779  0.00  0.00    +0.260 C 
BRANCH  16  17
ATOM     17  C   UNL     1       7.320   8.859  -9.318  0.00  0.00    +0.200 C 
BRANCH  17  18
ATOM     18  O   UNL     1       7.637   9.951  -8.453  0.00  0.00    -0.380 OA
ATOM     19  C   UNL     1       7.084  11.201  -8.869  0.00  0.00    +0.194 C 
ENDBRANCH  17  18
ENDBRANCH  16  17
ENDBRANCH  15  16
ENDBRANCH  13  15
ENDBRANCH   8  13
BRANCH   1  20
ATOM     20  C   UNL     1       4.635   4.302  -0.019  0.00  0.00    -0.003 C 
BRANCH  20  24
ATOM     21  C   UNL     1       2.742   7.900   1.306  0.00  0.00    -0.014 C 
ATOM     22  C   UNL     1       3.802   7.968   0.203  0.00  0.00    -0.015 C 
ATOM     23  C   UNL     1       4.668   6.707   0.257  0.00  0.00    -0.078 C 
ATOM     24  N   UNL     1       3.821   5.521   0.074  0.00  0.00    +0.384 N 
ATOM     25  C   UNL     1       2.825   5.409   1.147  0.00  0.00    -0.078 C 
ATOM     26  C   UNL     1       1.904   6.631   1.121  0.00  0.00    -0.015 C 
ATOM     27  H   UNL     1       3.278   5.641  -0.876  0.00  0.00    -0.081 HD
BRANCH  21  28
ATOM     28  C   UNL     1       1.835   9.129   1.219  0.00  0.00    +0.008 C 
BRANCH  28  29
ATOM     29  C   UNL     1       0.855   9.124   2.395  0.00  0.00    +0.035 C 
BRANCH  29  34
ATOM     30  C   UNL     1      -2.571  13.766   2.066  0.00  0.00    +0.044 C 
ATOM     31  C   UNL     1      -1.678  12.555   2.153  0.00  0.00    -0.050 A 
ATOM     32  C   UNL     1      -2.051  11.375   1.536  0.00  0.00    +0.003 A 
ATOM     33  C   UNL     1      -1.232  10.265   1.615  0.00  0.00    +0.004 A 
ATOM     34  C   UNL     1      -0.038  10.334   2.309  0.00  0.00    -0.047 A 
ATOM     35  C   UNL     1       0.333  11.512   2.930  0.00  0.00    +0.004 A 
ATOM     36  C   UNL     1      -0.485  12.624   2.848  0.00  0.00    +0.003 A 
ENDBRANCH  29  34
ENDBRANCH  28  29
ENDBRANCH  21  28
ENDBRANCH  20  24
ENDBRANCH   1  20
TORSDOF 10
