REMARK  Name = ZINC13418612
REMARK  5 active torsions:
REMARK  status: ('A' for Active; 'I' for Inactive)
REMARK    1  A    between atoms: C_1  and  C_2
REMARK    2  A    between atoms: N_7  and  C_10
REMARK    3  A    between atoms: C_10  and  C_11
REMARK    4  A    between atoms: C_13  and  C_18
REMARK    5  A    between atoms: C_21  and  C_22
REMARK                            x       y       z     vdW  Elec       q    Type
REMARK                         _______ _______ _______ _____ _____    ______ ____
ROOT
ATOM      1  C   UNL     1      -2.560   6.751  -4.521  0.00  0.00    +0.046 C 
ATOM      2  C   UNL     1      -3.430   5.524  -4.614  0.00  0.00    -0.015 A 
ATOM      3  C   UNL     1      -3.547   4.664  -3.520  0.00  0.00    +0.076 A 
ATOM      4  C   UNL     1      -4.386   3.542  -3.706  0.00  0.00    +0.116 A 
ATOM      5  N   UNL     1      -4.582   2.647  -2.746  0.00  0.00    -0.230 NA
ATOM      6  C   UNL     1      -4.008   2.760  -1.579  0.00  0.00    +0.203 A 
ATOM      7  N   UNL     1      -3.183   3.794  -1.282  0.00  0.00    -0.294 N 
ATOM      8  C   UNL     1      -2.918   4.761  -2.183  0.00  0.00    +0.263 A 
ATOM      9  O   UNL     1      -2.179   5.688  -1.905  0.00  0.00    -0.267 OA
ATOM     10  S   UNL     1      -4.964   3.736  -5.373  0.00  0.00    -0.062 S 
ATOM     11  C   UNL     1      -4.106   5.251  -5.768  0.00  0.00    +0.106 A 
ENDROOT
BRANCH  11  12
ATOM     12  C   UNL     1      -4.123   6.012  -7.019  0.00  0.00    +0.393 C 
ATOM     13  O   UNL     1      -3.473   7.035  -7.118  0.00  0.00    -0.240 OA
ATOM     14  O   UNL     1      -4.861   5.578  -8.062  0.00  0.00    -0.240 OA
ENDBRANCH  11  12
BRANCH   7  15
ATOM     15  C   UNL     1      -2.570   3.864   0.046  0.00  0.00    +0.164 C 
BRANCH  15  16
ATOM     16  C   UNL     1      -1.250   3.137   0.030  0.00  0.00    +0.009 A 
ATOM     17  C   UNL     1      -0.071   3.852   0.022  0.00  0.00    +0.027 A 
ATOM     18  C   UNL     1       1.152   3.177   0.008  0.00  0.00    +0.052 A 
ATOM     19  C   UNL     1       1.172   1.780   0.000  0.00  0.00    +0.021 A 
ATOM     20  C   UNL     1      -0.013   1.076   0.008  0.00  0.00    +0.040 A 
ATOM     21  C   UNL     1      -1.223   1.751   0.017  0.00  0.00    +0.128 A 
ATOM     22  F   UNL     1      -2.382   1.056   0.019  0.00  0.00    -0.205 F 
BRANCH  18  23
ATOM     23  C   UNL     1       2.380   3.914  -0.001  0.00  0.00    +0.099 C 
ATOM     24  N   UNL     1       3.354   4.498  -0.007  0.00  0.00    -0.191 NA
ENDBRANCH  18  23
ENDBRANCH  15  16
ENDBRANCH   7  15
TORSDOF 4
