REMARK  Name = ZINC36246057
REMARK  8 active torsions:
REMARK  status: ('A' for Active; 'I' for Inactive)
REMARK    1  A    between atoms: C_1  and  C_2
REMARK    2  A    between atoms: C_2  and  N_3
REMARK    3  A    between atoms: N_6  and  C_7
REMARK    4  A    between atoms: N_6  and  C_29
REMARK    5  A    between atoms: C_7  and  C_8
REMARK    6  A    between atoms: C_9  and  C_23
REMARK    7  A    between atoms: C_12  and  N_13
REMARK    8  A    between atoms: C_29  and  C_30
REMARK                            x       y       z     vdW  Elec       q    Type
REMARK                         _______ _______ _______ _____ _____    ______ ____
ROOT
ATOM      1  C   UNL     1       0.041  -4.165  -3.721  0.00  0.00    +0.059 A 
ATOM      2  C   UNL     1      -1.119  -4.482  -2.983  0.00  0.00    +0.120 A 
ATOM      3  N   UNL     1      -2.143  -4.447  -3.804  0.00  0.00    -0.076 NA
ATOM      4  O   UNL     1      -1.661  -4.105  -5.091  0.00  0.00    -0.339 OA
ATOM      5  C   UNL     1      -0.331  -3.935  -5.006  0.00  0.00    +0.226 A 
ENDROOT
BRANCH   5   6
ATOM      6  N   UNL     1       0.512  -3.589  -6.047  0.00  0.00    -0.294 N 
ATOM      7  C   UNL     1       1.335  -4.598  -6.733  0.00  0.00    +0.113 C 
ATOM      8  C   UNL     1       0.865  -4.681  -8.184  0.00  0.00    +0.054 C 
ATOM      9  C   UNL     1       0.729  -3.306  -8.783  0.00  0.00    -0.041 A 
ATOM     10  C   UNL     1       0.732  -3.204 -10.169  0.00  0.00    +0.004 A 
ATOM     11  C   UNL     1       0.601  -1.975 -10.782  0.00  0.00    +0.000 A 
ATOM     12  C   UNL     1       0.465  -0.834 -10.013  0.00  0.00    +0.000 A 
ATOM     13  C   UNL     1       0.465  -0.932  -8.637  0.00  0.00    +0.005 A 
ATOM     14  C   UNL     1       0.602  -2.168  -8.018  0.00  0.00    -0.027 A 
ATOM     15  C   UNL     1       0.617  -2.203  -6.515  0.00  0.00    +0.143 C 
ENDBRANCH   5   6
BRANCH   2  16
ATOM     16  C   UNL     1      -1.171  -4.800  -1.534  0.00  0.00    +0.004 A 
ATOM     17  C   UNL     1      -0.249  -5.684  -0.979  0.00  0.00    +0.010 A 
ATOM     18  C   UNL     1      -0.302  -5.976   0.369  0.00  0.00    +0.001 A 
ATOM     19  C   UNL     1      -1.269  -5.392   1.168  0.00  0.00    +0.000 A 
ATOM     20  C   UNL     1      -2.187  -4.513   0.622  0.00  0.00    +0.001 A 
ATOM     21  C   UNL     1      -2.139  -4.211  -0.724  0.00  0.00    +0.010 A 
ENDBRANCH   2  16
BRANCH   1  22
ATOM     22  C   UNL     1       1.444  -4.088  -3.178  0.00  0.00    +0.152 C 
BRANCH  22  26
ATOM     23  N   UNL     1       1.723  -1.374  -0.712  0.00  0.00    -0.299 N 
ATOM     24  C   UNL     1       1.518  -2.590  -1.257  0.00  0.00    +0.303 C 
ATOM     25  O   UNL     1       1.200  -3.527  -0.551  0.00  0.00    -0.253 OA
ATOM     26  N   UNL     1       1.667  -2.766  -2.585  0.00  0.00    -0.279 N 
ATOM     27  H   UNL     1       1.977  -0.627  -1.276  0.00  0.00    +0.150 HD
BRANCH  23  29
ATOM     28  C   UNL     1       1.850   0.278   1.087  0.00  0.00    +0.024 C 
ATOM     29  C   UNL     1       1.561  -1.182   0.731  0.00  0.00    +0.102 C 
ENDBRANCH  23  29
BRANCH  26  30
ATOM     30  C   UNL     1       2.050  -1.637  -3.436  0.00  0.00    +0.141 C 
BRANCH  30  31
ATOM     31  C   UNL     1       3.566  -1.647  -3.643  0.00  0.00    +0.136 C 
ATOM     32  C   UNL     1       3.994  -0.457  -4.538  0.00  0.00    +0.035 C 
ATOM     33  C   UNL     1       5.471  -0.270  -4.095  0.00  0.00    +0.031 C 
ATOM     34  C   UNL     1       5.412  -0.637  -2.597  0.00  0.00    +0.160 C 
ATOM     35  O   UNL     1       4.241  -1.439  -2.392  0.00  0.00    -0.375 OA
ENDBRANCH  30  31
ENDBRANCH  26  30
ENDBRANCH  22  26
ENDBRANCH   1  22
TORSDOF 7
