REMARK  Name = ZINC63361851
REMARK  12 active torsions:
REMARK  status: ('A' for Active; 'I' for Inactive)
REMARK    1  A    between atoms: C_1  and  C_2
REMARK    2  A    between atoms: C_2  and  C_3
REMARK    3  A    between atoms: C_2  and  O_4
REMARK    4  A    between atoms: O_4  and  C_5
REMARK    5  A    between atoms: C_5  and  C_6
REMARK    6  A    between atoms: C_6  and  C_7
REMARK    7  A    between atoms: C_7  and  N_8
REMARK    8  A    between atoms: C_9  and  C_11
REMARK    9  A    between atoms: C_16  and  N_17
REMARK   10  A    between atoms: C_20  and  C_38
REMARK   11  A    between atoms: C_26  and  O_31
REMARK   12  A    between atoms: O_31  and  C_32
REMARK                            x       y       z     vdW  Elec       q    Type
REMARK                         _______ _______ _______ _____ _____    ______ ____
ROOT
ATOM      1  N   UNL     1       9.033  -2.978  -3.415  0.00  0.00    -0.192 N 
ATOM      2  C   UNL     1       9.415  -3.787  -2.406  0.00  0.00    +0.253 C 
ATOM      3  O   UNL     1       9.116  -4.950  -2.246  0.00  0.00    -0.272 OA
ATOM      4  C   UNL     1      10.297  -2.939  -1.516  0.00  0.00    +0.137 C 
ATOM      5  C   UNL     1       9.721  -2.862  -0.103  0.00  0.00    +0.139 C 
ATOM      6  C   UNL     1       9.235  -1.437   0.112  0.00  0.00    -0.034 C 
ATOM      7  C   UNL     1       7.952  -1.529   0.453  0.00  0.00    +0.003 A 
ATOM      8  C   UNL     1       6.966  -0.510   0.843  0.00  0.00    +0.055 A 
ATOM      9  C   UNL     1       5.710  -0.953   1.125  0.00  0.00    +0.121 A 
ATOM     10  C   UNL     1       5.320  -2.299   1.061  0.00  0.00    +0.047 A 
ATOM     11  C   UNL     1       6.148  -3.318   0.716  0.00  0.00    +0.029 A 
ATOM     12  C   UNL     1       7.537  -2.965   0.395  0.00  0.00    +0.043 A 
ATOM     13  N   UNL     1       8.551  -3.728   0.056  0.00  0.00    -0.375 N 
ATOM     14  C   UNL     1      10.093  -0.217  -0.116  0.00  0.00    +0.052 C 
ATOM     15  C   UNL     1      10.709  -0.356  -1.523  0.00  0.00    +0.115 C 
ATOM     16  N   UNL     1      10.195  -1.593  -2.118  0.00  0.00    -0.268 N 
ATOM     17  C   UNL     1       9.516  -1.737  -3.265  0.00  0.00    +0.317 C 
ATOM     18  O   UNL     1       9.355  -0.844  -4.074  0.00  0.00    -0.252 OA
ATOM     19  C   UNL     1      11.742  -3.444  -1.519  0.00  0.00    +0.044 C 
ATOM     20  H   UNL     1       8.534  -4.690  -0.072  0.00  0.00    +0.160 HD
ENDROOT
BRANCH   1  26
ATOM     21  C   UNL     1       8.829  -3.847  -5.670  0.00  0.00    +0.059 A 
ATOM     22  C   UNL     1       8.021  -4.256  -6.734  0.00  0.00    +0.015 A 
ATOM     23  C   UNL     1       6.649  -4.198  -6.616  0.00  0.00    +0.001 A 
ATOM     24  C   UNL     1       6.066  -3.734  -5.448  0.00  0.00    +0.002 A 
ATOM     25  C   UNL     1       6.852  -3.327  -4.389  0.00  0.00    +0.025 A 
ATOM     26  C   UNL     1       8.235  -3.384  -4.487  0.00  0.00    +0.058 A 
BRANCH  21  28
ATOM     27  N   UNL     1      10.866  -4.269  -6.957  0.00  0.00    -0.311 N 
ATOM     28  C   UNL     1      10.298  -3.908  -5.789  0.00  0.00    +0.246 C 
ATOM     29  O   UNL     1      10.997  -3.632  -4.833  0.00  0.00    -0.270 OA
ATOM     30  H   UNL     1      10.310  -4.558  -7.697  0.00  0.00    +0.149 HD
BRANCH  27  31
ATOM     31  C   UNL     1      12.322  -4.224  -7.109  0.00  0.00    +0.107 C 
BRANCH  31  32
ATOM     32  C   UNL     1      12.695  -4.561  -8.554  0.00  0.00    +0.047 C 
BRANCH  32  33
ATOM     33  C   UNL     1      14.218  -4.630  -8.685  0.00  0.00    +0.161 C 
BRANCH  33  34
ATOM     34  O   UNL     1      14.564  -5.053 -10.005  0.00  0.00    -0.377 OA
BRANCH  34  36
ATOM     35  C   UNL     1      16.448  -6.561  -9.882  0.00  0.00    +0.037 C 
ATOM     36  C   UNL     1      15.971  -5.151 -10.234  0.00  0.00    +0.112 C 
ATOM     37  C   UNL     1      16.269  -4.865 -11.707  0.00  0.00    +0.037 C 
ENDBRANCH  34  36
ENDBRANCH  33  34
ENDBRANCH  32  33
ENDBRANCH  31  32
ENDBRANCH  27  31
ENDBRANCH  21  28
ENDBRANCH   1  26
BRANCH   9  38
ATOM     38  O   UNL     1       4.776  -0.035   1.489  0.00  0.00    -0.495 OA
ATOM     39  C   UNL     1       3.491  -0.532   1.869  0.00  0.00    +0.277 C 
ENDBRANCH   9  38
TORSDOF 8
