REMARK  Name = ZINC03143788
REMARK  8 active torsions:
REMARK  status: ('A' for Active; 'I' for Inactive)
REMARK    1  A    between atoms: C_1  and  C_2
REMARK    2  A    between atoms: C_5  and  N_9
REMARK    3  A    between atoms: N_9  and  C_10
REMARK    4  A    between atoms: N_9  and  S_28
REMARK    5  A    between atoms: C_10  and  C_11
REMARK    6  A    between atoms: N_13  and  N_14
REMARK    7  A    between atoms: C_15  and  C_16
REMARK    8  A    between atoms: S_28  and  C_31
REMARK                            x       y       z     vdW  Elec       q    Type
REMARK                         _______ _______ _______ _____ _____    ______ ____
ROOT
ATOM      1  C   UNL     1      -2.277   6.280   0.099  0.00  0.00    +0.228 C 
ENDROOT
BRANCH   1   2
ATOM      2  C   UNL     1      -1.637   4.959  -0.242  0.00  0.00    +0.251 C 
ATOM      3  O   UNL     1      -2.331   3.996  -0.491  0.00  0.00    -0.272 OA
ATOM      4  N   UNL     1      -0.294   4.848  -0.271  0.00  0.00    -0.206 N 
ATOM      5  H   UNL     1       0.260   5.619  -0.072  0.00  0.00    +0.177 HD
BRANCH   4   6
ATOM      6  N   UNL     1       0.300   3.620  -0.589  0.00  0.00    -0.188 NA
ATOM      7  C   UNL     1       1.595   3.513  -0.616  0.00  0.00    +0.139 C 
BRANCH   7   8
ATOM      8  C   UNL     1       2.219   2.224  -0.950  0.00  0.00    +0.002 A 
ATOM      9  C   UNL     1       3.605   2.085  -0.998  0.00  0.00    +0.010 A 
ATOM     10  C   UNL     1       4.212   0.873  -1.306  0.00  0.00    +0.005 A 
ATOM     11  C   UNL     1       3.474  -0.238  -1.588  0.00  0.00    -0.039 A 
ATOM     12  C   UNL     1       2.086  -0.145  -1.557  0.00  0.00    -0.011 A 
ATOM     13  C   UNL     1       1.408   1.046  -1.248  0.00  0.00    -0.009 A 
ATOM     14  C   UNL     1       0.009   1.028  -1.244  0.00  0.00    +0.009 A 
ATOM     15  C   UNL     1      -0.635  -0.140  -1.543  0.00  0.00    +0.001 A 
ATOM     16  C   UNL     1       0.056  -1.314  -1.847  0.00  0.00    +0.004 A 
ATOM     17  C   UNL     1       1.418  -1.329  -1.858  0.00  0.00    -0.039 A 
ATOM     18  C   UNL     1       2.465  -2.380  -2.134  0.00  0.00    +0.040 C 
ATOM     19  C   UNL     1       3.820  -1.663  -1.955  0.00  0.00    +0.040 C 
ENDBRANCH   7   8
ENDBRANCH   4   6
ENDBRANCH   1   2
BRANCH   1  20
ATOM     20  N   UNL     1      -3.735   6.141   0.063  0.00  0.00    -0.194 N 
BRANCH  20  25
ATOM     21  C   UNL     1      -6.516   6.684  -4.850  0.00  0.00    +0.045 C 
ATOM     22  C   UNL     1      -5.777   6.539  -3.545  0.00  0.00    -0.032 A 
ATOM     23  C   UNL     1      -6.090   7.364  -2.479  0.00  0.00    +0.006 A 
ATOM     24  C   UNL     1      -5.418   7.231  -1.280  0.00  0.00    +0.025 A 
ATOM     25  C   UNL     1      -4.420   6.274  -1.147  0.00  0.00    +0.053 A 
ATOM     26  C   UNL     1      -4.107   5.447  -2.218  0.00  0.00    +0.045 A 
ATOM     27  C   UNL     1      -4.787   5.581  -3.414  0.00  0.00    +0.046 A 
ATOM     28 CL   UNL     1      -4.398   4.549  -4.754  0.00  0.00    -0.083 Cl
ENDBRANCH  20  25
BRANCH  20  29
ATOM     29  S   UNL     1      -4.571   5.824   1.457  0.00  0.00    +0.075 S 
ATOM     30  O   UNL     1      -5.846   5.334   1.064  0.00  0.00    -0.150 OA
ATOM     31  O   UNL     1      -3.696   5.085   2.297  0.00  0.00    -0.150 OA
BRANCH  29  32
ATOM     32  C   UNL     1      -4.852   7.369   2.258  0.00  0.00    +0.109 A 
ATOM     33  C   UNL     1      -3.878   7.910   3.076  0.00  0.00    +0.029 A 
ATOM     34  C   UNL     1      -4.096   9.124   3.700  0.00  0.00    +0.002 A 
ATOM     35  C   UNL     1      -5.292   9.792   3.514  0.00  0.00    +0.000 A 
ATOM     36  C   UNL     1      -6.268   9.248   2.700  0.00  0.00    +0.002 A 
ATOM     37  C   UNL     1      -6.048   8.037   2.072  0.00  0.00    +0.029 A 
ENDBRANCH  29  32
ENDBRANCH  20  29
ENDBRANCH   1  20
TORSDOF 7
