REMARK  Name = ZINC04331396
REMARK  5 active torsions:
REMARK  status: ('A' for Active; 'I' for Inactive)
REMARK    1  A    between atoms: C_1  and  C_2
REMARK    2  A    between atoms: C_2  and  C_27
REMARK    3  A    between atoms: C_6  and  C_18
REMARK    4  A    between atoms: C_11  and  S_15
REMARK    5  A    between atoms: S_15  and  C_16
REMARK                            x       y       z     vdW  Elec       q    Type
REMARK                         _______ _______ _______ _____ _____    ______ ____
ROOT
ATOM      1  C   UNL     1       4.255  -2.858  -3.140  0.00  0.00    +0.011 C 
ATOM      2  C   UNL     1       4.940  -3.435  -1.900  0.00  0.00    -0.023 C 
ATOM      3  C   UNL     1       5.095  -2.341  -0.841  0.00  0.00    +0.058 C 
ATOM      4  C   UNL     1       3.732  -1.833  -0.433  0.00  0.00    +0.017 C 
ATOM      5  C   UNL     1       2.655  -2.647  -0.446  0.00  0.00    +0.024 C 
ATOM      6  C   UNL     1       1.297  -2.158  -0.013  0.00  0.00    +0.092 C 
ATOM      7  C   UNL     1       1.230  -0.660  -0.013  0.00  0.00    +0.044 A 
ATOM      8  C   UNL     1       0.002  -0.004   0.002  0.00  0.00    +0.126 A 
ATOM      9  N   UNL     1      -0.016   1.327   0.009  0.00  0.00    -0.207 NA
ATOM     10  C   UNL     1       1.112   2.022   0.002  0.00  0.00    +0.191 A 
ATOM     11  N   UNL     1       2.298   1.428  -0.015  0.00  0.00    -0.206 NA
ATOM     12  C   UNL     1       2.389   0.102  -0.024  0.00  0.00    +0.133 A 
ATOM     13  N   UNL     1       3.624  -0.526  -0.046  0.00  0.00    -0.302 N 
ATOM     14  N   UNL     1      -1.182  -0.725   0.009  0.00  0.00    -0.343 N 
ATOM     15  C   UNL     1       2.767  -3.986  -0.860  0.00  0.00    +0.162 C 
ATOM     16  O   UNL     1       1.780  -4.695  -0.852  0.00  0.00    -0.292 OA
ATOM     17  C   UNL     1       4.081  -4.559  -1.312  0.00  0.00    +0.086 C 
ATOM     18  C   UNL     1       6.317  -3.982  -2.280  0.00  0.00    +0.011 C 
ATOM     19  H   UNL     1       4.418  -0.034   0.215  0.00  0.00    +0.153 HD
ATOM     20  H   UNL     1      -2.033  -0.259   0.019  0.00  0.00    +0.144 HD
ATOM     21  H   UNL     1      -1.159  -1.694   0.003  0.00  0.00    +0.144 HD
ENDROOT
BRANCH   6  22
ATOM     22  C   UNL     1       1.010  -2.664   1.377  0.00  0.00    -0.017 A 
ATOM     23  C   UNL     1      -0.069  -3.503   1.610  0.00  0.00    +0.007 A 
ATOM     24  C   UNL     1      -0.291  -3.948   2.905  0.00  0.00    +0.020 A 
ATOM     25  C   UNL     1       0.558  -3.534   3.914  0.00  0.00    +0.111 A 
ATOM     26  N   UNL     1       1.572  -2.732   3.656  0.00  0.00    -0.263 NA
ATOM     27  C   UNL     1       1.817  -2.294   2.437  0.00  0.00    +0.115 A 
ENDBRANCH   6  22
BRANCH  10  28
ATOM     28  S   UNL     1       1.035   3.782   0.015  0.00  0.00    -0.089 S 
ATOM     29  C   UNL     1      -0.759   4.018   0.036  0.00  0.00    +0.093 C 
ENDBRANCH  10  28
TORSDOF 2
