REMARK  Name = ZINC31308504
REMARK  6 active torsions:
REMARK  status: ('A' for Active; 'I' for Inactive)
REMARK    1  A    between atoms: C_11  and  O_31
REMARK    2  A    between atoms: C_12  and  S_27
REMARK    3  A    between atoms: C_13  and  O_16
REMARK    4  A    between atoms: C_14  and  O_15
REMARK    5  A    between atoms: O_16  and  C_17
REMARK    6  A    between atoms: C_20  and  S_23
REMARK                            x       y       z     vdW  Elec       q    Type
REMARK                         _______ _______ _______ _____ _____    ______ ____
ROOT
ATOM      1  C   UNL     1       6.319   5.808   3.580  0.00  0.00    +0.001 A 
ATOM      2  C   UNL     1       6.907   6.144   2.373  0.00  0.00    +0.001 A 
ATOM      3  C   UNL     1       6.455   5.583   1.192  0.00  0.00    +0.012 A 
ATOM      4  C   UNL     1       5.403   4.673   1.217  0.00  0.00    +0.033 A 
ATOM      5  C   UNL     1       4.806   4.331   2.444  0.00  0.00    +0.033 A 
ATOM      6  C   UNL     1       5.272   4.905   3.623  0.00  0.00    +0.012 A 
ATOM      7  C   UNL     1       3.687   3.364   2.469  0.00  0.00    +0.198 C 
ATOM      8  O   UNL     1       3.325   2.868   3.519  0.00  0.00    -0.286 OA
ATOM      9  C   UNL     1       3.016   3.008   1.205  0.00  0.00    +0.082 A 
ATOM     10  C   UNL     1       3.617   3.352  -0.027  0.00  0.00    +0.080 A 
ATOM     11  C   UNL     1       2.983   3.016  -1.226  0.00  0.00    +0.160 A 
ATOM     12  C   UNL     1       1.764   2.345  -1.201  0.00  0.00    +0.207 A 
ATOM     13  C   UNL     1       1.173   2.008   0.002  0.00  0.00    +0.201 A 
ATOM     14  C   UNL     1       1.793   2.342   1.215  0.00  0.00    +0.173 A 
ATOM     15  C   UNL     1       4.906   4.062  -0.035  0.00  0.00    +0.198 C 
ATOM     16  O   UNL     1       5.555   4.145  -1.060  0.00  0.00    -0.286 OA
ENDROOT
BRANCH  12  17
ATOM     17  S   UNL     1       0.967   1.923  -2.715  0.00  0.00    +0.147 S 
ATOM     18  O   UNL     1       1.984   1.864  -3.706  0.00  0.00    -0.139 OA
ATOM     19  O   UNL     1       0.114   0.823  -2.432  0.00  0.00    -0.139 OA
ATOM     20  O   UNL     1       0.063   3.090  -3.088  0.00  0.00    -0.042 OA
ENDBRANCH  12  17
BRANCH  14  21
ATOM     21  O   UNL     1       1.206   2.013   2.393  0.00  0.00    -0.503 OA
ATOM     22  H   UNL     1       0.240   1.487   2.398  0.00  0.00    +0.292 HD
ENDBRANCH  14  21
BRANCH  11  23
ATOM     23  O   UNL     1       3.555   3.342  -2.411  0.00  0.00    -0.504 OA
ATOM     24  H   UNL     1       3.055   3.077  -3.354  0.00  0.00    +0.292 HD
ENDBRANCH  11  23
BRANCH  13  25
ATOM     25  O   UNL     1      -0.016   1.355   0.009  0.00  0.00    -0.450 OA
BRANCH  25  26
ATOM     26  C   UNL     1       0.002  -0.004   0.002  0.00  0.00    +0.129 A 
ATOM     27  C   UNL     1       1.212  -0.683  -0.019  0.00  0.00    +0.048 A 
ATOM     28  C   UNL     1       1.228  -2.064  -0.021  0.00  0.00    +0.033 A 
ATOM     29  C   UNL     1       0.040  -2.770  -0.014  0.00  0.00    +0.120 A 
ATOM     30  C   UNL     1      -1.168  -2.097   0.002  0.00  0.00    +0.033 A 
ATOM     31  C   UNL     1      -1.189  -0.715   0.010  0.00  0.00    +0.048 A 
BRANCH  29  32
ATOM     32  S   UNL     1       0.064  -4.532  -0.023  0.00  0.00    +0.140 S 
ATOM     33  O   UNL     1       1.319  -4.924   0.514  0.00  0.00    -0.140 OA
ATOM     34  O   UNL     1      -1.171  -4.958   0.538  0.00  0.00    -0.140 OA
ATOM     35  O   UNL     1       0.055  -4.975  -1.479  0.00  0.00    -0.043 OA
ENDBRANCH  29  32
ENDBRANCH  25  26
ENDBRANCH  13  25
TORSDOF 6
