REMARK  Name = ZINC23214195
REMARK  6 active torsions:
REMARK  status: ('A' for Active; 'I' for Inactive)
REMARK    1  A    between atoms: C_1  and  N_2
REMARK    2  A    between atoms: N_5  and  C_8
REMARK    3  A    between atoms: C_11  and  N_14
REMARK    4  A    between atoms: C_17  and  N_20
REMARK    5  A    between atoms: N_20  and  C_21
REMARK    6  A    between atoms: C_21  and  C_22
REMARK                            x       y       z     vdW  Elec       q    Type
REMARK                         _______ _______ _______ _____ _____    ______ ____
ROOT
ATOM      1  N   UNL     1      -1.200  -0.720   0.010  0.00  0.00    -0.330 N 
ATOM      2  C   UNL     1      -2.065  -0.309  -1.103  0.00  0.00    +0.103 C 
ATOM      3  C   UNL     1      -3.423  -1.004  -0.979  0.00  0.00    +0.003 C 
ATOM      4  C   UNL     1      -3.218  -2.521  -1.001  0.00  0.00    -0.068 C 
ATOM      5  C   UNL     1      -2.275  -2.917   0.139  0.00  0.00    +0.003 C 
ATOM      6  C   UNL     1      -0.951  -2.167  -0.018  0.00  0.00    +0.103 C 
ENDROOT
BRANCH   1  10
ATOM      7  C   UNL     1       2.381   1.413  -0.013  0.00  0.00    +0.038 A 
ATOM      8  C   UNL     1       1.170   2.091   0.018  0.00  0.00    +0.025 A 
ATOM      9  C   UNL     1      -0.017   1.384   0.025  0.00  0.00    +0.025 A 
ATOM     10  C   UNL     1       0.002  -0.004   0.002  0.00  0.00    +0.030 A 
ATOM     11  C   UNL     1       1.214  -0.682  -0.029  0.00  0.00    +0.025 A 
ATOM     12  C   UNL     1       2.400   0.025  -0.036  0.00  0.00    +0.025 A 
BRANCH   7  17
ATOM     13  C   UNL     1       7.231   2.184   0.104  0.00  0.00    +0.133 C 
ATOM     14  N   UNL     1       5.801   2.494   0.032  0.00  0.00    -0.287 N 
ATOM     15  C   UNL     1       5.226   3.842  -0.082  0.00  0.00    +0.128 C 
ATOM     16  C   UNL     1       3.706   3.593  -0.124  0.00  0.00    +0.134 C 
ATOM     17  N   UNL     1       3.586   2.131  -0.020  0.00  0.00    -0.254 N 
ATOM     18  C   UNL     1       4.810   1.593   0.060  0.00  0.00    +0.309 C 
ATOM     19  O   UNL     1       5.004   0.396   0.150  0.00  0.00    -0.252 OA
ENDBRANCH   7  17
ENDBRANCH   1  10
BRANCH   4  20
ATOM     20  N   UNL     1      -4.512  -3.193  -0.824  0.00  0.00    +0.384 N 
ATOM     21  H   UNL     1      -4.350  -4.193  -0.394  0.00  0.00    -0.085 HD
ATOM     22  H   UNL     1      -5.144  -2.601  -0.145  0.00  0.00    -0.085 HD
BRANCH  20  23
ATOM     23  C   UNL     1      -5.210  -3.340  -2.108  0.00  0.00    -0.046 C 
BRANCH  23  24
ATOM     24  C   UNL     1      -6.530  -4.032  -1.887  0.00  0.00    -0.064 A 
ATOM     25  C   UNL     1      -6.608  -5.411  -1.957  0.00  0.00    +0.002 A 
ATOM     26  C   UNL     1      -7.818  -6.046  -1.749  0.00  0.00    +0.000 A 
ATOM     27  C   UNL     1      -8.952  -5.303  -1.481  0.00  0.00    +0.000 A 
ATOM     28  C   UNL     1      -8.875  -3.924  -1.416  0.00  0.00    +0.000 A 
ATOM     29  C   UNL     1      -7.664  -3.289  -1.619  0.00  0.00    +0.002 A 
ENDBRANCH  23  24
ENDBRANCH  20  23
ENDBRANCH   4  20
TORSDOF 5
