REMARK  Name = ZINC39467531
REMARK  8 active torsions:
REMARK  status: ('A' for Active; 'I' for Inactive)
REMARK    1  A    between atoms: C_1  and  C_2
REMARK    2  A    between atoms: C_2  and  O_3
REMARK    3  A    between atoms: O_3  and  C_4
REMARK    4  A    between atoms: P_13  and  C_25
REMARK    5  A    between atoms: C_21  and  O_22
REMARK    6  A    between atoms: O_22  and  C_23
REMARK    7  A    between atoms: C_23  and  C_24
REMARK    8  A    between atoms: C_30  and  O_31
REMARK                            x       y       z     vdW  Elec       q    Type
REMARK                         _______ _______ _______ _____ _____    ______ ____
ROOT
ATOM      1  C   UNL     1       0.802  -1.824   1.306  0.00  0.00    +0.158 C 
ATOM      2  C   UNL     1       0.282  -2.646   0.390  0.00  0.00    +0.026 C 
ATOM      3  C   UNL     1       0.403  -4.134   0.577  0.00  0.00    +0.019 C 
ATOM      4  C   UNL     1      -0.684  -4.862  -0.204  0.00  0.00    -0.002 C 
ATOM      5  C   UNL     1      -2.073  -4.523   0.351  0.00  0.00    -0.020 C 
ATOM      6  C   UNL     1      -3.093  -5.319  -0.473  0.00  0.00    +0.157 C 
ATOM      7  O   UNL     1      -4.424  -5.003  -0.026  0.00  0.00    -0.316 OA
ATOM      8  P   UNL     1      -4.725  -5.088   1.571  0.00  0.00    +0.291 P 
ATOM      9  O   UNL     1      -4.957  -6.492   1.975  0.00  0.00    -0.269 OA
ATOM     10  N   UNL     1      -3.365  -4.500   2.299  0.00  0.00    -0.288 NA
ATOM     11  N   UNL     1      -2.146  -4.871   1.772  0.00  0.00    +0.398 N 
ATOM     12  C   UNL     1      -1.133  -4.124   2.535  0.00  0.00    -0.046 C 
ATOM     13  C   UNL     1       0.259  -4.478   2.062  0.00  0.00    +0.008 C 
ATOM     14  C   UNL     1       1.244  -3.650   2.852  0.00  0.00    +0.025 C 
ATOM     15  C   UNL     1       1.503  -2.394   2.477  0.00  0.00    +0.158 C 
ATOM     16  H   UNL     1      -3.423  -3.916   3.071  0.00  0.00    +0.111 HD
ATOM     17  H   UNL     1      -2.010  -5.864   1.886  0.00  0.00    -0.055 HD
ENDROOT
BRANCH   8  18
ATOM     18  C   UNL     1      -6.162  -4.066   1.995  0.00  0.00    +0.091 A 
ATOM     19  C   UNL     1      -5.989  -2.738   2.337  0.00  0.00    +0.018 A 
ATOM     20  C   UNL     1      -7.084  -1.959   2.661  0.00  0.00    +0.001 A 
ATOM     21  C   UNL     1      -8.354  -2.506   2.644  0.00  0.00    +0.004 A 
ATOM     22  C   UNL     1      -8.532  -3.832   2.303  0.00  0.00    +0.046 A 
ATOM     23  C   UNL     1      -7.435  -4.615   1.972  0.00  0.00    +0.131 A 
BRANCH  23  24
ATOM     24  O   UNL     1      -7.608  -5.919   1.630  0.00  0.00    -0.506 OA
ATOM     25  H   UNL     1      -7.573  -6.530   2.379  0.00  0.00    +0.292 HD
ENDBRANCH  23  24
ENDBRANCH   8  18
BRANCH   1  26
ATOM     26  O   UNL     1       0.693  -0.477   1.160  0.00  0.00    -0.489 OA
BRANCH  26  28
ATOM     27  C   UNL     1      -0.019   1.526   0.010  0.00  0.00    +0.048 C 
ATOM     28  C   UNL     1       0.002  -0.004   0.002  0.00  0.00    +0.226 C 
ENDBRANCH  26  28
ENDBRANCH   1  26
BRANCH  15  29
ATOM     29  O   UNL     1       2.399  -1.643   3.168  0.00  0.00    -0.489 OA
BRANCH  29  30
ATOM     30  C   UNL     1       3.037  -2.260   4.288  0.00  0.00    +0.226 C 
ATOM     31  C   UNL     1       4.004  -1.268   4.935  0.00  0.00    +0.048 C 
ENDBRANCH  29  30
ENDBRANCH  15  29
TORSDOF 6
