REMARK  Name = ZINC40362254
REMARK  19 active torsions:
REMARK  status: ('A' for Active; 'I' for Inactive)
REMARK    1  A    between atoms: C_1  and  C_2
REMARK    2  A    between atoms: C_2  and  C_3
REMARK    3  A    between atoms: C_3  and  C_5
REMARK    4  A    between atoms: C_3  and  C_11
REMARK    5  A    between atoms: C_11  and  O_13
REMARK    6  A    between atoms: O_13  and  C_14
REMARK    7  A    between atoms: C_17  and  C_22
REMARK    8  A    between atoms: C_19  and  O_20
REMARK    9  A    between atoms: O_20  and  C_21
REMARK   10  A    between atoms: C_23  and  N_32
REMARK   11  A    between atoms: C_27  and  C_31
REMARK   12  A    between atoms: N_32  and  C_33
REMARK   13  A    between atoms: C_33  and  C_34
REMARK   14  A    between atoms: C_33  and  C_35
REMARK   15  A    between atoms: C_33  and  C_36
REMARK   16  A    between atoms: C_36  and  C_37
REMARK   17  A    between atoms: C_37  and  C_38
REMARK   18  A    between atoms: C_37  and  C_39
REMARK   19  A    between atoms: C_37  and  C_40
REMARK                            x       y       z     vdW  Elec       q    Type
REMARK                         _______ _______ _______ _____ _____    ______ ____
ROOT
ATOM      1  C   UNL     1       2.317 -11.428  -3.831  0.00  0.00    +0.087 A 
ATOM      2  C   UNL     1       3.124 -10.325  -3.644  0.00  0.00    +0.129 A 
ATOM      3  N   UNL     1       4.400 -10.791  -3.485  0.00  0.00    -0.289 N 
ATOM      4  C   UNL     1       5.593 -10.155  -3.269  0.00  0.00    +0.094 A 
ATOM      5  C   UNL     1       6.734 -10.862  -3.145  0.00  0.00    +0.021 A 
ATOM      6  C   UNL     1       6.714 -12.265  -3.234  0.00  0.00    -0.046 A 
ATOM      7  C   UNL     1       5.538 -12.912  -3.448  0.00  0.00    +0.048 A 
ATOM      8  C   UNL     1       4.349 -12.163  -3.577  0.00  0.00    +0.117 A 
ATOM      9  N   UNL     1       3.093 -12.526  -3.779  0.00  0.00    -0.338 N 
ATOM     10  C   UNL     1       7.993 -13.050  -3.095  0.00  0.00    +0.044 C 
ATOM     11  H   UNL     1       2.781 -13.439  -3.876  0.00  0.00    +0.167 HD
ENDROOT
BRANCH   1  15
ATOM     12  C   UNL     1      -1.894 -11.363  -4.443  0.00  0.00    +0.173 A 
ATOM     13  C   UNL     1      -1.325 -10.574  -3.455  0.00  0.00    +0.051 A 
ATOM     14  C   UNL     1       0.040 -10.593  -3.254  0.00  0.00    +0.014 A 
ATOM     15  C   UNL     1       0.851 -11.407  -4.045  0.00  0.00    +0.005 A 
ATOM     16  C   UNL     1       0.279 -12.201  -5.039  0.00  0.00    +0.059 A 
ATOM     17  C   UNL     1      -1.091 -12.183  -5.232  0.00  0.00    +0.163 A 
BRANCH  17  18
ATOM     18  O   UNL     1      -1.652 -12.960  -6.197  0.00  0.00    -0.491 OA
ATOM     19  C   UNL     1      -0.768 -13.775  -6.968  0.00  0.00    +0.277 C 
ENDBRANCH  17  18
BRANCH  12  20
ATOM     20  O   UNL     1      -3.240 -11.341  -4.638  0.00  0.00    -0.422 OA
BRANCH  20  21
ATOM     21  C   UNL     1      -3.982 -12.268  -4.012  0.00  0.00    +0.320 C 
ATOM     22  O   UNL     1      -3.444 -13.146  -3.373  0.00  0.00    -0.250 OA
BRANCH  21  23
ATOM     23  C   UNL     1      -5.486 -12.216  -4.103  0.00  0.00    +0.128 C 
BRANCH  23  24
ATOM     24  C   UNL     1      -6.076 -13.359  -3.319  0.00  0.00    -0.034 A 
ATOM     25  C   UNL     1      -5.761 -14.663  -3.653  0.00  0.00    +0.004 A 
ATOM     26  C   UNL     1      -6.303 -15.711  -2.933  0.00  0.00    +0.000 A 
ATOM     27  C   UNL     1      -7.159 -15.456  -1.879  0.00  0.00    +0.000 A 
ATOM     28  C   UNL     1      -7.473 -14.153  -1.544  0.00  0.00    +0.000 A 
ATOM     29  C   UNL     1      -6.928 -13.104  -2.261  0.00  0.00    +0.004 A 
ENDBRANCH  23  24
BRANCH  23  31
ATOM     30  C   UNL     1      -7.428 -12.153  -5.674  0.00  0.00    +0.005 C 
ATOM     31  C   UNL     1      -5.912 -12.330  -5.569  0.00  0.00    +0.016 C 
ENDBRANCH  23  31
ENDBRANCH  21  23
ENDBRANCH  20  21
ENDBRANCH  12  20
ENDBRANCH   1  15
BRANCH   2  32
ATOM     32  N   UNL     1       2.717  -8.991  -3.622  0.00  0.00    -0.323 N 
ATOM     33  H   UNL     1       1.800  -8.760  -3.837  0.00  0.00    +0.148 HD
BRANCH  32  34
ATOM     34  C   UNL     1       3.675  -7.938  -3.274  0.00  0.00    +0.028 C 
ATOM     35  C   UNL     1       4.336  -8.272  -1.936  0.00  0.00    +0.031 C 
ATOM     36  C   UNL     1       4.746  -7.844  -4.363  0.00  0.00    +0.031 C 
BRANCH  34  37
ATOM     37  C   UNL     1       2.943  -6.599  -3.161  0.00  0.00    +0.031 C 
BRANCH  37  38
ATOM     38  C   UNL     1       1.841  -6.529  -4.221  0.00  0.00    -0.036 C 
ATOM     39  C   UNL     1       0.645  -7.369  -3.768  0.00  0.00    +0.010 C 
ATOM     40  C   UNL     1       1.403  -5.075  -4.406  0.00  0.00    +0.010 C 
ATOM     41  C   UNL     1       2.374  -7.074  -5.548  0.00  0.00    +0.010 C 
ENDBRANCH  37  38
ENDBRANCH  34  37
ENDBRANCH  32  34
ENDBRANCH   2  32
TORSDOF 11
