REMARK  Name = ZINC35939617
REMARK  14 active torsions:
REMARK  status: ('A' for Active; 'I' for Inactive)
REMARK    1  A    between atoms: C_1  and  C_2
REMARK    2  A    between atoms: C_2  and  C_3
REMARK    3  A    between atoms: C_3  and  C_5
REMARK    4  A    between atoms: C_3  and  N_6
REMARK    5  A    between atoms: N_6  and  C_7
REMARK    6  A    between atoms: N_6  and  S_29
REMARK    7  A    between atoms: C_7  and  C_8
REMARK    8  A    between atoms: C_9  and  C_28
REMARK    9  A    between atoms: N_11  and  C_21
REMARK   10  A    between atoms: C_12  and  N_13
REMARK   11  A    between atoms: N_16  and  C_19
REMARK   12  A    between atoms: C_19  and  C_20
REMARK   13  A    between atoms: S_29  and  C_32
REMARK   14  A    between atoms: C_35  and  C_38
REMARK                            x       y       z     vdW  Elec       q    Type
REMARK                         _______ _______ _______ _____ _____    ______ ____
ROOT
ATOM      1  C   UNL     1      -3.439  -2.220  -3.082  0.00  0.00    +0.031 A 
ATOM      2  C   UNL     1      -2.978  -2.985  -2.007  0.00  0.00    +0.067 A 
ATOM      3  N   UNL     1      -3.986  -3.231  -1.210  0.00  0.00    -0.170 NA
ATOM      4  N   UNL     1      -5.132  -2.631  -1.747  0.00  0.00    -0.218 N 
ATOM      5  C   UNL     1      -4.772  -2.006  -2.902  0.00  0.00    +0.129 A 
ATOM      6  C   UNL     1      -1.558  -3.449  -1.802  0.00  0.00    +0.068 C 
ENDROOT
BRANCH   5   7
ATOM      7  N   UNL     1      -5.612  -1.284  -3.744  0.00  0.00    -0.318 N 
ATOM      8  C   UNL     1      -5.976  -1.801  -5.073  0.00  0.00    +0.088 C 
ATOM      9  C   UNL     1      -7.500  -1.733  -5.219  0.00  0.00    -0.060 C 
ATOM     10  N   UNL     1      -7.956  -0.362  -4.956  0.00  0.00    +0.382 N 
ATOM     11  C   UNL     1      -7.677  -0.002  -3.560  0.00  0.00    -0.060 C 
ATOM     12  C   UNL     1      -6.166   0.013  -3.329  0.00  0.00    +0.088 C 
ATOM     13  H   UNL     1      -7.472   0.276  -5.570  0.00  0.00    -0.082 HD
BRANCH  10  14
ATOM     14  C   UNL     1      -9.401  -0.273  -5.203  0.00  0.00    -0.082 C 
ATOM     15  C   UNL     1      -9.855   1.180  -5.050  0.00  0.00    -0.017 C 
ENDBRANCH  10  14
ENDBRANCH   5   7
BRANCH   4  16
ATOM     16  C   UNL     1      -6.418  -2.663  -1.192  0.00  0.00    +0.070 A 
ATOM     17  C   UNL     1      -7.095  -1.477  -0.935  0.00  0.00    +0.028 A 
ATOM     18  C   UNL     1      -8.362  -1.511  -0.388  0.00  0.00    +0.005 A 
ATOM     19  C   UNL     1      -8.960  -2.723  -0.096  0.00  0.00    +0.038 A 
ATOM     20  C   UNL     1      -8.288  -3.907  -0.350  0.00  0.00    +0.125 A 
ATOM     21  C   UNL     1      -7.020  -3.879  -0.903  0.00  0.00    +0.066 A 
ATOM     22  F   UNL     1      -8.874  -5.090  -0.063  0.00  0.00    -0.205 F 
ENDBRANCH   4  16
BRANCH   1  23
ATOM     23  C   UNL     1      -2.608  -1.715  -4.234  0.00  0.00    +0.150 C 
BRANCH  23  24
ATOM     24  N   UNL     1      -2.703  -0.255  -4.301  0.00  0.00    -0.169 NA
BRANCH  24  25
ATOM     25  S   UNL     1      -3.361   0.471  -5.636  0.00  0.00    +0.061 S 
ATOM     26  O   UNL     1      -3.744  -0.574  -6.519  0.00  0.00    -0.153 OA
ATOM     27  O   UNL     1      -4.283   1.442  -5.158  0.00  0.00    -0.153 OA
BRANCH  25  28
ATOM     28  C   UNL     1      -2.067   1.359  -6.438  0.00  0.00    +0.106 A 
ATOM     29  C   UNL     1      -1.814   2.674  -6.094  0.00  0.00    +0.029 A 
ATOM     30  C   UNL     1      -0.799   3.370  -6.723  0.00  0.00    +0.005 A 
ATOM     31  C   UNL     1      -0.036   2.751  -7.695  0.00  0.00    -0.050 A 
ATOM     32  C   UNL     1      -0.288   1.436  -8.038  0.00  0.00    +0.005 A 
ATOM     33  C   UNL     1      -1.300   0.738  -7.406  0.00  0.00    +0.029 A 
ATOM     34  C   UNL     1       1.071   3.510  -8.381  0.00  0.00    +0.044 C 
ENDBRANCH  25  28
ENDBRANCH  24  25
BRANCH  24  35
ATOM     35  C   UNL     1      -2.216   0.564  -3.188  0.00  0.00    +0.077 C 
ATOM     36  C   UNL     1      -3.074   0.301  -1.948  0.00  0.00    +0.026 C 
BRANCH  35  38
ATOM     37  C   UNL     1       0.117   0.579  -4.081  0.00  0.00    +0.005 C 
ATOM     38  C   UNL     1      -0.760   0.201  -2.887  0.00  0.00    +0.017 C 
ENDBRANCH  35  38
ENDBRANCH  24  35
ENDBRANCH  23  24
ENDBRANCH   1  23
TORSDOF 9
