REMARK  Name = ZINC13732969
REMARK  6 active torsions:
REMARK  status: ('A' for Active; 'I' for Inactive)
REMARK    1  A    between atoms: C_1  and  C_2
REMARK    2  A    between atoms: C_2  and  C_3
REMARK    3  A    between atoms: C_6  and  S_9
REMARK    4  A    between atoms: S_9  and  C_12
REMARK    5  A    between atoms: C_19  and  N_21
REMARK    6  A    between atoms: C_24  and  C_27
REMARK                            x       y       z     vdW  Elec       q    Type
REMARK                         _______ _______ _______ _____ _____    ______ ____
ROOT
ATOM      1  C   UNL     1       5.071   4.031  -2.806  0.00  0.00    +0.175 C 
ATOM      2  C   UNL     1       6.479   4.134  -3.458  0.00  0.00    +0.194 C 
ATOM      3  S   UNL     1       7.147   2.472  -3.010  0.00  0.00    -0.028 S 
ATOM      4  O   UNL     1       6.649   1.506  -3.925  0.00  0.00    -0.174 OA
ATOM      5  O   UNL     1       8.547   2.575  -2.788  0.00  0.00    -0.174 OA
ATOM      6  C   UNL     1       6.291   2.271  -1.392  0.00  0.00    +0.186 C 
ATOM      7  C   UNL     1       5.162   3.317  -1.458  0.00  0.00    +0.104 C 
ENDROOT
BRANCH   7   8
ATOM      8  N   UNL     1       3.882   2.646  -1.194  0.00  0.00    -0.296 NA
ATOM      9  C   UNL     1       3.659   1.546  -2.140  0.00  0.00    +0.085 C 
ATOM     10  C   UNL     1       2.259   0.966  -1.930  0.00  0.00    +0.028 C 
ATOM     11  C   UNL     1       2.133   0.459  -0.491  0.00  0.00    +0.077 C 
ATOM     12  C   UNL     1       2.418   1.611   0.476  0.00  0.00    +0.028 C 
ATOM     13  C   UNL     1       3.813   2.174   0.195  0.00  0.00    +0.085 C 
BRANCH  11  14
ATOM     14  C   UNL     1       0.737  -0.059  -0.260  0.00  0.00    +0.214 C 
ATOM     15  O   UNL     1      -0.078  -0.029  -1.158  0.00  0.00    -0.276 OA
ATOM     16  N   UNL     1       0.392  -0.551   0.947  0.00  0.00    -0.329 N 
ATOM     17  H   UNL     1      -0.627  -0.929   1.115  0.00  0.00    +0.145 HD
ATOM     18  H   UNL     1       1.129  -0.575   1.762  0.00  0.00    +0.145 HD
ENDBRANCH  11  14
ENDBRANCH   7   8
BRANCH   1  19
ATOM     19  S   UNL     1       4.400   5.698  -2.559  0.00  0.00    +0.003 S 
ATOM     20  O   UNL     1       3.051   5.623  -2.121  0.00  0.00    -0.169 OA
ATOM     21  O   UNL     1       5.342   6.507  -1.868  0.00  0.00    -0.169 OA
BRANCH  19  25
ATOM     22  C   UNL     1       4.169   7.486  -6.711  0.00  0.00    -0.048 A 
ATOM     23  C   UNL     1       3.093   6.785  -6.200  0.00  0.00    +0.005 A 
ATOM     24  C   UNL     1       3.164   6.238  -4.932  0.00  0.00    +0.027 A 
ATOM     25  C   UNL     1       4.310   6.394  -4.176  0.00  0.00    +0.089 A 
ATOM     26  C   UNL     1       5.384   7.101  -4.685  0.00  0.00    +0.027 A 
ATOM     27  C   UNL     1       5.315   7.642  -5.955  0.00  0.00    +0.005 A 
BRANCH  22  29
ATOM     28  C   UNL     1       3.534   9.503  -8.006  0.00  0.00    +0.009 C 
ATOM     29  C   UNL     1       4.092   8.082  -8.094  0.00  0.00    +0.032 C 
ENDBRANCH  22  29
ENDBRANCH  19  25
ENDBRANCH   1  19
TORSDOF 5
