REMARK  Name = ZINC04962671
REMARK  8 active torsions:
REMARK  status: ('A' for Active; 'I' for Inactive)
REMARK    1  A    between atoms: C_8  and  N_9
REMARK    2  A    between atoms: N_9  and  N_10
REMARK    3  A    between atoms: C_11  and  C_13
REMARK    4  A    between atoms: C_13  and  C_14
REMARK    5  A    between atoms: C_14  and  C_15
REMARK    6  A    between atoms: C_15  and  C_16
REMARK    7  A    between atoms: N_18  and  N_19
REMARK    8  A    between atoms: N_19  and  C_20
REMARK                            x       y       z     vdW  Elec       q    Type
REMARK                         _______ _______ _______ _____ _____    ______ ____
ROOT
ATOM      1  C   UNL     1       7.717  -6.649  -0.526  0.00  0.00    +0.018 C 
ENDROOT
BRANCH   1   2
ATOM      2  C   UNL     1       6.255  -6.209  -0.440  0.00  0.00    +0.098 C 
BRANCH   2   4
ATOM      3  N   UNL     1       4.996  -4.100  -0.148  0.00  0.00    -0.237 N 
ATOM      4  C   UNL     1       6.190  -4.715  -0.251  0.00  0.00    +0.229 C 
ATOM      5  O   UNL     1       7.214  -4.067  -0.190  0.00  0.00    -0.274 OA
ATOM      6  H   UNL     1       4.177  -4.618  -0.197  0.00  0.00    +0.173 HD
BRANCH   3   7
ATOM      7  N   UNL     1       4.936  -2.711   0.028  0.00  0.00    -0.271 N 
ATOM      8  H   UNL     1       5.754  -2.193   0.077  0.00  0.00    +0.169 HD
BRANCH   7  16
ATOM      9  C   UNL     1      -0.018   1.366   0.159  0.00  0.00    +0.001 A 
ATOM     10  C   UNL     1       1.143   2.071   0.292  0.00  0.00    +0.008 A 
ATOM     11  C   UNL     1       2.370   1.395   0.320  0.00  0.00    -0.017 A 
ATOM     12  C   UNL     1       2.386  -0.012   0.208  0.00  0.00    -0.006 A 
ATOM     13  C   UNL     1       1.187  -0.711   0.072  0.00  0.00    +0.009 A 
ATOM     14  C   UNL     1      -0.004  -0.018   0.049  0.00  0.00    +0.001 A 
ATOM     15  C   UNL     1       3.679  -0.716   0.238  0.00  0.00    +0.044 C 
ATOM     16  C   UNL     1       3.740  -2.095   0.131  0.00  0.00    +0.100 C 
ATOM     17  C   UNL     1       4.901   0.083   0.383  0.00  0.00    +0.188 C 
ATOM     18  O   UNL     1       5.992  -0.465   0.410  0.00  0.00    -0.287 OA
ATOM     19  C   UNL     1       4.811   1.488   0.489  0.00  0.00    +0.052 C 
ATOM     20  C   UNL     1       3.623   2.127   0.461  0.00  0.00    +0.012 C 
ENDBRANCH   7  16
ENDBRANCH   3   7
ENDBRANCH   2   4
ENDBRANCH   1   2
BRANCH   1  21
ATOM     21  C   UNL     1       7.782  -8.166  -0.719  0.00  0.00    +0.098 C 
BRANCH  21  22
ATOM     22  C   UNL     1       9.223  -8.600  -0.803  0.00  0.00    +0.229 C 
ATOM     23  O   UNL     1      10.110  -7.777  -0.718  0.00  0.00    -0.274 OA
ATOM     24  N   UNL     1       9.526  -9.902  -0.974  0.00  0.00    -0.237 N 
ATOM     25  H   UNL     1       8.816 -10.560  -1.042  0.00  0.00    +0.173 HD
BRANCH  24  26
ATOM     26  N   UNL     1      10.865 -10.306  -1.052  0.00  0.00    -0.271 N 
ATOM     27  H   UNL     1      11.575  -9.648  -0.984  0.00  0.00    +0.169 HD
BRANCH  26  28
ATOM     28  C   UNL     1      11.168 -11.609  -1.223  0.00  0.00    +0.100 C 
ATOM     29  C   UNL     1      12.491 -12.018  -1.226  0.00  0.00    +0.044 C 
ATOM     30  C   UNL     1      13.582 -11.037  -1.201  0.00  0.00    +0.188 C 
ATOM     31  O   UNL     1      13.332  -9.842  -1.178  0.00  0.00    -0.287 OA
ATOM     32  C   UNL     1      14.922 -11.480  -1.204  0.00  0.00    +0.052 C 
ATOM     33  C   UNL     1      15.236 -12.792  -1.229  0.00  0.00    +0.012 C 
ATOM     34  C   UNL     1      14.202 -13.820  -1.255  0.00  0.00    -0.017 A 
ATOM     35  C   UNL     1      12.840 -13.448  -1.246  0.00  0.00    -0.006 A 
ATOM     36  C   UNL     1      11.852 -14.432  -1.265  0.00  0.00    +0.009 A 
ATOM     37  C   UNL     1      12.217 -15.760  -1.284  0.00  0.00    +0.001 A 
ATOM     38  C   UNL     1      13.557 -16.125  -1.286  0.00  0.00    +0.001 A 
ATOM     39  C   UNL     1      14.541 -15.179  -1.282  0.00  0.00    +0.008 A 
ENDBRANCH  26  28
ENDBRANCH  24  26
ENDBRANCH  21  22
ENDBRANCH   1  21
TORSDOF 8
