REMARK  Name = ZINC13030602
REMARK  16 active torsions:
REMARK  status: ('A' for Active; 'I' for Inactive)
REMARK    1  A    between atoms: C_1  and  C_2
REMARK    2  A    between atoms: C_2  and  C_3
REMARK    3  A    between atoms: C_2  and  C_4
REMARK    4  A    between atoms: C_4  and  C_5
REMARK    5  A    between atoms: C_5  and  N_6
REMARK    6  A    between atoms: C_7  and  C_9
REMARK    7  A    between atoms: C_9  and  C_11
REMARK    8  A    between atoms: C_9  and  N_19
REMARK    9  A    between atoms: C_14  and  O_17
REMARK   10  A    between atoms: O_17  and  C_18
REMARK   11  A    between atoms: N_19  and  C_20
REMARK   12  A    between atoms: C_20  and  C_21
REMARK   13  A    between atoms: C_26  and  O_27
REMARK   14  A    between atoms: O_27  and  C_28
REMARK   15  A    between atoms: C_29  and  C_31
REMARK   16  A    between atoms: C_31  and  N_32
REMARK                            x       y       z     vdW  Elec       q    Type
REMARK                         _______ _______ _______ _____ _____    ______ ____
ROOT
ATOM      1  N   UNL     1      -5.151   3.198  -1.489  0.00  0.00    -0.280 N 
ATOM      2  C   UNL     1      -4.658   4.445  -1.351  0.00  0.00    +0.238 C 
ATOM      3  O   UNL     1      -5.188   5.373  -1.925  0.00  0.00    -0.274 OA
ENDROOT
BRANCH   1   4
ATOM      4  C   UNL     1      -6.254   2.945  -2.419  0.00  0.00    +0.193 C 
BRANCH   4   5
ATOM      5  C   UNL     1      -6.454   1.459  -2.568  0.00  0.00    -0.018 A 
ATOM      6  C   UNL     1      -6.956   0.721  -1.513  0.00  0.00    +0.009 A 
ATOM      7  C   UNL     1      -7.146  -0.641  -1.649  0.00  0.00    +0.046 A 
ATOM      8  C   UNL     1      -6.821  -1.269  -2.843  0.00  0.00    +0.120 A 
ATOM      9  C   UNL     1      -6.311  -0.527  -3.899  0.00  0.00    +0.046 A 
ATOM     10  C   UNL     1      -6.129   0.835  -3.759  0.00  0.00    +0.009 A 
BRANCH   8  11
ATOM     11  O   UNL     1      -7.000  -2.610  -2.978  0.00  0.00    -0.495 OA
ATOM     12  C   UNL     1      -7.528  -3.310  -1.849  0.00  0.00    +0.277 C 
ENDBRANCH   8  11
ENDBRANCH   4   5
BRANCH   4  14
ATOM     13  N   UNL     1      -8.670   3.452  -2.569  0.00  0.00    -0.313 N 
ATOM     14  C   UNL     1      -7.516   3.571  -1.883  0.00  0.00    +0.238 C 
ATOM     15  O   UNL     1      -7.493   4.181  -0.836  0.00  0.00    -0.273 OA
ATOM     16  H   UNL     1      -8.705   2.904  -3.369  0.00  0.00    +0.149 HD
BRANCH  13  17
ATOM     17  C   UNL     1      -9.872   4.151  -2.107  0.00  0.00    +0.104 C 
BRANCH  17  18
ATOM     18  C   UNL     1     -11.062   3.753  -2.983  0.00  0.00    +0.022 C 
BRANCH  18  20
ATOM     19  C   UNL     1     -12.145   5.988  -2.711  0.00  0.00    +0.007 C 
ATOM     20  C   UNL     1     -12.317   4.482  -2.500  0.00  0.00    -0.016 C 
ATOM     21  C   UNL     1     -13.529   3.992  -3.294  0.00  0.00    +0.007 C 
ENDBRANCH  18  20
ENDBRANCH  17  18
ENDBRANCH  13  17
ENDBRANCH   4  14
ENDBRANCH   1   4
BRANCH   1  22
ATOM     22  C   UNL     1      -4.583   2.096  -0.708  0.00  0.00    +0.147 C 
BRANCH  22  23
ATOM     23  C   UNL     1      -4.453   2.517   0.733  0.00  0.00    +0.012 A 
ATOM     24  C   UNL     1      -3.202   2.639   1.307  0.00  0.00    +0.009 A 
ATOM     25  C   UNL     1      -3.081   3.029   2.628  0.00  0.00    +0.001 A 
ATOM     26  C   UNL     1      -4.212   3.288   3.381  0.00  0.00    +0.004 A 
ATOM     27  C   UNL     1      -5.465   3.163   2.813  0.00  0.00    +0.046 A 
ATOM     28  C   UNL     1      -5.588   2.776   1.486  0.00  0.00    +0.125 A 
BRANCH  28  29
ATOM     29  O   UNL     1      -6.820   2.652   0.926  0.00  0.00    -0.495 OA
ATOM     30  C   UNL     1      -7.940   3.027   1.730  0.00  0.00    +0.277 C 
ENDBRANCH  28  29
ENDBRANCH  22  23
ENDBRANCH   1  22
BRANCH   2  31
ATOM     31  C   UNL     1      -3.449   4.686  -0.485  0.00  0.00    +0.241 C 
BRANCH  31  32
ATOM     32  N   UNL     1      -2.997   6.070  -0.650  0.00  0.00    -0.235 N 
ATOM     33  C   UNL     1      -2.088   6.535  -1.571  0.00  0.00    +0.090 A 
ATOM     34  C   UNL     1      -1.343   5.935  -2.580  0.00  0.00    +0.029 A 
ATOM     35  C   UNL     1      -0.500   6.692  -3.344  0.00  0.00    +0.002 A 
ATOM     36  C   UNL     1      -0.387   8.060  -3.127  0.00  0.00    +0.002 A 
ATOM     37  C   UNL     1      -1.110   8.673  -2.146  0.00  0.00    +0.032 A 
ATOM     38  C   UNL     1      -1.978   7.918  -1.346  0.00  0.00    +0.113 A 
ATOM     39  N   UNL     1      -2.802   8.233  -0.326  0.00  0.00    -0.129 NA
ATOM     40  N   UNL     1      -3.408   7.182   0.100  0.00  0.00    -0.064 NA
ENDBRANCH  31  32
ENDBRANCH   2  31
TORSDOF 12
