REMARK  Name = ZINC46882326
REMARK  9 active torsions:
REMARK  status: ('A' for Active; 'I' for Inactive)
REMARK    1  A    between atoms: C_4  and  C_7
REMARK    2  A    between atoms: C_7  and  N_8
REMARK    3  A    between atoms: C_9  and  C_29
REMARK    4  A    between atoms: C_12  and  S_13
REMARK    5  A    between atoms: S_13  and  C_14
REMARK    6  A    between atoms: C_14  and  C_15
REMARK    7  A    between atoms: C_17  and  C_20
REMARK    8  A    between atoms: C_23  and  N_26
REMARK    9  A    between atoms: C_29  and  N_30
REMARK                            x       y       z     vdW  Elec       q    Type
REMARK                         _______ _______ _______ _____ _____    ______ ____
ROOT
ATOM      1  N   UNL     1       4.152  -0.952   1.338  0.00  0.00    -0.303 N 
ATOM      2  C   UNL     1       4.928  -0.137   2.114  0.00  0.00    +0.118 A 
ATOM      3  N   UNL     1       5.082  -0.728   3.265  0.00  0.00    -0.135 NA
ATOM      4  N   UNL     1       4.461  -1.854   3.269  0.00  0.00    -0.123 NA
ATOM      5  C   UNL     1       3.868  -2.040   2.113  0.00  0.00    +0.192 A 
ENDROOT
BRANCH   1   6
ATOM      6  C   UNL     1       3.711  -0.707  -0.038  0.00  0.00    +0.160 C 
BRANCH   6  10
ATOM      7  C   UNL     1      -0.017   1.378   0.010  0.00  0.00    +0.000 A 
ATOM      8  C   UNL     1       1.171   2.086   0.002  0.00  0.00    +0.000 A 
ATOM      9  C   UNL     1       2.377   1.411  -0.013  0.00  0.00    +0.005 A 
ATOM     10  C   UNL     1       2.396   0.029  -0.020  0.00  0.00    -0.028 A 
ATOM     11  C   UNL     1       1.208  -0.679  -0.012  0.00  0.00    +0.005 A 
ATOM     12  C   UNL     1       0.002  -0.004   0.002  0.00  0.00    +0.000 A 
ENDBRANCH   6  10
ENDBRANCH   1   6
BRANCH   5  13
ATOM     13  S   UNL     1       2.893  -3.432   1.648  0.00  0.00    -0.076 S 
BRANCH  13  14
ATOM     14  C   UNL     1       2.916  -4.494   3.118  0.00  0.00    +0.176 C 
BRANCH  14  15
ATOM     15  C   UNL     1       2.107  -5.738   2.852  0.00  0.00    +0.238 A 
ATOM     16  N   UNL     1       2.566  -6.853   2.359  0.00  0.00    -0.191 NA
ATOM     17  C   UNL     1       1.572  -7.753   2.254  0.00  0.00    +0.202 A 
ATOM     18  N   UNL     1       0.464  -7.206   2.687  0.00  0.00    -0.056 NA
ATOM     19  O   UNL     1       0.797  -5.885   3.088  0.00  0.00    -0.337 OA
BRANCH  17  20
ATOM     20  C   UNL     1       1.709  -9.137   1.734  0.00  0.00    +0.023 A 
ATOM     21  C   UNL     1       2.950  -9.604   1.308  0.00  0.00    +0.014 A 
ATOM     22  C   UNL     1       3.072 -10.892   0.826  0.00  0.00    +0.033 A 
ATOM     23  C   UNL     1       1.964 -11.718   0.766  0.00  0.00    +0.126 A 
ATOM     24  C   UNL     1       0.730 -11.259   1.188  0.00  0.00    +0.033 A 
ATOM     25  C   UNL     1       0.598  -9.975   1.677  0.00  0.00    +0.014 A 
BRANCH  23  26
ATOM     26  N   UNL     1       2.101 -13.098   0.249  0.00  0.00    +0.056 N 
ATOM     27  O   UNL     1       3.179 -13.501  -0.121  0.00  0.00    -0.126 OA
ATOM     28  O   UNL     1       1.134 -13.822   0.196  0.00  0.00    -0.126 OA
ENDBRANCH  23  26
ENDBRANCH  17  20
ENDBRANCH  14  15
ENDBRANCH  13  14
ENDBRANCH   5  13
BRANCH   2  29
ATOM     29  C   UNL     1       5.499   1.199   1.713  0.00  0.00    -0.001 C 
BRANCH  29  30
ATOM     30  N   UNL     1       4.547   2.263   2.058  0.00  0.00    +0.384 N 
ATOM     31  C   UNL     1       4.446   2.401   3.534  0.00  0.00    -0.078 C 
ATOM     32  C   UNL     1       3.904   3.840   3.719  0.00  0.00    -0.020 C 
ATOM     33  C   UNL     1       4.625   4.628   2.601  0.00  0.00    -0.020 C 
ATOM     34  C   UNL     1       5.038   3.567   1.564  0.00  0.00    -0.078 C 
ATOM     35  H   UNL     1       3.640   2.060   1.664  0.00  0.00    -0.081 HD
ENDBRANCH  29  30
ENDBRANCH   2  29
TORSDOF 9
