REMARK  Name = ZINC32259199
REMARK  3 active torsions:
REMARK  status: ('A' for Active; 'I' for Inactive)
REMARK    1  A    between atoms: C_11  and  C_13
REMARK    2  A    between atoms: N_15  and  N_16
REMARK    3  A    between atoms: C_17  and  C_19
REMARK                            x       y       z     vdW  Elec       q    Type
REMARK                         _______ _______ _______ _____ _____    ______ ____
ROOT
ATOM      1  C   UNL     1       2.544   1.289  -0.015  0.00  0.00    +0.267 C 
ATOM      2  O   UNL     1       2.756   0.091  -0.022  0.00  0.00    -0.268 OA
ATOM      3  N   UNL     1       3.576   2.156  -0.020  0.00  0.00    -0.230 N 
ATOM      4  H   UNL     1       3.385   3.239  -0.013  0.00  0.00    +0.173 HD
ENDROOT
BRANCH   1  15
ATOM      5  C   UNL     1      -3.886   5.812   0.069  0.00  0.00    +0.001 A 
ATOM      6  C   UNL     1      -5.012   5.000   0.075  0.00  0.00    +0.001 A 
ATOM      7  C   UNL     1      -4.861   3.628   0.067  0.00  0.00    +0.016 A 
ATOM      8  C   UNL     1      -3.593   3.083   0.052  0.00  0.00    +0.021 A 
ATOM      9  C   UNL     1      -2.437   3.884   0.046  0.00  0.00    +0.004 A 
ATOM     10  C   UNL     1      -2.632   5.286   0.055  0.00  0.00    +0.010 A 
ATOM     11  C   UNL     1      -1.168   3.154   0.030  0.00  0.00    +0.035 A 
ATOM     12  C   UNL     1      -1.218   1.762   0.017  0.00  0.00    +0.028 A 
ATOM     13  S   UNL     1      -2.974   1.422   0.038  0.00  0.00    -0.088 S 
ATOM     14  C   UNL     1      -0.013   1.076   0.008  0.00  0.00    +0.036 A 
ATOM     15  C   UNL     1       1.167   1.790   0.001  0.00  0.00    +0.077 A 
ATOM     16  S   UNL     1       0.592   3.478   0.015  0.00  0.00    -0.082 S 
ENDBRANCH   1  15
BRANCH   3  17
ATOM     17  N   UNL     1       4.893   1.677  -0.035  0.00  0.00    -0.232 N 
ATOM     18  C   UNL     1       5.925   2.544  -0.040  0.00  0.00    +0.258 C 
ATOM     19  O   UNL     1       5.714   3.738  -0.032  0.00  0.00    -0.271 OA
ATOM     20  H   UNL     1       5.084   0.594  -0.042  0.00  0.00    +0.173 HD
BRANCH  18  21
ATOM     21  C   UNL     1       7.341   2.029  -0.055  0.00  0.00    +0.205 C 
ATOM     22  C   UNL     1       7.650   1.263   1.250  0.00  0.00    +0.043 C 
ATOM     23  C   UNL     1       9.117   1.632   1.564  0.00  0.00    +0.031 C 
ATOM     24  C   UNL     1       9.522   2.576   0.410  0.00  0.00    +0.161 C 
ATOM     25  O   UNL     1       8.277   3.129  -0.068  0.00  0.00    -0.367 OA
ENDBRANCH  18  21
ENDBRANCH   3  17
TORSDOF 3
