REMARK  Name = ZINC35427400
REMARK  6 active torsions:
REMARK  status: ('A' for Active; 'I' for Inactive)
REMARK    1  A    between atoms: C_1  and  C_2
REMARK    2  A    between atoms: C_2  and  N_3
REMARK    3  A    between atoms: C_17  and  C_31
REMARK    4  A    between atoms: N_23  and  C_24
REMARK    5  A    between atoms: C_24  and  C_25
REMARK    6  A    between atoms: C_34  and  C_37
REMARK                            x       y       z     vdW  Elec       q    Type
REMARK                         _______ _______ _______ _____ _____    ______ ____
ROOT
ATOM      1  N   UNL     1      -0.540  -0.691  -1.942  0.00  0.00    +0.383 N 
ATOM      2  C   UNL     1      -0.698  -2.133  -2.173  0.00  0.00    -0.074 C 
ATOM      3  C   UNL     1       0.030  -2.549  -3.454  0.00  0.00    +0.018 C 
ATOM      4  C   UNL     1       1.468  -2.045  -3.365  0.00  0.00    -0.034 A 
ATOM      5  C   UNL     1       2.505  -2.538  -4.180  0.00  0.00    +0.004 A 
ATOM      6  C   UNL     1       3.738  -1.990  -3.997  0.00  0.00    +0.090 A 
ATOM      7  S   UNL     1       3.514  -0.813  -2.698  0.00  0.00    -0.077 S 
ATOM      8  C   UNL     1       1.777  -1.078  -2.460  0.00  0.00    -0.021 A 
ATOM      9  C   UNL     1       0.842  -0.413  -1.505  0.00  0.00    -0.035 C 
ATOM     10  N   UNL     1       4.862  -2.337  -4.737  0.00  0.00    -0.312 N 
ATOM     11  C   UNL     1       6.132  -2.611  -4.360  0.00  0.00    +0.092 A 
ATOM     12  C   UNL     1       6.829  -2.963  -5.465  0.00  0.00    +0.020 A 
ATOM     13  C   UNL     1       5.950  -2.883  -6.566  0.00  0.00    +0.025 A 
ATOM     14  C   UNL     1       4.760  -2.475  -6.102  0.00  0.00    +0.049 A 
ATOM     15  C   UNL     1       3.503  -2.153  -6.854  0.00  0.00    +0.155 C 
ATOM     16  N   UNL     1       2.433  -3.146  -6.590  0.00  0.00    -0.269 N 
ATOM     17  C   UNL     1       2.304  -3.632  -5.205  0.00  0.00    +0.148 C 
ATOM     18  C   UNL     1       1.618  -3.582  -7.571  0.00  0.00    +0.304 C 
ATOM     19  O   UNL     1       1.750  -3.162  -8.704  0.00  0.00    -0.253 OA
ATOM     20  N   UNL     1       0.656  -4.485  -7.295  0.00  0.00    -0.295 N 
ATOM     21  H   UNL     1       0.550  -4.821  -6.391  0.00  0.00    +0.151 HD
ATOM     22  H   UNL     1      -0.730  -0.190  -2.797  0.00  0.00    -0.081 HD
ENDROOT
BRANCH  15  23
ATOM     23  C   UNL     1       3.018  -0.789  -6.438  0.00  0.00    -0.021 A 
ATOM     24  C   UNL     1       3.928   0.214  -6.162  0.00  0.00    +0.006 A 
ATOM     25  C   UNL     1       3.483   1.466  -5.780  0.00  0.00    +0.004 A 
ATOM     26  C   UNL     1       2.128   1.715  -5.675  0.00  0.00    -0.050 A 
ATOM     27  C   UNL     1       1.217   0.713  -5.952  0.00  0.00    +0.004 A 
ATOM     28  C   UNL     1       1.662  -0.538  -6.337  0.00  0.00    +0.006 A 
ATOM     29  C   UNL     1       1.642   3.080  -5.258  0.00  0.00    +0.044 C 
ENDBRANCH  15  23
BRANCH   1  31
ATOM     30  C   UNL     1      -1.403   1.264  -0.746  0.00  0.00    -0.017 C 
ATOM     31  C   UNL     1      -1.480  -0.256  -0.900  0.00  0.00    -0.082 C 
ENDBRANCH   1  31
BRANCH  20  32
ATOM     32  C   UNL     1      -0.231  -4.960  -8.360  0.00  0.00    +0.141 C 
BRANCH  32  33
ATOM     33  C   UNL     1      -1.209  -5.956  -7.793  0.00  0.00    -0.030 A 
ATOM     34  C   UNL     1      -0.891  -7.301  -7.769  0.00  0.00    +0.005 A 
ATOM     35  C   UNL     1      -1.788  -8.214  -7.249  0.00  0.00    +0.000 A 
ATOM     36  C   UNL     1      -3.004  -7.783  -6.753  0.00  0.00    +0.000 A 
ATOM     37  C   UNL     1      -3.322  -6.438  -6.776  0.00  0.00    +0.000 A 
ATOM     38  C   UNL     1      -2.423  -5.524  -7.292  0.00  0.00    +0.005 A 
ENDBRANCH  32  33
ENDBRANCH  20  32
TORSDOF 4
