REMARK  Name = ZINC08789596
REMARK  12 active torsions:
REMARK  status: ('A' for Active; 'I' for Inactive)
REMARK    1  A    between atoms: C_1  and  C_2
REMARK    2  A    between atoms: C_2  and  C_4
REMARK    3  A    between atoms: C_8  and  C_40
REMARK    4  A    between atoms: C_17  and  C_39
REMARK    5  A    between atoms: C_20  and  O_35
REMARK    6  A    between atoms: C_22  and  C_33
REMARK    7  A    between atoms: C_22  and  C_34
REMARK    8  A    between atoms: C_27  and  C_32
REMARK    9  A    between atoms: C_28  and  C_31
REMARK   10  A    between atoms: O_35  and  C_36
REMARK   11  A    between atoms: C_36  and  C_38
REMARK   12  A    between atoms: C_40  and  O_41
REMARK                            x       y       z     vdW  Elec       q    Type
REMARK                         _______ _______ _______ _____ _____    ______ ____
ROOT
ATOM      1  C   UNL     1       1.923   2.397  -0.857  0.00  0.00    +0.018 C 
ATOM      2  C   UNL     1       2.266   3.885  -0.576  0.00  0.00    +0.009 C 
ATOM      3  C   UNL     1       1.327   4.329   0.581  0.00  0.00    +0.010 C 
ATOM      4  C   UNL     1       0.112   3.404   0.374  0.00  0.00    -0.002 C 
ATOM      5  C   UNL     1       0.826   2.047   0.148  0.00  0.00    +0.008 C 
ATOM      6  C   UNL     1      -0.199   1.015  -0.259  0.00  0.00    -0.000 C 
ATOM      7  C   UNL     1       0.455  -0.323  -0.598  0.00  0.00    +0.005 C 
ATOM      8  C   UNL     1      -0.618  -1.348  -0.986  0.00  0.00    +0.005 C 
ATOM      9  C   UNL     1      -1.600  -1.509   0.174  0.00  0.00    +0.002 C 
ATOM     10  C   UNL     1      -2.534  -2.687  -0.037  0.00  0.00    -0.025 C 
ATOM     11  C   UNL     1      -1.704  -3.970  -0.208  0.00  0.00    +0.011 C 
ATOM     12  C   UNL     1      -1.098  -4.394   1.126  0.00  0.00    +0.046 C 
ATOM     13  C   UNL     1      -2.252  -4.785   2.048  0.00  0.00    +0.182 C 
ATOM     14  C   UNL     1      -3.119  -3.557   2.338  0.00  0.00    +0.005 C 
ATOM     15  C   UNL     1      -3.546  -2.825   1.086  0.00  0.00    +0.004 C 
ATOM     16  C   UNL     1      -4.239  -1.504   1.385  0.00  0.00    +0.005 C 
ATOM     17  C   UNL     1      -3.306  -0.325   1.593  0.00  0.00    +0.008 C 
ATOM     18  C   UNL     1      -2.274  -0.183   0.480  0.00  0.00    -0.023 C 
ATOM     19  C   UNL     1      -1.202   0.844   0.890  0.00  0.00    -0.023 C 
ATOM     20  C   UNL     1      -1.851   2.173   1.265  0.00  0.00    +0.008 C 
ATOM     21  C   UNL     1      -0.811   3.263   1.564  0.00  0.00    +0.010 C 
ATOM     22  C   UNL     1      -0.467   0.335   2.135  0.00  0.00    +0.012 C 
ATOM     23  C   UNL     1      -2.998   0.384  -0.753  0.00  0.00    +0.012 C 
ATOM     24  C   UNL     1      -4.390  -4.080   3.049  0.00  0.00    +0.015 C 
ATOM     25  C   UNL     1      -2.376  -2.667   3.334  0.00  0.00    +0.015 C 
ATOM     26  C   UNL     1      -3.313  -2.557  -1.364  0.00  0.00    +0.012 C 
ENDROOT
BRANCH   1  28
ATOM     27  C   UNL     1       3.852   1.617   0.722  0.00  0.00    +0.039 C 
ATOM     28  C   UNL     1       3.147   1.549  -0.608  0.00  0.00    -0.076 C 
ATOM     29  C   UNL     1       3.596   0.755  -1.548  0.00  0.00    +0.007 C 
ENDBRANCH   1  28
BRANCH  13  30
ATOM     30  O   UNL     1      -1.722  -5.307   3.295  0.00  0.00    -0.461 OA
BRANCH  30  31
ATOM     31  C   UNL     1      -1.495  -6.628   3.356  0.00  0.00    +0.304 C 
ATOM     32  O   UNL     1      -1.732  -7.327   2.398  0.00  0.00    -0.251 OA
ATOM     33  C   UNL     1      -0.945  -7.242   4.618  0.00  0.00    +0.136 C 
ENDBRANCH  30  31
ENDBRANCH  13  30
BRANCH   4  34
ATOM     34  C   UNL     1      -0.657   3.867  -0.864  0.00  0.00    +0.163 C 
BRANCH  34  35
ATOM     35  O   UNL     1      -1.290   5.119  -0.591  0.00  0.00    -0.394 OA
ATOM     36  H   UNL     1      -1.797   5.473  -1.334  0.00  0.00    +0.209 HD
ENDBRANCH  34  35
ENDBRANCH   4  34
TORSDOF 5
