REMARK  Name = ZINC50650152
REMARK  4 active torsions:
REMARK  status: ('A' for Active; 'I' for Inactive)
REMARK    1  A    between atoms: C_3  and  N_18
REMARK    2  A    between atoms: C_6  and  S_7
REMARK    3  A    between atoms: S_7  and  N_10
REMARK    4  A    between atoms: N_10  and  C_11
REMARK                            x       y       z     vdW  Elec       q    Type
REMARK                         _______ _______ _______ _____ _____    ______ ____
ROOT
ATOM      1  S   UNL     1      -1.506  -0.915   0.012  0.00  0.00    +0.094 S 
ATOM      2  O   UNL     1      -1.205  -2.194   0.553  0.00  0.00    -0.148 OA
ATOM      3  O   UNL     1      -2.492  -0.061   0.577  0.00  0.00    -0.148 OA
ENDROOT
BRANCH   1   9
ATOM      4  C   UNL     1      -0.017   1.384   0.010  0.00  0.00    +0.033 A 
ATOM      5  C   UNL     1       1.190   2.061   0.002  0.00  0.00    +0.043 A 
ATOM      6  C   UNL     1       2.374   1.332  -0.013  0.00  0.00    +0.094 A 
ATOM      7  N   UNL     1       2.350   0.008  -0.020  0.00  0.00    -0.348 N 
ATOM      8  C   UNL     1       1.215  -0.664  -0.013  0.00  0.00    +0.113 A 
ATOM      9  C   UNL     1       0.002  -0.004   0.002  0.00  0.00    +0.126 A 
ATOM     10  H   UNL     1       3.189  -0.480  -0.031  0.00  0.00    +0.167 HD
BRANCH   6  11
ATOM     11  N   UNL     1       3.594   1.999  -0.022  0.00  0.00    -0.345 N 
ATOM     12  H   UNL     1       3.616   2.969  -0.017  0.00  0.00    +0.144 HD
ATOM     13  H   UNL     1       4.422   1.495  -0.033  0.00  0.00    +0.144 HD
ENDBRANCH   6  11
ENDBRANCH   1   9
BRANCH   1  14
ATOM     14  N   UNL     1      -1.941  -1.159  -1.567  0.00  0.00    -0.078 NA
BRANCH  14  15
ATOM     15  C   UNL     1      -3.105  -1.858  -1.867  0.00  0.00    +0.163 A 
ATOM     16  C   UNL     1      -3.462  -2.065  -3.196  0.00  0.00    +0.048 A 
ATOM     17  C   UNL     1      -4.622  -2.762  -3.481  0.00  0.00    +0.020 A 
ATOM     18  C   UNL     1      -5.390  -3.231  -2.423  0.00  0.00    +0.036 A 
ATOM     19  C   UNL     1      -4.976  -2.989  -1.127  0.00  0.00    +0.128 A 
ATOM     20  N   UNL     1      -3.861  -2.326  -0.886  0.00  0.00    -0.236 NA
ATOM     21 BR   UNL     1      -6.986  -4.189  -2.752  0.00  0.00    -0.049 Br
ENDBRANCH  14  15
ENDBRANCH   1  14
TORSDOF 4
