REMARK  Name = ZINC01820469
REMARK  7 active torsions:
REMARK  status: ('A' for Active; 'I' for Inactive)
REMARK    1  A    between atoms: C_1  and  C_2
REMARK    2  A    between atoms: C_6  and  N_8
REMARK    3  A    between atoms: C_9  and  C_11
REMARK    4  A    between atoms: C_11  and  S_12
REMARK    5  A    between atoms: S_12  and  C_13
REMARK    6  A    between atoms: N_19  and  C_20
REMARK    7  A    between atoms: C_20  and  C_21
REMARK                            x       y       z     vdW  Elec       q    Type
REMARK                         _______ _______ _______ _____ _____    ______ ____
ROOT
ATOM      1  C   UNL     1      -0.033   4.229   0.419  0.00  0.00    +0.173 A 
ATOM      2  N   UNL     1       1.094   3.575   0.219  0.00  0.00    -0.223 NA
ATOM      3  C   UNL     1       1.108   2.239   0.138  0.00  0.00    +0.083 A 
ATOM      4  C   UNL     1      -0.069   1.525   0.293  0.00  0.00    +0.050 A 
ATOM      5  C   UNL     1      -1.263   2.227   0.505  0.00  0.00    +0.259 A 
ATOM      6  O   UNL     1      -2.320   1.632   0.641  0.00  0.00    -0.267 OA
ATOM      7  N   UNL     1      -1.220   3.575   0.554  0.00  0.00    -0.280 N 
ATOM      8  C   UNL     1      -0.064   0.021   0.239  0.00  0.00    +0.007 C 
ATOM      9  C   UNL     1      -1.455  -0.473  -0.171  0.00  0.00    +0.012 C 
ATOM     10  C   UNL     1      -1.457  -2.002  -0.222  0.00  0.00    +0.001 C 
ATOM     11  C   UNL     1      -1.111  -2.558   1.161  0.00  0.00    +0.000 C 
ATOM     12  C   UNL     1       0.275  -2.062   1.577  0.00  0.00    +0.001 C 
ATOM     13  C   UNL     1       0.277  -0.533   1.625  0.00  0.00    +0.012 C 
ATOM     14  C   UNL     1       0.967  -0.476  -0.772  0.00  0.00    +0.047 C 
ATOM     15  C   UNL     1       2.303   0.175  -0.536  0.00  0.00    -0.037 A 
ATOM     16  C   UNL     1       2.367   1.506  -0.124  0.00  0.00    +0.004 A 
ATOM     17  C   UNL     1       3.602   2.119   0.064  0.00  0.00    +0.010 A 
ATOM     18  C   UNL     1       4.762   1.398  -0.140  0.00  0.00    +0.001 A 
ATOM     19  C   UNL     1       4.695   0.073  -0.531  0.00  0.00    +0.000 A 
ATOM     20  C   UNL     1       3.469  -0.537  -0.730  0.00  0.00    +0.004 A 
ENDROOT
BRANCH   1  21
ATOM     21  S   UNL     1      -0.001   5.988   0.515  0.00  0.00    -0.078 S 
BRANCH  21  22
ATOM     22  C   UNL     1       1.768   6.285   0.276  0.00  0.00    +0.173 C 
BRANCH  22  24
ATOM     23  N   UNL     1       3.297   8.226   0.166  0.00  0.00    -0.285 N 
ATOM     24  C   UNL     1       2.040   7.766   0.321  0.00  0.00    +0.227 C 
ATOM     25  O   UNL     1       1.127   8.545   0.498  0.00  0.00    -0.275 OA
ATOM     26  H   UNL     1       4.037   7.602   0.102  0.00  0.00    +0.155 HD
BRANCH  23  32
ATOM     27  C   UNL     1       6.221  12.067   1.099  0.00  0.00    +0.044 C 
ATOM     28  C   UNL     1       4.944  11.492   0.542  0.00  0.00    -0.049 A 
ATOM     29  C   UNL     1       4.006  12.326  -0.038  0.00  0.00    +0.003 A 
ATOM     30  C   UNL     1       2.833  11.802  -0.550  0.00  0.00    +0.002 A 
ATOM     31  C   UNL     1       2.598  10.443  -0.489  0.00  0.00    +0.023 A 
ATOM     32  C   UNL     1       3.535   9.603   0.097  0.00  0.00    +0.034 A 
ATOM     33  C   UNL     1       4.712  10.132   0.611  0.00  0.00    +0.026 A 
ENDBRANCH  23  32
ENDBRANCH  22  24
ENDBRANCH  21  22
ENDBRANCH   1  21
BRANCH   7  34
ATOM     34  C   UNL     1      -2.454   4.339   0.756  0.00  0.00    +0.201 C 
BRANCH  34  35
ATOM     35  C   UNL     1      -3.070   4.661  -0.581  0.00  0.00    +0.125 A 
ATOM     36  C   UNL     1      -3.957   3.896  -1.243  0.00  0.00    +0.046 A 
ATOM     37  C   UNL     1      -4.268   4.575  -2.444  0.00  0.00    +0.041 A 
ATOM     38  C   UNL     1      -3.546   5.711  -2.447  0.00  0.00    +0.195 A 
ATOM     39  O   UNL     1      -2.823   5.757  -1.316  0.00  0.00    -0.466 OA
ENDBRANCH  34  35
ENDBRANCH   7  34
TORSDOF 6
