REMARK  Name = ZINC09598423
REMARK  10 active torsions:
REMARK  status: ('A' for Active; 'I' for Inactive)
REMARK    1  A    between atoms: C_1  and  C_2
REMARK    2  A    between atoms: C_4  and  N_27
REMARK    3  A    between atoms: C_8  and  N_11
REMARK    4  A    between atoms: C_12  and  C_14
REMARK    5  A    between atoms: C_14  and  C_15
REMARK    6  A    between atoms: C_15  and  C_16
REMARK    7  A    between atoms: N_18  and  C_19
REMARK    8  A    between atoms: C_19  and  C_20
REMARK    9  A    between atoms: C_29  and  C_36
REMARK   10  A    between atoms: C_32  and  C_35
REMARK                            x       y       z     vdW  Elec       q    Type
REMARK                         _______ _______ _______ _____ _____    ______ ____
ROOT
ATOM      1  C   UNL     1       2.486   4.319   0.046  0.00  0.00    +0.044 C 
ATOM      2  C   UNL     1       1.202   3.530   0.048  0.00  0.00    -0.038 A 
ATOM      3  C   UNL     1      -0.006   4.161   0.070  0.00  0.00    +0.045 A 
ATOM      4  C   UNL     1      -1.188   3.406   0.072  0.00  0.00    +0.099 A 
ATOM      5  C   UNL     1      -0.009   1.415   0.032  0.00  0.00    +0.048 A 
ATOM      6  C   UNL     1       1.219   2.120   0.028  0.00  0.00    +0.003 A 
ATOM      7  C   UNL     1       2.429   1.409   0.006  0.00  0.00    +0.033 A 
ATOM      8  C   UNL     1       2.405   0.032  -0.014  0.00  0.00    +0.034 A 
ATOM      9  C   UNL     1       1.189  -0.659  -0.010  0.00  0.00    +0.025 A 
ATOM     10  C   UNL     1       0.005   0.009   0.012  0.00  0.00    +0.028 A 
ATOM     11  N   UNL     1      -1.231   2.051   0.048  0.00  0.00    -0.343 N 
ATOM     12  H   UNL     1      -2.118   1.532   0.041  0.00  0.00    +0.167 HD
ENDROOT
BRANCH   4  13
ATOM     13  N   UNL     1      -2.410   4.062   0.094  0.00  0.00    -0.316 N 
ATOM     14  C   UNL     1      -2.497   4.974   1.242  0.00  0.00    +0.109 C 
ATOM     15  C   UNL     1      -3.792   5.785   1.154  0.00  0.00    +0.004 C 
ATOM     16  C   UNL     1      -4.988   4.828   1.147  0.00  0.00    +0.009 C 
ATOM     17  C   UNL     1      -4.848   3.857  -0.029  0.00  0.00    +0.004 C 
ATOM     18  C   UNL     1      -3.522   3.103   0.093  0.00  0.00    +0.109 C 
ATOM     19  C   UNL     1      -6.007   2.859  -0.009  0.00  0.00    +0.009 C 
ATOM     20  C   UNL     1      -3.792   6.611  -0.134  0.00  0.00    +0.009 C 
ENDBRANCH   4  13
BRANCH   8  21
ATOM     21  N   UNL     1       3.609  -0.682  -0.037  0.00  0.00    -0.285 N 
ATOM     22  C   UNL     1       4.668  -0.196  -0.714  0.00  0.00    +0.218 C 
ATOM     23  O   UNL     1       4.606   0.898  -1.233  0.00  0.00    -0.275 OA
ATOM     24  H   UNL     1       3.681  -1.527   0.434  0.00  0.00    +0.155 HD
BRANCH  22  25
ATOM     25  C   UNL     1       5.930  -1.012  -0.825  0.00  0.00    +0.105 C 
BRANCH  25  26
ATOM     26  C   UNL     1       6.969  -0.237  -1.638  0.00  0.00    +0.105 C 
BRANCH  26  27
ATOM     27  C   UNL     1       8.231  -1.052  -1.750  0.00  0.00    +0.214 C 
ATOM     28  O   UNL     1       8.294  -2.147  -1.230  0.00  0.00    -0.276 OA
ATOM     29  N   UNL     1       9.290  -0.566  -2.426  0.00  0.00    -0.311 N 
ATOM     30  H   UNL     1       9.240   0.309  -2.842  0.00  0.00    +0.149 HD
BRANCH  29  31
ATOM     31  C   UNL     1      10.517  -1.359  -2.535  0.00  0.00    +0.139 C 
BRANCH  31  32
ATOM     32  C   UNL     1      11.540  -0.596  -3.335  0.00  0.00    -0.030 A 
ATOM     33  C   UNL     1      11.600  -0.751  -4.708  0.00  0.00    +0.008 A 
ATOM     34  C   UNL     1      12.534  -0.048  -5.444  0.00  0.00    +0.038 A 
ATOM     35  C   UNL     1      13.418   0.806  -4.804  0.00  0.00    +0.123 A 
ATOM     36  C   UNL     1      13.361   0.957  -3.429  0.00  0.00    +0.038 A 
ATOM     37  C   UNL     1      12.422   0.256  -2.696  0.00  0.00    +0.008 A 
ATOM     38  F   UNL     1      14.335   1.490  -5.522  0.00  0.00    -0.205 F 
ENDBRANCH  31  32
ENDBRANCH  29  31
ENDBRANCH  26  27
ENDBRANCH  25  26
ENDBRANCH  22  25
ENDBRANCH   8  21
TORSDOF 7
