REMARK  Name = ZINC21239914
REMARK  10 active torsions:
REMARK  status: ('A' for Active; 'I' for Inactive)
REMARK    1  A    between atoms: C_1  and  C_2
REMARK    2  A    between atoms: C_2  and  C_3
REMARK    3  A    between atoms: C_2  and  C_4
REMARK    4  A    between atoms: C_4  and  O_5
REMARK    5  A    between atoms: O_5  and  C_6
REMARK    6  A    between atoms: C_9  and  C_12
REMARK    7  A    between atoms: C_17  and  C_27
REMARK    8  A    between atoms: C_30  and  N_33
REMARK    9  A    between atoms: N_33  and  C_34
REMARK   10  A    between atoms: N_33  and  C_35
REMARK                            x       y       z     vdW  Elec       q    Type
REMARK                         _______ _______ _______ _____ _____    ______ ____
ROOT
ATOM      1  C   UNL     1      -4.929   5.618  -1.453  0.00  0.00    +0.032 C 
ATOM      2  C   UNL     1      -4.235   4.325  -1.030  0.00  0.00    +0.059 C 
ATOM      3  C   UNL     1      -2.770   4.598  -0.730  0.00  0.00    +0.017 C 
ATOM      4  C   UNL     1      -2.101   5.544  -1.409  0.00  0.00    +0.036 C 
ATOM      5  C   UNL     1      -0.643   5.899  -1.233  0.00  0.00    +0.136 C 
ATOM      6  N   UNL     1      -0.024   5.315  -0.062  0.00  0.00    -0.331 N 
ATOM      7  C   UNL     1       0.121   3.935   0.063  0.00  0.00    +0.049 A 
ATOM      8  C   UNL     1       1.371   3.336   0.047  0.00  0.00    +0.025 A 
ATOM      9  C   UNL     1       1.465   1.957   0.111  0.00  0.00    +0.002 A 
ATOM     10  C   UNL     1       0.324   1.179   0.176  0.00  0.00    +0.002 A 
ATOM     11  C   UNL     1      -0.926   1.774   0.190  0.00  0.00    +0.025 A 
ATOM     12  C   UNL     1      -1.021   3.154   0.158  0.00  0.00    +0.052 A 
ATOM     13  N   UNL     1      -2.240   3.819   0.248  0.00  0.00    -0.316 N 
ATOM     14  C   UNL     1      -2.763   6.318  -2.391  0.00  0.00    +0.163 C 
ATOM     15  O   UNL     1      -2.129   7.157  -3.001  0.00  0.00    -0.292 OA
ATOM     16  C   UNL     1      -4.218   6.142  -2.706  0.00  0.00    +0.088 C 
ATOM     17  H   UNL     1       0.342   5.964   0.747  0.00  0.00    +0.147 HD
ATOM     18  H   UNL     1      -2.782   3.679   1.194  0.00  0.00    +0.152 HD
ENDROOT
BRANCH   1  22
ATOM     19  C   UNL     1      -9.036   4.835  -2.338  0.00  0.00    +0.121 A 
ATOM     20  C   UNL     1      -8.700   5.759  -1.359  0.00  0.00    +0.046 A 
ATOM     21  C   UNL     1      -7.371   6.010  -1.074  0.00  0.00    +0.007 A 
ATOM     22  C   UNL     1      -6.377   5.342  -1.765  0.00  0.00    -0.043 A 
ATOM     23  C   UNL     1      -6.709   4.425  -2.745  0.00  0.00    +0.007 A 
ATOM     24  C   UNL     1      -8.036   4.166  -3.029  0.00  0.00    +0.046 A 
BRANCH  19  25
ATOM     25  O   UNL     1     -10.342   4.586  -2.619  0.00  0.00    -0.492 OA
BRANCH  25  26
ATOM     26  C   UNL     1     -10.613   3.623  -3.639  0.00  0.00    +0.232 C 
BRANCH  26  28
ATOM     27  C   UNL     1     -12.417   2.541  -4.987  0.00  0.00    +0.010 C 
ATOM     28  C   UNL     1     -12.126   3.477  -3.813  0.00  0.00    +0.020 C 
ATOM     29  C   UNL     1     -12.733   2.895  -2.535  0.00  0.00    +0.010 C 
ENDBRANCH  26  28
ENDBRANCH  25  26
ENDBRANCH  19  25
ENDBRANCH   1  22
BRANCH   5  30
ATOM     30  C   UNL     1       0.109   5.435  -2.454  0.00  0.00    -0.023 A 
ATOM     31  C   UNL     1       0.699   6.362  -3.294  0.00  0.00    +0.007 A 
ATOM     32  C   UNL     1       1.394   5.941  -4.410  0.00  0.00    +0.023 A 
ATOM     33  C   UNL     1       1.490   4.585  -4.695  0.00  0.00    +0.029 A 
ATOM     34  C   UNL     1       0.892   3.656  -3.853  0.00  0.00    +0.023 A 
ATOM     35  C   UNL     1       0.203   4.085  -2.735  0.00  0.00    +0.007 A 
BRANCH  33  36
ATOM     36  N   UNL     1       2.188   4.155  -5.827  0.00  0.00    -0.336 N 
ATOM     37  C   UNL     1       2.289   2.724  -6.125  0.00  0.00    +0.129 C 
ATOM     38  C   UNL     1       2.819   5.135  -6.714  0.00  0.00    +0.129 C 
ENDBRANCH  33  36
ENDBRANCH   5  30
TORSDOF 6
