REMARK  Name = ZINC45808404
REMARK  10 active torsions:
REMARK  status: ('A' for Active; 'I' for Inactive)
REMARK    1  A    between atoms: C_1  and  C_2
REMARK    2  A    between atoms: N_5  and  S_11
REMARK    3  A    between atoms: C_7  and  C_10
REMARK    4  A    between atoms: S_11  and  N_14
REMARK    5  A    between atoms: N_14  and  C_15
REMARK    6  A    between atoms: C_15  and  C_16
REMARK    7  A    between atoms: C_16  and  C_18
REMARK    8  A    between atoms: C_16  and  N_26
REMARK    9  A    between atoms: C_21  and  O_24
REMARK   10  A    between atoms: O_24  and  C_25
REMARK                            x       y       z     vdW  Elec       q    Type
REMARK                         _______ _______ _______ _____ _____    ______ ____
ROOT
ATOM      1  C   UNL     1       0.418  -5.539  -2.634  0.00  0.00    -0.022 C 
ENDROOT
BRANCH   1   2
ATOM      2  N   UNL     1      -0.562  -6.334  -3.387  0.00  0.00    +0.385 N 
ATOM      3  C   UNL     1       0.065  -6.849  -4.610  0.00  0.00    -0.078 C 
ATOM      4  C   UNL     1      -0.926  -7.744  -5.357  0.00  0.00    -0.019 C 
ATOM      5  C   UNL     1      -2.168  -6.927  -5.724  0.00  0.00    -0.004 C 
ATOM      6  C   UNL     1      -2.771  -6.333  -4.448  0.00  0.00    -0.019 C 
ATOM      7  C   UNL     1      -1.712  -5.490  -3.734  0.00  0.00    -0.078 C 
ATOM      8  H   UNL     1      -0.873  -7.108  -2.819  0.00  0.00    -0.081 HD
ENDBRANCH   1   2
BRANCH   1   9
ATOM      9  C   UNL     1       1.599  -6.404  -2.278  0.00  0.00    -0.059 A 
ATOM     10  C   UNL     1       1.401  -7.714  -1.883  0.00  0.00    +0.005 A 
ATOM     11  C   UNL     1       2.482  -8.509  -1.556  0.00  0.00    +0.046 A 
ATOM     12  C   UNL     1       3.768  -7.992  -1.623  0.00  0.00    +0.120 A 
ATOM     13  C   UNL     1       3.964  -6.677  -2.020  0.00  0.00    +0.046 A 
ATOM     14  C   UNL     1       2.880  -5.888  -2.352  0.00  0.00    +0.005 A 
BRANCH  12  15
ATOM     15  O   UNL     1       4.833  -8.772  -1.301  0.00  0.00    -0.495 OA
ATOM     16  C   UNL     1       6.127  -8.173  -1.394  0.00  0.00    +0.277 C 
ENDBRANCH  12  15
ENDBRANCH   1   9
BRANCH   1  17
ATOM     17  C   UNL     1      -0.231  -5.009  -1.354  0.00  0.00    +0.096 C 
BRANCH  17  18
ATOM     18  N   UNL     1       0.728  -4.172  -0.630  0.00  0.00    -0.181 NA
ATOM     19  H   UNL     1       1.521  -3.842  -1.082  0.00  0.00    +0.149 HD
BRANCH  18  20
ATOM     20  S   UNL     1       0.460  -3.788   0.958  0.00  0.00    +0.097 S 
ATOM     21  O   UNL     1      -0.870  -3.294   1.037  0.00  0.00    -0.141 OA
ATOM     22  O   UNL     1       1.581  -3.029   1.387  0.00  0.00    -0.141 OA
BRANCH  20  26
ATOM     23  C   UNL     1      -1.937  -7.137   3.980  0.00  0.00    +0.039 C 
ATOM     24  C   UNL     1      -0.752  -6.228   3.645  0.00  0.00    +0.131 C 
ATOM     25  C   UNL     1      -0.753  -5.919   2.143  0.00  0.00    +0.142 C 
ATOM     26  N   UNL     1       0.491  -5.204   1.816  0.00  0.00    -0.162 NA
ATOM     27  C   UNL     1       1.763  -5.786   2.273  0.00  0.00    +0.142 C 
ATOM     28  C   UNL     1       1.641  -6.101   3.768  0.00  0.00    +0.131 C 
ATOM     29  O   UNL     1       0.468  -6.887   3.990  0.00  0.00    -0.371 OA
ATOM     30  C   UNL     1       1.539  -4.795   4.559  0.00  0.00    +0.039 C 
ENDBRANCH  20  26
ENDBRANCH  18  20
ENDBRANCH  17  18
ENDBRANCH   1  17
TORSDOF 7
