REMARK  Name = ZINC35518688
REMARK  18 active torsions:
REMARK  status: ('A' for Active; 'I' for Inactive)
REMARK    1  A    between atoms: C_1  and  C_2
REMARK    2  A    between atoms: C_2  and  C_3
REMARK    3  A    between atoms: C_2  and  C_4
REMARK    4  A    between atoms: C_2  and  C_5
REMARK    5  A    between atoms: C_8  and  C_11
REMARK    6  A    between atoms: C_11  and  N_12
REMARK    7  A    between atoms: N_12  and  C_13
REMARK    8  A    between atoms: C_13  and  C_14
REMARK    9  A    between atoms: C_14  and  C_15
REMARK   10  A    between atoms: C_25  and  C_27
REMARK   11  A    between atoms: C_27  and  N_28
REMARK   12  A    between atoms: N_28  and  C_29
REMARK   13  A    between atoms: N_28  and  C_34
REMARK   14  A    between atoms: C_29  and  C_30
REMARK   15  A    between atoms: C_30  and  C_31
REMARK   16  A    between atoms: C_31  and  O_32
REMARK   17  A    between atoms: O_32  and  C_33
REMARK   18  A    between atoms: C_34  and  C_35
REMARK                            x       y       z     vdW  Elec       q    Type
REMARK                         _______ _______ _______ _____ _____    ______ ____
ROOT
ATOM      1  N   UNL     1       2.408  -0.940  -5.766  0.00  0.00    -0.298 N 
ATOM      2  C   UNL     1       1.444  -1.103  -6.694  0.00  0.00    +0.199 C 
ATOM      3  O   UNL     1       0.674  -2.037  -6.612  0.00  0.00    -0.278 OA
ENDROOT
BRANCH   1   4
ATOM      4  C   UNL     1       2.526  -1.891  -4.658  0.00  0.00    +0.142 C 
BRANCH   4   8
ATOM      5  C   UNL     1       0.139  -0.562  -1.375  0.00  0.00    -0.042 A 
ATOM      6  C   UNL     1      -0.408  -1.392  -2.336  0.00  0.00    +0.004 A 
ATOM      7  C   UNL     1       0.364  -1.822  -3.399  0.00  0.00    +0.005 A 
ATOM      8  C   UNL     1       1.684  -1.422  -3.501  0.00  0.00    -0.030 A 
ATOM      9  C   UNL     1       2.230  -0.591  -2.540  0.00  0.00    +0.005 A 
ATOM     10  C   UNL     1       1.456  -0.158  -1.480  0.00  0.00    +0.004 A 
BRANCH   5  12
ATOM     11  C   UNL     1      -0.786   1.435  -0.231  0.00  0.00    +0.015 C 
ATOM     12  C   UNL     1      -0.704  -0.093  -0.217  0.00  0.00    -0.013 C 
ATOM     13  C   UNL     1      -0.069  -0.557   1.096  0.00  0.00    +0.015 C 
ATOM     14  C   UNL     1      -2.111  -0.681  -0.339  0.00  0.00    +0.015 C 
ENDBRANCH   5  12
ENDBRANCH   4   8
ENDBRANCH   1   4
BRANCH   1  15
ATOM     15  C   UNL     1       3.337   0.188  -5.865  0.00  0.00    +0.113 C 
BRANCH  15  16
ATOM     16  C   UNL     1       4.557  -0.227  -6.690  0.00  0.00    +0.056 C 
BRANCH  16  17
ATOM     17  C   UNL     1       5.513   0.933  -6.792  0.00  0.00    -0.021 A 
ATOM     18  C   UNL     1       5.580   1.827  -7.791  0.00  0.00    +0.087 A 
ATOM     19  N   UNL     1       6.571   2.736  -7.538  0.00  0.00    -0.360 N 
ATOM     20  H   UNL     1       6.809   3.477  -8.117  0.00  0.00    +0.165 HD
ATOM     21  C   UNL     1       7.182   2.442  -6.339  0.00  0.00    +0.047 A 
ATOM     22  C   UNL     1       6.542   1.304  -5.816  0.00  0.00    +0.003 A 
ATOM     23  C   UNL     1       6.952   0.775  -4.591  0.00  0.00    +0.010 A 
ATOM     24  C   UNL     1       7.973   1.369  -3.903  0.00  0.00    +0.001 A 
ATOM     25  C   UNL     1       8.604   2.495  -4.413  0.00  0.00    +0.002 A 
ATOM     26  C   UNL     1       8.222   3.027  -5.625  0.00  0.00    +0.026 A 
ENDBRANCH  16  17
ENDBRANCH  15  16
ENDBRANCH   1  15
BRANCH   2  27
ATOM     27  C   UNL     1       1.322  -0.124  -7.833  0.00  0.00    +0.019 C 
BRANCH  27  28
ATOM     28  N   UNL     1       0.117  -0.430  -8.615  0.00  0.00    +0.390 N 
ATOM     29  H   UNL     1       0.129  -1.402  -8.886  0.00  0.00    -0.081 HD
BRANCH  28  30
ATOM     30  C   UNL     1      -1.076  -0.164  -7.800  0.00  0.00    -0.075 C 
BRANCH  30  31
ATOM     31  C   UNL     1      -2.326  -0.600  -8.568  0.00  0.00    +0.009 C 
BRANCH  31  32
ATOM     32  C   UNL     1      -3.568  -0.322  -7.719  0.00  0.00    +0.157 C 
BRANCH  32  33
ATOM     33  O   UNL     1      -4.736  -0.729  -8.436  0.00  0.00    -0.383 OA
ATOM     34  C   UNL     1      -5.958  -0.513  -7.728  0.00  0.00    +0.193 C 
ENDBRANCH  32  33
ENDBRANCH  31  32
ENDBRANCH  30  31
ENDBRANCH  28  30
BRANCH  28  35
ATOM     35  C   UNL     1       0.086   0.413  -9.818  0.00  0.00    -0.003 C 
BRANCH  35  36
ATOM     36  C   UNL     1       1.240   0.049 -10.716  0.00  0.00    +0.089 A 
ATOM     37  C   UNL     1       1.251  -0.952 -11.615  0.00  0.00    +0.042 A 
ATOM     38  C   UNL     1       2.523  -0.934 -12.231  0.00  0.00    +0.041 A 
ATOM     39  C   UNL     1       3.213   0.076 -11.672  0.00  0.00    +0.195 A 
ATOM     40  O   UNL     1       2.429   0.672 -10.759  0.00  0.00    -0.470 OA
ENDBRANCH  35  36
ENDBRANCH  28  35
ENDBRANCH  27  28
ENDBRANCH   2  27
TORSDOF 14
