REMARK  Name = ZINC10067201
REMARK  12 active torsions:
REMARK  status: ('A' for Active; 'I' for Inactive)
REMARK    1  A    between atoms: C_1  and  C_2
REMARK    2  A    between atoms: C_2  and  N_57
REMARK    3  A    between atoms: C_3  and  C_4
REMARK    4  A    between atoms: C_3  and  N_57
REMARK    5  A    between atoms: C_5  and  C_6
REMARK    6  A    between atoms: C_5  and  N_57
REMARK    7  A    between atoms: C_6  and  N_7
REMARK    8  A    between atoms: C_12  and  C_18
REMARK    9  A    between atoms: C_14  and  C_17
REMARK   10  A    between atoms: C_19  and  C_21
REMARK   11  A    between atoms: C_22  and  C_23
REMARK   12  A    between atoms: C_26  and  N_28
REMARK                            x       y       z     vdW  Elec       q    Type
REMARK                         _______ _______ _______ _____ _____    ______ ____
ROOT
ATOM      1  N   UNL     1       2.057   8.168  -0.129  0.00  0.00    -0.249 N 
ATOM      2  C   UNL     1       2.136   6.793  -0.259  0.00  0.00    +0.168 A 
ATOM      3  N   UNL     1       1.163   5.914  -0.319  0.00  0.00    -0.224 NA
ATOM      4  C   UNL     1       1.388   4.588  -0.447  0.00  0.00    +0.081 A 
ATOM      5  C   UNL     1       0.438   3.544  -0.523  0.00  0.00    +0.032 A 
ATOM      6  C   UNL     1       0.839   2.241  -0.659  0.00  0.00    -0.048 A 
ATOM      7  C   UNL     1       2.182   1.898  -0.716  0.00  0.00    +0.008 A 
ATOM      8  C   UNL     1       3.139   2.894  -0.644  0.00  0.00    -0.034 A 
ATOM      9  C   UNL     1       2.747   4.202  -0.514  0.00  0.00    +0.044 A 
ATOM     10  S   UNL     1       3.590   5.761  -0.387  0.00  0.00    -0.052 S 
ATOM     11  C   UNL     1       4.604   2.544  -0.709  0.00  0.00    +0.045 C 
ATOM     12  C   UNL     1      -0.202   1.155  -0.744  0.00  0.00    +0.044 C 
ATOM     13  C   UNL     1       3.183   8.907  -0.086  0.00  0.00    +0.245 C 
ATOM     14  O   UNL     1       4.271   8.364  -0.161  0.00  0.00    -0.270 OA
ENDROOT
BRANCH  13  15
ATOM     15  C   UNL     1       3.102  10.312   0.047  0.00  0.00    +0.069 C 
ATOM     16  C   UNL     1       4.236  11.056   0.090  0.00  0.00    +0.020 C 
BRANCH  16  17
ATOM     17  C   UNL     1       4.155  12.463   0.223  0.00  0.00    +0.015 A 
ATOM     18  C   UNL     1       5.182  13.398   0.292  0.00  0.00    +0.018 A 
ATOM     19  C   UNL     1       4.818  14.715   0.417  0.00  0.00    +0.041 A 
ATOM     20  C   UNL     1       3.499  15.037   0.477  0.00  0.00    +0.164 A 
ATOM     21  S   UNL     1       2.708  13.499   0.352  0.00  0.00    -0.065 S 
BRANCH  20  22
ATOM     22  N   UNL     1       2.885  16.377   0.616  0.00  0.00    +0.063 N 
ATOM     23  O   UNL     1       3.593  17.366   0.692  0.00  0.00    -0.126 OA
ATOM     24  O   UNL     1       1.673  16.491   0.654  0.00  0.00    -0.126 OA
ENDBRANCH  20  22
ENDBRANCH  16  17
ENDBRANCH  13  15
BRANCH   1  25
ATOM     25  C   UNL     1       0.748   8.821  -0.039  0.00  0.00    +0.097 C 
BRANCH  25  26
ATOM     26  C   UNL     1       0.325   8.915   1.428  0.00  0.00    -0.059 C 
BRANCH  26  27
ATOM     27  N   UNL     1      -0.985   9.595   1.504  0.00  0.00    +0.380 N 
ATOM     28  H   UNL     1      -0.935  10.476   0.980  0.00  0.00    -0.082 HD
BRANCH  27  30
ATOM     29  C   UNL     1      -2.124   7.405   1.647  0.00  0.00    -0.017 C 
ATOM     30  C   UNL     1      -2.033   8.740   0.906  0.00  0.00    -0.082 C 
ENDBRANCH  27  30
BRANCH  27  31
ATOM     31  C   UNL     1      -1.320   9.892   2.913  0.00  0.00    -0.082 C 
ATOM     32  C   UNL     1      -2.472  10.898   2.943  0.00  0.00    -0.017 C 
ENDBRANCH  27  31
ENDBRANCH  26  27
ENDBRANCH  25  26
ENDBRANCH   1  25
TORSDOF 8
