REMARK  Name = ZINC27104754
REMARK  8 active torsions:
REMARK  status: ('A' for Active; 'I' for Inactive)
REMARK    1  A    between atoms: C_1  and  C_2
REMARK    2  A    between atoms: C_2  and  C_4
REMARK    3  A    between atoms: C_2  and  N_14
REMARK    4  A    between atoms: C_15  and  C_17
REMARK    5  A    between atoms: C_17  and  N_18
REMARK    6  A    between atoms: N_21  and  C_24
REMARK    7  A    between atoms: C_25  and  C_34
REMARK    8  A    between atoms: C_27  and  C_29
REMARK                            x       y       z     vdW  Elec       q    Type
REMARK                         _______ _______ _______ _____ _____    ______ ____
ROOT
ATOM      1  N   UNL     1      -0.745   1.550  -1.183  0.00  0.00    +0.387 N 
ATOM      2  C   UNL     1      -2.130   1.071  -1.077  0.00  0.00    -0.059 C 
ATOM      3  C   UNL     1      -2.781   1.669   0.172  0.00  0.00    +0.089 C 
ATOM      4  N   UNL     1      -2.002   1.285   1.358  0.00  0.00    -0.303 N 
ATOM      5  C   UNL     1      -0.617   1.764   1.253  0.00  0.00    +0.089 C 
ATOM      6  C   UNL     1       0.034   1.166   0.003  0.00  0.00    -0.059 C 
ATOM      7  H   UNL     1      -0.768   2.648  -1.232  0.00  0.00    -0.081 HD
ENDROOT
BRANCH   4   8
ATOM      8  C   UNL     1      -2.598   1.748   2.511  0.00  0.00    +0.227 A 
ATOM      9  C   UNL     1      -3.895   1.493   2.931  0.00  0.00    +0.201 A 
ATOM     10  N   UNL     1      -4.062   2.141   4.114  0.00  0.00    -0.194 NA
ATOM     11  C   UNL     1      -2.946   2.759   4.414  0.00  0.00    +0.266 A 
ATOM     12  O   UNL     1      -2.033   2.529   3.450  0.00  0.00    -0.417 OA
BRANCH  11  13
ATOM     13  C   UNL     1      -2.723   3.572   5.617  0.00  0.00    +0.189 A 
ATOM     14  C   UNL     1      -3.634   3.810   6.603  0.00  0.00    +0.055 A 
ATOM     15  C   UNL     1      -2.998   4.632   7.553  0.00  0.00    +0.042 A 
ATOM     16  C   UNL     1      -1.744   4.854   7.108  0.00  0.00    +0.196 A 
ATOM     17  O   UNL     1      -1.579   4.208   5.942  0.00  0.00    -0.458 OA
ENDBRANCH  11  13
BRANCH   9  18
ATOM     18  C   UNL     1      -4.872   0.699   2.248  0.00  0.00    +0.124 C 
ATOM     19  N   UNL     1      -5.647   0.069   1.706  0.00  0.00    -0.189 NA
ENDBRANCH   9  18
ENDBRANCH   4   8
BRANCH   1  20
ATOM     20  C   UNL     1      -0.109   1.057  -2.412  0.00  0.00    +0.019 C 
BRANCH  20  22
ATOM     21  N   UNL     1      -0.454   1.270  -4.852  0.00  0.00    -0.310 N 
ATOM     22  C   UNL     1      -0.785   1.673  -3.609  0.00  0.00    +0.197 C 
ATOM     23  O   UNL     1      -1.629   2.530  -3.454  0.00  0.00    -0.278 OA
ATOM     24  H   UNL     1       0.311   0.492  -4.992  0.00  0.00    +0.149 HD
BRANCH  21  26
ATOM     25  C   UNL     1      -0.390   3.162  -6.401  0.00  0.00    +0.033 C 
ATOM     26  C   UNL     1      -1.112   1.869  -6.016  0.00  0.00    +0.100 C 
BRANCH  26  27
ATOM     27  C   UNL     1      -1.063   0.903  -7.172  0.00  0.00    -0.027 A 
ATOM     28  C   UNL     1       0.079   0.160  -7.408  0.00  0.00    +0.006 A 
ATOM     29  C   UNL     1       0.114  -0.724  -8.466  0.00  0.00    +0.004 A 
ATOM     30  C   UNL     1      -0.984  -0.865  -9.305  0.00  0.00    -0.044 A 
ATOM     31  C   UNL     1      -2.120  -0.124  -9.072  0.00  0.00    -0.044 A 
ATOM     32  C   UNL     1      -2.156   0.762  -8.002  0.00  0.00    +0.009 A 
ATOM     33  C   UNL     1      -3.350  -0.232  -9.934  0.00  0.00    +0.035 C 
ATOM     34  C   UNL     1      -3.013  -0.889 -11.271  0.00  0.00    +0.005 C 
ATOM     35  C   UNL     1      -2.255  -2.192 -10.992  0.00  0.00    +0.005 C 
ATOM     36  C   UNL     1      -0.871  -1.837 -10.450  0.00  0.00    +0.035 C 
ENDBRANCH  26  27
ENDBRANCH  21  26
ENDBRANCH  20  22
ENDBRANCH   1  20
TORSDOF 7
