REMARK  Name = ZINC44884051
REMARK  12 active torsions:
REMARK  status: ('A' for Active; 'I' for Inactive)
REMARK    1  A    between atoms: C_1  and  C_2
REMARK    2  A    between atoms: C_2  and  O_3
REMARK    3  A    between atoms: O_3  and  C_4
REMARK    4  A    between atoms: C_7  and  N_10
REMARK    5  A    between atoms: N_10  and  C_11
REMARK    6  A    between atoms: N_10  and  S_28
REMARK    7  A    between atoms: C_11  and  C_12
REMARK    8  A    between atoms: N_14  and  C_15
REMARK    9  A    between atoms: C_15  and  C_16
REMARK   10  A    between atoms: C_21  and  N_22
REMARK   11  A    between atoms: C_26  and  C_27
REMARK   12  A    between atoms: S_28  and  C_31
REMARK                            x       y       z     vdW  Elec       q    Type
REMARK                         _______ _______ _______ _____ _____    ______ ____
ROOT
ATOM      1  N   UNL     1       1.135  -5.956   1.754  0.00  0.00    -0.194 N 
ENDROOT
BRANCH   1   5
ATOM      2  C   UNL     1       0.048  -1.947   1.412  0.00  0.00    +0.121 A 
ATOM      3  C   UNL     1      -0.820  -2.939   0.980  0.00  0.00    +0.047 A 
ATOM      4  C   UNL     1      -0.460  -4.268   1.093  0.00  0.00    +0.028 A 
ATOM      5  C   UNL     1       0.770  -4.610   1.639  0.00  0.00    +0.052 A 
ATOM      6  C   UNL     1       1.638  -3.615   2.071  0.00  0.00    +0.028 A 
ATOM      7  C   UNL     1       1.279  -2.287   1.952  0.00  0.00    +0.047 A 
BRANCH   2   8
ATOM      8  O   UNL     1      -0.307  -0.638   1.301  0.00  0.00    -0.492 OA
BRANCH   8  10
ATOM      9  C   UNL     1      -1.810   1.153   0.692  0.00  0.00    +0.048 C 
ATOM     10  C   UNL     1      -1.590  -0.360   0.735  0.00  0.00    +0.225 C 
ENDBRANCH   8  10
ENDBRANCH   2   8
ENDBRANCH   1   5
BRANCH   1  11
ATOM     11  S   UNL     1       1.449  -6.604   3.245  0.00  0.00    +0.075 S 
ATOM     12  O   UNL     1       2.273  -7.741   3.028  0.00  0.00    -0.150 OA
ATOM     13  O   UNL     1       1.843  -5.526   4.082  0.00  0.00    -0.150 OA
BRANCH  11  14
ATOM     14  C   UNL     1      -0.079  -7.205   3.884  0.00  0.00    +0.109 A 
ATOM     15  C   UNL     1      -0.888  -6.374   4.636  0.00  0.00    +0.031 A 
ATOM     16  C   UNL     1      -2.087  -6.843   5.137  0.00  0.00    +0.040 A 
ATOM     17  C   UNL     1      -2.478  -8.148   4.886  0.00  0.00    +0.124 A 
ATOM     18  C   UNL     1      -1.668  -8.979   4.132  0.00  0.00    +0.040 A 
ATOM     19  C   UNL     1      -0.471  -8.506   3.627  0.00  0.00    +0.031 A 
ATOM     20  F   UNL     1      -3.650  -8.608   5.376  0.00  0.00    -0.205 F 
ENDBRANCH  11  14
ENDBRANCH   1  11
BRANCH   1  21
ATOM     21  C   UNL     1       1.240  -6.792   0.555  0.00  0.00    +0.227 C 
BRANCH  21  22
ATOM     22  C   UNL     1       2.606  -6.623  -0.058  0.00  0.00    +0.232 C 
ATOM     23  O   UNL     1       3.414  -5.878   0.457  0.00  0.00    -0.274 OA
ATOM     24  N   UNL     1       2.932  -7.300  -1.177  0.00  0.00    -0.310 N 
ATOM     25  H   UNL     1       2.286  -7.895  -1.588  0.00  0.00    +0.149 HD
BRANCH  24  26
ATOM     26  C   UNL     1       4.260  -7.136  -1.772  0.00  0.00    +0.141 C 
BRANCH  26  27
ATOM     27  C   UNL     1       4.368  -7.995  -3.005  0.00  0.00    -0.006 A 
ATOM     28  C   UNL     1       5.011  -9.216  -2.943  0.00  0.00    +0.007 A 
ATOM     29  C   UNL     1       5.110 -10.005  -4.074  0.00  0.00    +0.000 A 
ATOM     30  C   UNL     1       4.566  -9.575  -5.270  0.00  0.00    +0.002 A 
ATOM     31  C   UNL     1       3.922  -8.355  -5.339  0.00  0.00    +0.026 A 
ATOM     32  C   UNL     1       3.816  -7.563  -4.203  0.00  0.00    +0.052 A 
BRANCH  32  33
ATOM     33  N   UNL     1       3.158  -6.326  -4.268  0.00  0.00    -0.305 N 
ATOM     34  C   UNL     1       1.825  -6.125  -4.516  0.00  0.00    +0.110 A 
ATOM     35  C   UNL     1       1.620  -4.794  -4.489  0.00  0.00    +0.102 A 
ATOM     36  N   UNL     1       2.792  -4.195  -4.231  0.00  0.00    -0.350 N 
ATOM     37  C   UNL     1       3.720  -5.102  -4.091  0.00  0.00    +0.088 A 
ATOM     38  C   UNL     1       5.172  -4.836  -3.788  0.00  0.00    +0.084 C 
ATOM     39  H   UNL     1       2.928  -3.238  -4.157  0.00  0.00    +0.166 HD
ENDBRANCH  32  33
ENDBRANCH  26  27
ENDBRANCH  24  26
ENDBRANCH  21  22
ENDBRANCH   1  21
TORSDOF 10
