REMARK  Name = ZINC05109447
REMARK  6 active torsions:
REMARK  status: ('A' for Active; 'I' for Inactive)
REMARK    1  A    between atoms: C_4  and  C_7
REMARK    2  A    between atoms: C_7  and  C_8
REMARK    3  A    between atoms: C_7  and  N_55
REMARK    4  A    between atoms: C_14  and  C_15
REMARK    5  A    between atoms: C_14  and  N_55
REMARK    6  A    between atoms: N_17  and  N_18
REMARK                            x       y       z     vdW  Elec       q    Type
REMARK                         _______ _______ _______ _____ _____    ______ ____
ROOT
ATOM      1  C   UNL     1      -0.693   5.904  -2.241  0.00  0.00    +0.018 C 
ENDROOT
BRANCH   1   2
ATOM      2  C   UNL     1      -1.821   6.399  -3.110  0.00  0.00    +0.213 C 
ATOM      3  O   UNL     1      -2.897   6.662  -2.615  0.00  0.00    -0.276 OA
ATOM      4  N   UNL     1      -1.635   6.549  -4.436  0.00  0.00    -0.225 N 
ATOM      5  H   UNL     1      -0.775   6.339  -4.832  0.00  0.00    +0.173 HD
BRANCH   4   6
ATOM      6  N   UNL     1      -2.683   7.009  -5.243  0.00  0.00    -0.137 N 
ATOM      7  C   UNL     1      -2.758   8.257  -5.751  0.00  0.00    +0.263 C 
ATOM      8  O   UNL     1      -1.961   9.158  -5.603  0.00  0.00    -0.271 OA
ATOM      9  C   UNL     1      -4.044   8.293  -6.545  0.00  0.00    +0.114 C 
ATOM     10  C   UNL     1      -3.753   8.579  -8.014  0.00  0.00    +0.035 C 
ATOM     11  C   UNL     1      -5.064   8.584  -8.805  0.00  0.00    +0.003 C 
ATOM     12  C   UNL     1      -5.998   9.654  -8.236  0.00  0.00    +0.000 C 
ATOM     13  C   UNL     1      -6.299   9.340  -6.769  0.00  0.00    +0.003 C 
ATOM     14  C   UNL     1      -4.994   9.338  -5.970  0.00  0.00    +0.035 C 
ATOM     15  N   UNL     1      -4.601   6.945  -6.383  0.00  0.00    -0.284 N 
ATOM     16  C   UNL     1      -3.733   6.264  -5.610  0.00  0.00    +0.326 C 
ATOM     17  O   UNL     1      -3.887   5.104  -5.281  0.00  0.00    -0.251 OA
ATOM     18  H   UNL     1      -5.429   6.609  -6.760  0.00  0.00    +0.151 HD
ENDBRANCH   4   6
ENDBRANCH   1   2
BRANCH   1  19
ATOM     19  N   UNL     1      -1.156   5.830  -0.843  0.00  0.00    +0.392 N 
ATOM     20  H   UNL     1      -1.450   6.763  -0.534  0.00  0.00    -0.084 HD
ATOM     21  H   UNL     1      -1.952   5.183  -0.783  0.00  0.00    -0.084 HD
BRANCH  19  22
ATOM     22  C   UNL     1      -0.070   5.347   0.031  0.00  0.00    -0.009 C 
BRANCH  22  26
ATOM     23  C   UNL     1      -0.013   1.076   0.008  0.00  0.00    +0.000 A 
ATOM     24  C   UNL     1      -1.219   1.751   0.017  0.00  0.00    +0.000 A 
ATOM     25  C   UNL     1      -1.238   3.133   0.030  0.00  0.00    +0.002 A 
ATOM     26  C   UNL     1      -0.050   3.840   0.023  0.00  0.00    -0.057 A 
ATOM     27  C   UNL     1       1.156   3.165   0.008  0.00  0.00    +0.002 A 
ATOM     28  C   UNL     1       1.175   1.783   0.000  0.00  0.00    +0.000 A 
ENDBRANCH  22  26
BRANCH  22  29
ATOM     29  C   UNL     1      -0.311   5.838   1.435  0.00  0.00    -0.057 A 
ATOM     30  C   UNL     1      -1.593   5.858   1.951  0.00  0.00    +0.002 A 
ATOM     31  C   UNL     1      -1.813   6.304   3.241  0.00  0.00    +0.000 A 
ATOM     32  C   UNL     1      -0.751   6.740   4.011  0.00  0.00    +0.000 A 
ATOM     33  C   UNL     1       0.530   6.726   3.494  0.00  0.00    +0.000 A 
ATOM     34  C   UNL     1       0.751   6.275   2.206  0.00  0.00    +0.002 A 
ENDBRANCH  22  29
ENDBRANCH  19  22
ENDBRANCH   1  19
TORSDOF 6
