REMARK  Name = ZINC01203916
REMARK  11 active torsions:
REMARK  status: ('A' for Active; 'I' for Inactive)
REMARK    1  A    between atoms: C_1  and  C_2
REMARK    2  A    between atoms: C_3  and  C_25
REMARK    3  A    between atoms: C_4  and  C_16
REMARK    4  A    between atoms: C_10  and  C_14
REMARK    5  A    between atoms: C_10  and  C_15
REMARK    6  A    between atoms: C_20  and  N_22
REMARK    7  A    between atoms: C_25  and  O_27
REMARK    8  A    between atoms: O_27  and  C_28
REMARK    9  A    between atoms: C_28  and  C_29
REMARK   10  A    between atoms: C_32  and  O_35
REMARK   11  A    between atoms: O_35  and  C_36
REMARK                            x       y       z     vdW  Elec       q    Type
REMARK                         _______ _______ _______ _____ _____    ______ ____
ROOT
ATOM      1  C   UNL     1      -2.461   0.910  -0.416  0.00  0.00    +0.061 C 
ATOM      2  C   UNL     1      -1.208   1.626   0.017  0.00  0.00    +0.016 C 
ATOM      3  C   UNL     1      -1.273   2.910   0.415  0.00  0.00    +0.065 C 
ATOM      4  C   UNL     1      -0.045   3.653   0.853  0.00  0.00    +0.092 C 
ATOM      5  C   UNL     1       1.206   2.953   0.386  0.00  0.00    +0.024 C 
ATOM      6  C   UNL     1       1.169   1.660  -0.000  0.00  0.00    +0.016 C 
ATOM      7  N   UNL     1      -0.011   0.966   0.007  0.00  0.00    -0.321 N 
ATOM      8  C   UNL     1       2.421   0.945  -0.445  0.00  0.00    +0.058 C 
ATOM      9  C   UNL     1       3.376   1.944  -1.102  0.00  0.00    -0.023 C 
ATOM     10  C   UNL     1       3.696   3.050  -0.090  0.00  0.00    +0.086 C 
ATOM     11  C   UNL     1       2.409   3.680   0.368  0.00  0.00    +0.162 C 
ATOM     12  O   UNL     1       2.410   4.840   0.731  0.00  0.00    -0.292 OA
ATOM     13  C   UNL     1       2.712   2.555  -2.338  0.00  0.00    +0.011 C 
ATOM     14  C   UNL     1       4.668   1.234  -1.512  0.00  0.00    +0.011 C 
ATOM     15  H   UNL     1       0.010  -0.134   0.006  0.00  0.00    +0.152 HD
ENDROOT
BRANCH   4  16
ATOM     16  C   UNL     1      -0.031   3.742   2.357  0.00  0.00    -0.033 A 
ATOM     17  C   UNL     1       0.014   2.587   3.117  0.00  0.00    +0.005 A 
ATOM     18  C   UNL     1       0.027   2.668   4.496  0.00  0.00    +0.003 A 
ATOM     19  C   UNL     1      -0.005   3.904   5.117  0.00  0.00    +0.033 A 
ATOM     20  C   UNL     1      -0.050   5.057   4.357  0.00  0.00    +0.126 A 
ATOM     21  C   UNL     1      -0.057   4.976   2.977  0.00  0.00    +0.037 A 
BRANCH  20  22
ATOM     22  N   UNL     1      -0.083   6.380   5.021  0.00  0.00    +0.056 N 
ATOM     23  O   UNL     1      -0.071   6.451   6.237  0.00  0.00    -0.126 OA
ATOM     24  O   UNL     1      -0.122   7.397   4.352  0.00  0.00    -0.126 OA
ENDBRANCH  20  22
ENDBRANCH   4  16
BRANCH   3  25
ATOM     25  C   UNL     1      -2.522   3.574   0.415  0.00  0.00    +0.338 C 
ATOM     26  O   UNL     1      -3.525   2.982   0.062  0.00  0.00    -0.245 OA
BRANCH  25  27
ATOM     27  O   UNL     1      -2.601   4.863   0.806  0.00  0.00    -0.457 OA
BRANCH  27  28
ATOM     28  C   UNL     1      -3.895   5.470   0.781  0.00  0.00    +0.268 C 
BRANCH  28  29
ATOM     29  C   UNL     1      -3.788   6.899   1.247  0.00  0.00    -0.010 A 
ATOM     30  C   UNL     1      -3.933   7.200   2.589  0.00  0.00    +0.010 A 
ATOM     31  C   UNL     1      -3.830   8.508   3.019  0.00  0.00    +0.046 A 
ATOM     32  C   UNL     1      -3.592   9.522   2.103  0.00  0.00    +0.120 A 
ATOM     33  C   UNL     1      -3.453   9.218   0.756  0.00  0.00    +0.046 A 
ATOM     34  C   UNL     1      -3.551   7.907   0.331  0.00  0.00    +0.010 A 
BRANCH  32  35
ATOM     35  O   UNL     1      -3.496  10.811   2.523  0.00  0.00    -0.495 OA
ATOM     36  C   UNL     1      -3.650  11.050   3.924  0.00  0.00    +0.277 C 
ENDBRANCH  32  35
ENDBRANCH  28  29
ENDBRANCH  27  28
ENDBRANCH  25  27
ENDBRANCH   3  25
TORSDOF 7
