REMARK  Name = ZINC05402564
REMARK  10 active torsions:
REMARK  status: ('A' for Active; 'I' for Inactive)
REMARK    1  A    between atoms: C_1  and  C_2
REMARK    2  A    between atoms: C_2  and  C_3
REMARK    3  A    between atoms: C_3  and  C_4
REMARK    4  A    between atoms: C_3  and  C_5
REMARK    5  A    between atoms: C_3  and  C_6
REMARK    6  A    between atoms: C_12  and  C_16
REMARK    7  A    between atoms: N_18  and  N_19
REMARK    8  A    between atoms: C_20  and  C_21
REMARK    9  A    between atoms: C_20  and  C_22
REMARK   10  A    between atoms: C_25  and  O_28
REMARK                            x       y       z     vdW  Elec       q    Type
REMARK                         _______ _______ _______ _____ _____    ______ ____
ROOT
ATOM      1  C   UNL     1      -1.466   3.603   2.534  0.00  0.00    -0.001 C 
ATOM      2  C   UNL     1      -0.726   3.094   3.774  0.00  0.00    +0.010 C 
ATOM      3  C   UNL     1      -1.569   3.369   5.026  0.00  0.00    +0.055 C 
ATOM      4  C   UNL     1      -1.997   4.814   5.002  0.00  0.00    +0.040 A 
ATOM      5  C   UNL     1      -1.957   5.595   3.895  0.00  0.00    +0.006 A 
ATOM      6  C   UNL     1      -2.431   6.856   4.295  0.00  0.00    +0.152 A 
ATOM      7  N   UNL     1      -2.722   6.760   5.582  0.00  0.00    -0.169 NA
ATOM      8  N   UNL     1      -2.473   5.569   6.005  0.00  0.00    -0.281 N 
ATOM      9  H   UNL     1      -2.613   5.254   6.944  0.00  0.00    +0.189 HD
ATOM     10  C   UNL     1      -1.486   5.137   2.542  0.00  0.00    +0.043 C 
ENDROOT
BRANCH   6  11
ATOM     11  C   UNL     1      -2.577   8.054   3.445  0.00  0.00    +0.284 C 
ATOM     12  O   UNL     1      -2.271   8.006   2.269  0.00  0.00    -0.267 OA
ATOM     13  N   UNL     1      -3.049   9.201   3.972  0.00  0.00    -0.201 N 
ATOM     14  H   UNL     1      -3.293   9.239   4.910  0.00  0.00    +0.178 HD
BRANCH  13  15
ATOM     15  N   UNL     1      -3.187  10.338   3.165  0.00  0.00    -0.184 NA
ATOM     16  C   UNL     1      -3.642  11.443   3.673  0.00  0.00    +0.063 C 
ATOM     17  C   UNL     1      -4.021  11.502   5.130  0.00  0.00    +0.068 C 
BRANCH  16  18
ATOM     18  C   UNL     1      -3.788  12.639   2.824  0.00  0.00    -0.002 A 
ATOM     19  C   UNL     1      -4.282  13.828   3.367  0.00  0.00    +0.013 A 
ATOM     20  C   UNL     1      -4.411  14.945   2.571  0.00  0.00    +0.046 A 
ATOM     21  C   UNL     1      -4.061  14.888   1.228  0.00  0.00    +0.117 A 
ATOM     22  C   UNL     1      -3.574  13.707   0.682  0.00  0.00    +0.046 A 
ATOM     23  C   UNL     1      -3.437  12.586   1.472  0.00  0.00    +0.013 A 
BRANCH  21  24
ATOM     24  O   UNL     1      -4.194  15.991   0.446  0.00  0.00    -0.507 OA
ATOM     25  H   UNL     1      -5.057  16.065   0.015  0.00  0.00    +0.292 HD
ENDBRANCH  21  24
ENDBRANCH  16  18
ENDBRANCH  13  15
ENDBRANCH   6  11
BRANCH   1  26
ATOM     26  C   UNL     1      -0.750   3.109   1.275  0.00  0.00    -0.032 C 
ATOM     27  C   UNL     1       0.686   3.639   1.264  0.00  0.00    +0.011 C 
ATOM     28  C   UNL     1      -1.490   3.616   0.036  0.00  0.00    +0.011 C 
BRANCH  26  30
ATOM     29  C   UNL     1      -0.013   1.086   0.008  0.00  0.00    +0.004 C 
ATOM     30  C   UNL     1      -0.729   1.579   1.267  0.00  0.00    +0.003 C 
ENDBRANCH  26  30
ENDBRANCH   1  26
TORSDOF 6
