REMARK  Name = ZINC36685607
REMARK  11 active torsions:
REMARK  status: ('A' for Active; 'I' for Inactive)
REMARK    1  A    between atoms: C_1  and  N_2
REMARK    2  A    between atoms: C_4  and  C_9
REMARK    3  A    between atoms: C_5  and  O_7
REMARK    4  A    between atoms: O_7  and  C_8
REMARK    5  A    between atoms: C_9  and  N_11
REMARK    6  A    between atoms: N_13  and  C_25
REMARK    7  A    between atoms: C_16  and  O_23
REMARK    8  A    between atoms: C_17  and  O_21
REMARK    9  A    between atoms: O_21  and  C_22
REMARK   10  A    between atoms: O_23  and  C_24
REMARK   11  A    between atoms: C_25  and  C_26
REMARK                            x       y       z     vdW  Elec       q    Type
REMARK                         _______ _______ _______ _____ _____    ______ ____
ROOT
ATOM      1  N   UNL     1       0.032  -3.161  -2.862  0.00  0.00    -0.152 NA
ATOM      2  C   UNL     1       0.042  -4.240  -3.638  0.00  0.00    +0.167 A 
ATOM      3  N   UNL     1       0.042  -4.290  -4.995  0.00  0.00    -0.317 N 
ATOM      4  C   UNL     1       0.055  -5.516  -5.637  0.00  0.00    +0.062 A 
ATOM      5  C   UNL     1       0.057  -5.794  -7.011  0.00  0.00    +0.076 A 
ATOM      6  C   UNL     1       0.070  -7.095  -7.466  0.00  0.00    +0.164 A 
ATOM      7  C   UNL     1       0.081  -8.166  -6.574  0.00  0.00    +0.163 A 
ATOM      8  C   UNL     1       0.080  -7.912  -5.211  0.00  0.00    +0.066 A 
ATOM      9  C   UNL     1       0.068  -6.612  -4.763  0.00  0.00    +0.043 A 
ATOM     10  S   UNL     1       0.066  -5.851  -3.161  0.00  0.00    -0.052 S 
ENDROOT
BRANCH   1  11
ATOM     11  C   UNL     1       0.039  -3.294  -1.531  0.00  0.00    +0.276 C 
ATOM     12  O   UNL     1       0.056  -4.405  -1.029  0.00  0.00    -0.268 OA
BRANCH  11  16
ATOM     13  C   UNL     1      -0.018   1.461   0.010  0.00  0.00    +0.172 C 
ATOM     14  N   UNL     1       0.002  -0.004   0.002  0.00  0.00    -0.270 N 
ATOM     15  C   UNL     1       0.008  -0.782  -1.093  0.00  0.00    +0.125 A 
ATOM     16  C   UNL     1       0.027  -2.095  -0.669  0.00  0.00    +0.119 A 
ATOM     17  C   UNL     1       0.034  -2.077   0.747  0.00  0.00    +0.246 A 
ATOM     18  N   UNL     1       0.025  -0.827   1.133  0.00  0.00    -0.133 NA
BRANCH  17  19
ATOM     19  O   UNL     1       0.052  -3.165   1.560  0.00  0.00    -0.478 OA
ATOM     20  C   UNL     1       0.055  -2.923   2.968  0.00  0.00    +0.279 C 
ENDBRANCH  17  19
ENDBRANCH  11  16
ENDBRANCH   1  11
BRANCH   7  21
ATOM     21  O   UNL     1       0.093  -9.446  -7.036  0.00  0.00    -0.491 OA
ATOM     22  C   UNL     1       0.104 -10.488  -6.059  0.00  0.00    +0.277 C 
ENDBRANCH   7  21
BRANCH   6  23
ATOM     23  O   UNL     1       0.071  -7.337  -8.804  0.00  0.00    -0.491 OA
ATOM     24  C   UNL     1       0.058  -6.200  -9.669  0.00  0.00    +0.277 C 
ENDBRANCH   6  23
BRANCH   3  25
ATOM     25  C   UNL     1       0.028  -3.051  -5.777  0.00  0.00    +0.151 C 
BRANCH  25  26
ATOM     26  C   UNL     1       1.444  -2.610  -6.046  0.00  0.00    -0.013 C 
ATOM     27  C   UNL     1       1.841  -2.398  -7.276  0.00  0.00    +0.005 C 
ENDBRANCH  25  26
ENDBRANCH   3  25
TORSDOF 7
