REMARK  Name = ZINC39939987
REMARK  5 active torsions:
REMARK  status: ('A' for Active; 'I' for Inactive)
REMARK    1  A    between atoms: C_6  and  C_7
REMARK    2  A    between atoms: N_8  and  N_9
REMARK    3  A    between atoms: C_10  and  N_16
REMARK    4  A    between atoms: C_17  and  C_25
REMARK    5  A    between atoms: C_19  and  C_21
REMARK                            x       y       z     vdW  Elec       q    Type
REMARK                         _______ _______ _______ _____ _____    ______ ____
ROOT
ATOM      1  N   UNL     1      -1.758  -3.312   0.601  0.00  0.00    -0.157 N 
ATOM      2  C   UNL     1      -2.352  -4.588   0.162  0.00  0.00    +0.354 C 
ATOM      3  N   UNL     1      -3.790  -4.294   0.068  0.00  0.00    -0.170 NA
ATOM      4  N   UNL     1      -3.961  -3.114   0.385  0.00  0.00    -0.218 N 
ATOM      5  C   UNL     1      -2.810  -2.471   0.718  0.00  0.00    +0.176 C 
ATOM      6  S   UNL     1      -2.707  -0.834   1.209  0.00  0.00    -0.015 S 
ATOM      7  H   UNL     1      -4.832  -2.687   0.399  0.00  0.00    +0.176 HD
ENDROOT
BRANCH   2   8
ATOM      8  N   UNL     1      -1.818  -4.981  -1.145  0.00  0.00    -0.219 N 
ATOM      9  C   UNL     1      -2.363  -5.898  -1.993  0.00  0.00    +0.074 A 
ATOM     10  C   UNL     1      -1.557  -5.964  -3.093  0.00  0.00    +0.062 A 
ATOM     11  C   UNL     1      -0.503  -5.069  -2.906  0.00  0.00    +0.166 A 
ATOM     12  N   UNL     1      -0.659  -4.477  -1.749  0.00  0.00    -0.163 NA
BRANCH   9  13
ATOM     13  C   UNL     1      -3.600  -6.678  -1.764  0.00  0.00    +0.000 A 
ATOM     14  C   UNL     1      -4.303  -7.208  -2.845  0.00  0.00    +0.011 A 
ATOM     15  C   UNL     1      -5.456  -7.934  -2.626  0.00  0.00    +0.020 A 
ATOM     16  C   UNL     1      -5.914  -8.137  -1.335  0.00  0.00    +0.041 A 
ATOM     17  C   UNL     1      -5.220  -7.613  -0.258  0.00  0.00    +0.020 A 
ATOM     18  C   UNL     1      -4.063  -6.891  -0.465  0.00  0.00    +0.011 A 
ATOM     19 CL   UNL     1      -7.365  -9.051  -1.066  0.00  0.00    -0.084 Cl
ENDBRANCH   9  13
BRANCH  11  20
ATOM     20  C   UNL     1       0.623  -4.820  -3.877  0.00  0.00    +0.436 C 
ATOM     21  F   UNL     1       0.264  -3.790  -4.753  0.00  0.00    -0.164 F 
ATOM     22  F   UNL     1       1.774  -4.452  -3.171  0.00  0.00    -0.164 F 
ATOM     23  F   UNL     1       0.875  -5.986  -4.607  0.00  0.00    -0.164 F 
ENDBRANCH  11  20
ENDBRANCH   2   8
BRANCH   1  25
ATOM     24  C   UNL     1       0.473  -3.987   0.786  0.00  0.00    +0.138 C 
ATOM     25  N   UNL     1      -0.407  -3.034   0.848  0.00  0.00    -0.182 NA
BRANCH  24  31
ATOM     26  C   UNL     1       2.857  -4.697   0.852  0.00  0.00    +0.012 A 
ATOM     27  C   UNL     1       4.198  -4.399   0.976  0.00  0.00    +0.039 A 
ATOM     28  C   UNL     1       4.604  -3.087   1.165  0.00  0.00    +0.123 A 
ATOM     29  C   UNL     1       3.667  -2.068   1.232  0.00  0.00    +0.039 A 
ATOM     30  C   UNL     1       2.324  -2.354   1.109  0.00  0.00    +0.012 A 
ATOM     31  C   UNL     1       1.908  -3.674   0.918  0.00  0.00    -0.005 A 
ATOM     32  F   UNL     1       5.919  -2.801   1.286  0.00  0.00    -0.205 F 
ENDBRANCH  24  31
ENDBRANCH   1  25
TORSDOF 5
