REMARK  Name = ZINC41584622
REMARK  5 active torsions:
REMARK  status: ('A' for Active; 'I' for Inactive)
REMARK    1  A    between atoms: C_4  and  C_8
REMARK    2  A    between atoms: C_15  and  O_33
REMARK    3  A    between atoms: C_16  and  C_19
REMARK    4  A    between atoms: C_19  and  N_20
REMARK    5  A    between atoms: C_25  and  C_27
REMARK                            x       y       z     vdW  Elec       q    Type
REMARK                         _______ _______ _______ _____ _____    ______ ____
ROOT
ATOM      1  C   UNL     1       3.692  -0.677  -0.037  0.00  0.00    +0.061 C 
ATOM      2  C   UNL     1       3.928  -1.672   0.855  0.00  0.00    +0.176 C 
ATOM      3  C   UNL     1       5.160  -2.467   0.965  0.00  0.00    +0.231 C 
ATOM      4  O   UNL     1       6.169  -2.377   0.287  0.00  0.00    -0.283 OA
ATOM      5  C   UNL     1       4.901  -3.398   2.078  0.00  0.00    +0.068 A 
ATOM      6  C   UNL     1       5.661  -4.403   2.678  0.00  0.00    +0.019 A 
ATOM      7  C   UNL     1       5.142  -5.119   3.720  0.00  0.00    +0.046 A 
ATOM      8  C   UNL     1       3.858  -4.848   4.184  0.00  0.00    +0.122 A 
ATOM      9  C   UNL     1       3.092  -3.853   3.598  0.00  0.00    +0.020 A 
ATOM     10  C   UNL     1       3.605  -3.115   2.537  0.00  0.00    +0.144 A 
ATOM     11  O   UNL     1       3.074  -2.108   1.811  0.00  0.00    -0.451 OA
ENDROOT
BRANCH   1  15
ATOM     12  C   UNL     1      -0.017   1.380   0.010  0.00  0.00    +0.003 A 
ATOM     13  C   UNL     1       1.167   2.096   0.002  0.00  0.00    +0.021 A 
ATOM     14  C   UNL     1       2.379   1.436  -0.013  0.00  0.00    +0.050 A 
ATOM     15  C   UNL     1       2.408   0.035  -0.021  0.00  0.00    +0.015 A 
ATOM     16  C   UNL     1       1.204  -0.682  -0.013  0.00  0.00    +0.050 A 
ATOM     17  C   UNL     1       0.002  -0.004   0.002  0.00  0.00    +0.021 A 
ATOM     18 CL   UNL     1       1.224  -2.418  -0.023  0.00  0.00    -0.083 Cl
ATOM     19 CL   UNL     1       3.862   2.337  -0.023  0.00  0.00    -0.083 Cl
ENDBRANCH   1  15
BRANCH   8  20
ATOM     20  O   UNL     1       3.351  -5.565   5.219  0.00  0.00    -0.506 OA
ATOM     21  H   UNL     1       3.534  -5.183   6.088  0.00  0.00    +0.292 HD
ENDBRANCH   8  20
BRANCH   9  22
ATOM     22  C   UNL     1       1.703  -3.571   4.110  0.00  0.00    -0.035 C 
BRANCH  22  23
ATOM     23  N   UNL     1       1.769  -2.555   5.169  0.00  0.00    +0.387 N 
ATOM     24  C   UNL     1       2.513  -3.093   6.315  0.00  0.00    -0.078 C 
ATOM     25  C   UNL     1       2.654  -2.012   7.389  0.00  0.00    -0.019 C 
ATOM     26  C   UNL     1       1.261  -1.568   7.845  0.00  0.00    -0.003 C 
ATOM     27  C   UNL     1       0.469  -1.079   6.630  0.00  0.00    -0.011 C 
ATOM     28  C   UNL     1       0.408  -2.194   5.584  0.00  0.00    -0.036 C 
ATOM     29  H   UNL     1       2.242  -1.735   4.819  0.00  0.00    -0.080 HD
BRANCH  28  30
ATOM     30  C   UNL     1      -0.371  -1.717   4.386  0.00  0.00    -0.043 A 
ATOM     31  C   UNL     1      -1.702  -2.073   4.227  0.00  0.00    +0.005 A 
ATOM     32  C   UNL     1      -2.380  -1.611   3.109  0.00  0.00    +0.020 A 
ATOM     33  C   UNL     1      -1.711  -0.816   2.197  0.00  0.00    +0.111 A 
ATOM     34  N   UNL     1      -0.445  -0.497   2.381  0.00  0.00    -0.263 NA
ATOM     35  C   UNL     1       0.229  -0.914   3.435  0.00  0.00    +0.112 A 
ENDBRANCH  28  30
ENDBRANCH  22  23
ENDBRANCH   9  22
TORSDOF 5
