REMARK  Name = ZINC09242735
REMARK  9 active torsions:
REMARK  status: ('A' for Active; 'I' for Inactive)
REMARK    1  A    between atoms: C_1  and  C_2
REMARK    2  A    between atoms: C_4  and  C_40
REMARK    3  A    between atoms: C_5  and  O_39
REMARK    4  A    between atoms: C_6  and  C_8
REMARK    5  A    between atoms: N_16  and  C_32
REMARK    6  A    between atoms: C_17  and  C_19
REMARK    7  A    between atoms: C_23  and  O_25
REMARK    8  A    between atoms: O_25  and  C_26
REMARK    9  A    between atoms: C_32  and  C_33
REMARK                            x       y       z     vdW  Elec       q    Type
REMARK                         _______ _______ _______ _____ _____    ______ ____
ROOT
ATOM      1  C   UNL     1      -0.247  -2.954   1.581  0.00  0.00    +0.075 A 
ATOM      2  C   UNL     1       0.676  -3.525   2.397  0.00  0.00    +0.035 A 
ATOM      3  C   UNL     1      -0.003  -3.831   3.598  0.00  0.00    +0.153 A 
ATOM      4  N   UNL     1      -1.252  -3.441   3.442  0.00  0.00    -0.168 NA
ATOM      5  N   UNL     1      -1.420  -2.921   2.279  0.00  0.00    -0.276 N 
ATOM      6  H   UNL     1      -2.257  -2.562   1.945  0.00  0.00    +0.189 HD
ATOM      7  C   UNL     1       0.965  -4.455   4.518  0.00  0.00    +0.268 C 
ATOM      8  O   UNL     1       0.704  -4.840   5.642  0.00  0.00    -0.268 OA
ATOM      9  N   UNL     1       2.175  -4.539   3.941  0.00  0.00    -0.281 N 
ATOM     10  C   UNL     1       2.099  -3.975   2.588  0.00  0.00    +0.142 C 
ENDROOT
BRANCH   1  16
ATOM     11  C   UNL     1      -0.064   0.830  -1.667  0.00  0.00    +0.044 C 
ATOM     12  C   UNL     1       0.066  -0.641  -1.363  0.00  0.00    -0.049 A 
ATOM     13  C   UNL     1       0.394  -1.527  -2.373  0.00  0.00    +0.010 A 
ATOM     14  C   UNL     1       0.516  -2.878  -2.105  0.00  0.00    -0.008 A 
ATOM     15  C   UNL     1       0.309  -3.352  -0.820  0.00  0.00    +0.129 A 
ATOM     16  C   UNL     1      -0.023  -2.458   0.205  0.00  0.00    +0.042 A 
ATOM     17  C   UNL     1      -0.138  -1.097  -0.077  0.00  0.00    +0.017 A 
ATOM     18  C   UNL     1       0.873  -3.836  -3.212  0.00  0.00    +0.047 C 
BRANCH  15  19
ATOM     19  O   UNL     1       0.428  -4.679  -0.555  0.00  0.00    -0.506 OA
ATOM     20  H   UNL     1       1.320  -4.950  -0.299  0.00  0.00    +0.292 HD
ENDBRANCH  15  19
ENDBRANCH   1  16
BRANCH  10  21
ATOM     21  C   UNL     1       3.034  -2.799   2.465  0.00  0.00    -0.019 A 
ATOM     22  C   UNL     1       3.211  -1.942   3.536  0.00  0.00    +0.006 A 
ATOM     23  C   UNL     1       4.069  -0.863   3.426  0.00  0.00    +0.004 A 
ATOM     24  C   UNL     1       4.751  -0.639   2.246  0.00  0.00    +0.046 A 
ATOM     25  C   UNL     1       4.575  -1.497   1.170  0.00  0.00    +0.129 A 
ATOM     26  C   UNL     1       3.718  -2.583   1.285  0.00  0.00    +0.052 A 
BRANCH  25  27
ATOM     27  O   UNL     1       5.245  -1.278   0.009  0.00  0.00    -0.456 OA
BRANCH  27  28
ATOM     28  C   UNL     1       6.083  -0.211  -0.053  0.00  0.00    +0.128 A 
ATOM     29  C   UNL     1       7.416  -0.352   0.306  0.00  0.00    +0.046 A 
ATOM     30  C   UNL     1       8.266   0.735   0.242  0.00  0.00    +0.004 A 
ATOM     31  C   UNL     1       7.790   1.963  -0.179  0.00  0.00    +0.000 A 
ATOM     32  C   UNL     1       6.462   2.107  -0.537  0.00  0.00    +0.004 A 
ATOM     33  C   UNL     1       5.609   1.021  -0.481  0.00  0.00    +0.046 A 
ENDBRANCH  27  28
ENDBRANCH  25  27
ENDBRANCH  10  21
BRANCH   9  34
ATOM     34  C   UNL     1       3.377  -5.103   4.561  0.00  0.00    +0.145 C 
BRANCH  34  35
ATOM     35  C   UNL     1       3.455  -6.577   4.258  0.00  0.00    -0.012 A 
ATOM     36  C   UNL     1       2.862  -7.500   5.106  0.00  0.00    +0.008 A 
ATOM     37  C   UNL     1       2.959  -8.846   4.788  0.00  0.00    +0.020 A 
ATOM     38  C   UNL     1       3.638  -9.220   3.643  0.00  0.00    +0.111 A 
ATOM     39  N   UNL     1       4.189  -8.314   2.860  0.00  0.00    -0.263 NA
ATOM     40  C   UNL     1       4.112  -7.025   3.128  0.00  0.00    +0.115 A 
ENDBRANCH  34  35
ENDBRANCH   9  34
TORSDOF 7
