REMARK  Name = ZINC40011337
REMARK  11 active torsions:
REMARK  status: ('A' for Active; 'I' for Inactive)
REMARK    1  A    between atoms: C_1  and  C_2
REMARK    2  A    between atoms: C_2  and  C_3
REMARK    3  A    between atoms: C_2  and  C_4
REMARK    4  A    between atoms: C_16  and  S_18
REMARK    5  A    between atoms: S_18  and  C_19
REMARK    6  A    between atoms: C_19  and  C_20
REMARK    7  A    between atoms: N_22  and  C_23
REMARK    8  A    between atoms: C_26  and  O_31
REMARK    9  A    between atoms: C_28  and  O_29
REMARK   10  A    between atoms: O_29  and  C_30
REMARK   11  A    between atoms: O_31  and  C_32
REMARK                            x       y       z     vdW  Elec       q    Type
REMARK                         _______ _______ _______ _____ _____    ______ ____
ROOT
ATOM      1  C   UNL     1      -1.408  -0.613   0.025  0.00  0.00    -0.044 A 
ATOM      2  C   UNL     1      -2.244  -0.269   1.097  0.00  0.00    +0.006 A 
ATOM      3  C   UNL     1      -3.524  -0.699   1.168  0.00  0.00    +0.026 A 
ATOM      4  C   UNL     1      -4.056  -1.548   0.095  0.00  0.00    +0.046 A 
ATOM      5  N   UNL     1      -5.244  -2.068  -0.100  0.00  0.00    -0.358 N 
ATOM      6  C   UNL     1      -5.192  -2.934  -1.266  0.00  0.00    +0.252 C 
ATOM      7  C   UNL     1      -3.849  -2.663  -1.922  0.00  0.00    +0.117 C 
ATOM      8  C   UNL     1      -3.149  -1.885  -1.032  0.00  0.00    +0.025 A 
ATOM      9  C   UNL     1      -1.828  -1.381  -1.005  0.00  0.00    +0.015 A 
ATOM     10  N   UNL     1      -3.591  -3.042  -3.176  0.00  0.00    -0.147 NA
ATOM     11  N   UNL     1      -4.625  -3.140  -3.954  0.00  0.00    -0.122 NA
ATOM     12  C   UNL     1      -5.873  -2.813  -3.539  0.00  0.00    +0.208 C 
ATOM     13  N   UNL     1      -6.211  -2.664  -2.278  0.00  0.00    -0.227 NA
ATOM     14  H   UNL     1      -6.030  -1.901   0.444  0.00  0.00    +0.162 HD
ENDROOT
BRANCH   1  16
ATOM     15  C   UNL     1       0.000   1.429   0.032  0.00  0.00    +0.012 C 
ATOM     16  C   UNL     1       0.010  -0.101   0.018  0.00  0.00    +0.013 C 
ATOM     17  C   UNL     1       0.745  -0.618   1.256  0.00  0.00    +0.012 C 
ENDBRANCH   1  16
BRANCH  12  18
ATOM     18  S   UNL     1      -7.120  -2.579  -4.762  0.00  0.00    -0.075 S 
BRANCH  18  19
ATOM     19  C   UNL     1      -8.603  -2.164  -3.804  0.00  0.00    +0.173 C 
BRANCH  19  20
ATOM     20  C   UNL     1      -9.760  -1.935  -4.742  0.00  0.00    +0.228 C 
ATOM     21  O   UNL     1      -9.599  -2.041  -5.940  0.00  0.00    -0.275 OA
ATOM     22  N   UNL     1     -10.973  -1.613  -4.250  0.00  0.00    -0.282 N 
ATOM     23  H   UNL     1     -11.117  -1.591  -3.292  0.00  0.00    +0.155 HD
BRANCH  22  24
ATOM     24  C   UNL     1     -12.026  -1.308  -5.126  0.00  0.00    +0.076 A 
ATOM     25  C   UNL     1     -12.129  -1.965  -6.343  0.00  0.00    +0.030 A 
ATOM     26  C   UNL     1     -13.166  -1.665  -7.205  0.00  0.00    +0.047 A 
ATOM     27  C   UNL     1     -14.107  -0.707  -6.856  0.00  0.00    +0.124 A 
ATOM     28  C   UNL     1     -14.008  -0.047  -5.640  0.00  0.00    +0.093 A 
ATOM     29  C   UNL     1     -12.972  -0.350  -4.771  0.00  0.00    +0.145 A 
BRANCH  29  30
ATOM     30  O   UNL     1     -12.877   0.291  -3.576  0.00  0.00    -0.493 OA
ATOM     31  C   UNL     1     -13.883   1.262  -3.278  0.00  0.00    +0.277 C 
ENDBRANCH  29  30
BRANCH  27  32
ATOM     32  O   UNL     1     -15.126  -0.414  -7.707  0.00  0.00    -0.495 OA
ATOM     33  C   UNL     1     -15.166  -1.131  -8.942  0.00  0.00    +0.277 C 
ENDBRANCH  27  32
ENDBRANCH  22  24
ENDBRANCH  19  20
ENDBRANCH  18  19
ENDBRANCH  12  18
TORSDOF 7
