REMARK  Name = ZINC16313250
REMARK  5 active torsions:
REMARK  status: ('A' for Active; 'I' for Inactive)
REMARK    1  A    between atoms: C_1  and  C_2
REMARK    2  A    between atoms: C_5  and  N_9
REMARK    3  A    between atoms: N_9  and  C_10
REMARK    4  A    between atoms: C_10  and  C_11
REMARK    5  A    between atoms: N_13  and  N_14
REMARK                            x       y       z     vdW  Elec       q    Type
REMARK                         _______ _______ _______ _____ _____    ______ ____
ROOT
ATOM      1  C   UNL     1      -0.742   1.585  -1.213  0.00  0.00    +0.247 C 
ATOM      2  O   UNL     1      -1.736   2.268  -1.088  0.00  0.00    -0.273 OA
ATOM      3  N   UNL     1      -0.288   1.272  -2.443  0.00  0.00    -0.222 N 
ATOM      4  H   UNL     1       0.507   0.726  -2.543  0.00  0.00    +0.174 HD
ENDROOT
BRANCH   3   5
ATOM      5  N   UNL     1      -0.966   1.736  -3.578  0.00  0.00    -0.137 N 
ATOM      6  C   UNL     1      -0.530   2.743  -4.363  0.00  0.00    +0.263 C 
ATOM      7  O   UNL     1       0.484   3.394  -4.226  0.00  0.00    -0.271 OA
ATOM      8  C   UNL     1      -1.571   2.889  -5.449  0.00  0.00    +0.114 C 
ATOM      9  C   UNL     1      -0.952   2.628  -6.817  0.00  0.00    +0.035 C 
ATOM     10  C   UNL     1      -2.027   2.753  -7.899  0.00  0.00    +0.003 C 
ATOM     11  C   UNL     1      -2.633   4.157  -7.855  0.00  0.00    +0.000 C 
ATOM     12  C   UNL     1      -3.272   4.395  -6.485  0.00  0.00    +0.003 C 
ATOM     13  C   UNL     1      -2.202   4.277  -5.397  0.00  0.00    +0.035 C 
ATOM     14  N   UNL     1      -2.567   1.859  -5.129  0.00  0.00    -0.284 N 
ATOM     15  C   UNL     1      -2.124   1.232  -4.022  0.00  0.00    +0.326 C 
ATOM     16  O   UNL     1      -2.711   0.314  -3.484  0.00  0.00    -0.251 OA
ATOM     17  H   UNL     1      -3.380   1.665  -5.620  0.00  0.00    +0.151 HD
ENDBRANCH   3   5
BRANCH   1  18
ATOM     18  C   UNL     1      -0.013   1.086   0.008  0.00  0.00    +0.199 C 
BRANCH  18  19
ATOM     19  N   UNL     1      -0.698   1.558   1.213  0.00  0.00    -0.334 N 
ATOM     20  H   UNL     1      -1.495   2.106   1.135  0.00  0.00    +0.147 HD
BRANCH  19  25
ATOM     21  C   UNL     1       1.308   0.187   6.338  0.00  0.00    +0.044 C 
ATOM     22  C   UNL     1       0.775   0.551   4.977  0.00  0.00    -0.049 A 
ATOM     23  C   UNL     1       1.422   0.104   3.840  0.00  0.00    +0.005 A 
ATOM     24  C   UNL     1       0.937   0.437   2.590  0.00  0.00    +0.024 A 
ATOM     25  C   UNL     1      -0.204   1.220   2.476  0.00  0.00    +0.046 A 
ATOM     26  C   UNL     1      -0.850   1.673   3.621  0.00  0.00    +0.062 A 
ATOM     27  C   UNL     1      -0.362   1.332   4.868  0.00  0.00    +0.025 A 
ATOM     28 CL   UNL     1      -2.272   2.659   3.484  0.00  0.00    -0.082 Cl
ENDBRANCH  19  25
ENDBRANCH  18  19
ENDBRANCH   1  18
TORSDOF 4
