REMARK  Name = ZINC08781223
REMARK  9 active torsions:
REMARK  status: ('A' for Active; 'I' for Inactive)
REMARK    1  A    between atoms: C_4  and  S_7
REMARK    2  A    between atoms: S_7  and  N_10
REMARK    3  A    between atoms: N_13  and  C_16
REMARK    4  A    between atoms: C_19  and  N_33
REMARK    5  A    between atoms: C_20  and  N_22
REMARK    6  A    between atoms: N_22  and  C_23
REMARK    7  A    between atoms: C_23  and  C_24
REMARK    8  A    between atoms: C_24  and  O_25
REMARK    9  A    between atoms: O_25  and  C_26
REMARK                            x       y       z     vdW  Elec       q    Type
REMARK                         _______ _______ _______ _____ _____    ______ ____
ROOT
ATOM      1  C   UNL     1       0.039  -2.776  -0.025  0.00  0.00    +0.032 A 
ATOM      2  C   UNL     1       1.226  -2.058  -0.125  0.00  0.00    +0.025 A 
ATOM      3  C   UNL     1       1.204  -0.677  -0.105  0.00  0.00    +0.036 A 
ATOM      4  C   UNL     1       0.003  -0.004   0.014  0.00  0.00    +0.147 A 
ATOM      5  C   UNL     1      -1.186  -0.715   0.120  0.00  0.00    +0.060 A 
ATOM      6  C   UNL     1      -1.168  -2.103   0.095  0.00  0.00    +0.048 A 
ENDROOT
BRANCH   1  10
ATOM      7  N   UNL     1       0.627  -6.792   0.719  0.00  0.00    -0.174 NA
ATOM      8  C   UNL     1       1.405  -6.193  -0.376  0.00  0.00    +0.128 C 
ATOM      9  C   UNL     1       1.437  -4.674  -0.177  0.00  0.00    +0.122 C 
ATOM     10  N   UNL     1       0.063  -4.172  -0.045  0.00  0.00    -0.327 N 
ATOM     11  C   UNL     1      -0.595  -4.726   1.147  0.00  0.00    +0.122 C 
ATOM     12  C   UNL     1      -0.710  -6.247   1.001  0.00  0.00    +0.128 C 
BRANCH   7  13
ATOM     13  S   UNL     1       1.240  -8.046   1.610  0.00  0.00    +0.061 S 
ATOM     14  O   UNL     1       0.126  -8.740   2.154  0.00  0.00    -0.153 OA
ATOM     15  O   UNL     1       2.213  -8.686   0.795  0.00  0.00    -0.153 OA
BRANCH  13  19
ATOM     16  C   UNL     1       3.471  -6.236   5.108  0.00  0.00    +0.000 A 
ATOM     17  C   UNL     1       2.128  -6.538   5.227  0.00  0.00    +0.002 A 
ATOM     18  C   UNL     1       1.446  -7.091   4.159  0.00  0.00    +0.028 A 
ATOM     19  C   UNL     1       2.108  -7.341   2.972  0.00  0.00    +0.105 A 
ATOM     20  C   UNL     1       3.453  -7.044   2.855  0.00  0.00    +0.028 A 
ATOM     21  C   UNL     1       4.134  -6.487   3.921  0.00  0.00    +0.002 A 
ENDBRANCH  13  19
ENDBRANCH   7  13
ENDBRANCH   1  10
BRANCH   4  22
ATOM     22  N   UNL     1      -0.015   1.476   0.035  0.00  0.00    +0.058 N 
ATOM     23  O   UNL     1       1.031   2.098   0.062  0.00  0.00    -0.126 OA
ATOM     24  O   UNL     1      -1.078   2.071   0.021  0.00  0.00    -0.126 OA
ENDBRANCH   4  22
BRANCH   5  25
ATOM     25  N   UNL     1      -2.399  -0.034   0.247  0.00  0.00    -0.339 N 
ATOM     26  H   UNL     1      -2.420   0.934   0.184  0.00  0.00    +0.146 HD
BRANCH  25  27
ATOM     27  C   UNL     1      -3.638  -0.780   0.476  0.00  0.00    +0.142 C 
BRANCH  27  28
ATOM     28  C   UNL     1      -4.811   0.197   0.577  0.00  0.00    +0.247 C 
BRANCH  28  29
ATOM     29  O   UNL     1      -4.992   0.854  -0.679  0.00  0.00    -0.490 OA
BRANCH  29  30
ATOM     30  C   UNL     1      -6.001   1.762  -0.760  0.00  0.00    +0.121 A 
ATOM     31  C   UNL     1      -6.803   2.009   0.344  0.00  0.00    +0.047 A 
ATOM     32  C   UNL     1      -7.825   2.935   0.261  0.00  0.00    +0.023 A 
ATOM     33  C   UNL     1      -8.056   3.608  -0.926  0.00  0.00    +0.041 A 
ATOM     34  C   UNL     1      -7.260   3.358  -2.030  0.00  0.00    +0.023 A 
ATOM     35  C   UNL     1      -6.234   2.437  -1.949  0.00  0.00    +0.047 A 
ATOM     36 CL   UNL     1      -9.344   4.766  -1.030  0.00  0.00    -0.084 Cl
ENDBRANCH  29  30
ENDBRANCH  28  29
ENDBRANCH  27  28
ENDBRANCH  25  27
ENDBRANCH   5  25
TORSDOF 9
