REMARK  Name = ZINC38610357
REMARK  8 active torsions:
REMARK  status: ('A' for Active; 'I' for Inactive)
REMARK    1  A    between atoms: C_1  and  C_2
REMARK    2  A    between atoms: C_2  and  C_4
REMARK    3  A    between atoms: C_2  and  N_22
REMARK    4  A    between atoms: N_6  and  C_7
REMARK    5  A    between atoms: C_15  and  C_17
REMARK    6  A    between atoms: C_17  and  O_19
REMARK    7  A    between atoms: O_19  and  C_20
REMARK    8  A    between atoms: C_28  and  C_30
REMARK                            x       y       z     vdW  Elec       q    Type
REMARK                         _______ _______ _______ _____ _____    ______ ____
ROOT
ATOM      1  C   UNL     1       0.696  -0.354   1.331  0.00  0.00    +0.234 C 
ATOM      2  O   UNL     1       1.798  -0.830   1.156  0.00  0.00    -0.274 OA
ATOM      3  N   UNL     1       0.219  -0.202   2.582  0.00  0.00    -0.285 N 
ATOM      4  H   UNL     1      -0.627   0.250   2.726  0.00  0.00    +0.155 HD
ENDROOT
BRANCH   3   5
ATOM      5  C   UNL     1       0.925  -0.682   3.643  0.00  0.00    +0.053 C 
ATOM      6  C   UNL     1       0.650  -0.488   4.986  0.00  0.00    +0.019 A 
ATOM      7  C   UNL     1      -0.375   0.220   5.658  0.00  0.00    +0.026 A 
ATOM      8  C   UNL     1      -0.398   0.243   7.014  0.00  0.00    +0.019 A 
ATOM      9  C   UNL     1       0.570  -0.420   7.775  0.00  0.00    +0.017 A 
ATOM     10  C   UNL     1       1.579  -1.117   7.199  0.00  0.00    +0.027 A 
ATOM     11  C   UNL     1       1.672  -1.187   5.785  0.00  0.00    +0.045 A 
ATOM     12  N   UNL     1       2.540  -1.787   4.996  0.00  0.00    -0.367 N 
ATOM     13  C   UNL     1       2.167  -1.544   3.599  0.00  0.00    +0.234 C 
ATOM     14 BR   UNL     1      -1.774   1.194   7.898  0.00  0.00    -0.050 Br
ATOM     15  H   UNL     1       3.302  -2.309   5.293  0.00  0.00    +0.161 HD
BRANCH  13  16
ATOM     16  C   UNL     1       1.870  -2.848   2.904  0.00  0.00    +0.335 C 
ATOM     17  O   UNL     1       1.492  -3.801   3.543  0.00  0.00    -0.248 OA
BRANCH  16  18
ATOM     18  O   UNL     1       2.025  -2.950   1.575  0.00  0.00    -0.466 OA
ATOM     19  C   UNL     1       1.724  -4.215   0.982  0.00  0.00    +0.280 C 
ENDBRANCH  16  18
ENDBRANCH  13  16
ENDBRANCH   3   5
BRANCH   1  21
ATOM     20  C   UNL     1      -0.446   1.562   0.247  0.00  0.00    +0.034 C 
ATOM     21  C   UNL     1      -0.139   0.066   0.149  0.00  0.00    +0.140 C 
BRANCH  21  22
ATOM     22  N   UNL     1       0.599  -0.202  -1.093  0.00  0.00    -0.289 NA
ATOM     23  C   UNL     1       1.858   0.555  -1.130  0.00  0.00    +0.104 C 
ATOM     24  C   UNL     1       2.679   0.114  -2.346  0.00  0.00    +0.123 C 
ATOM     25  N   UNL     1       1.840   0.242  -3.548  0.00  0.00    -0.293 N 
ATOM     26  C   UNL     1       0.505  -0.375  -3.534  0.00  0.00    +0.123 C 
ATOM     27  C   UNL     1      -0.231   0.085  -2.271  0.00  0.00    +0.104 C 
ATOM     28  C   UNL     1       2.283   0.907  -4.633  0.00  0.00    +0.282 C 
ATOM     29  O   UNL     1       3.335   1.517  -4.585  0.00  0.00    -0.267 OA
BRANCH  28  30
ATOM     30  C   UNL     1       1.498   0.894  -5.872  0.00  0.00    +0.189 A 
ATOM     31  C   UNL     1       1.861   1.467  -7.058  0.00  0.00    +0.054 A 
ATOM     32  C   UNL     1       0.820   1.212  -7.964  0.00  0.00    +0.042 A 
ATOM     33  C   UNL     1      -0.121   0.505  -7.300  0.00  0.00    +0.196 A 
ATOM     34  O   UNL     1       0.294   0.311  -6.041  0.00  0.00    -0.458 OA
ENDBRANCH  28  30
ENDBRANCH  21  22
ENDBRANCH   1  21
TORSDOF 6
