REMARK  Name = ZINC00656623
REMARK  11 active torsions:
REMARK  status: ('A' for Active; 'I' for Inactive)
REMARK    1  A    between atoms: C_1  and  O_2
REMARK    2  A    between atoms: O_2  and  C_3
REMARK    3  A    between atoms: C_6  and  O_9
REMARK    4  A    between atoms: O_9  and  C_10
REMARK    5  A    between atoms: C_10  and  C_11
REMARK    6  A    between atoms: C_13  and  C_19
REMARK    7  A    between atoms: C_16  and  O_17
REMARK    8  A    between atoms: O_17  and  C_18
REMARK    9  A    between atoms: N_20  and  N_21
REMARK   10  A    between atoms: N_21  and  S_22
REMARK   11  A    between atoms: S_22  and  C_25
REMARK                            x       y       z     vdW  Elec       q    Type
REMARK                         _______ _______ _______ _____ _____    ______ ____
ROOT
ATOM      1  C   UNL     1      -1.192  -0.713   0.015  0.00  0.00    +0.032 A 
ATOM      2  C   UNL     1      -1.178  -2.091   0.003  0.00  0.00    +0.020 A 
ATOM      3  C   UNL     1       0.040  -2.775  -0.012  0.00  0.00    -0.005 A 
ATOM      4  C   UNL     1       1.239  -2.058  -0.020  0.00  0.00    +0.013 A 
ATOM      5  C   UNL     1       1.215  -0.680  -0.013  0.00  0.00    +0.046 A 
ATOM      6  C   UNL     1       0.002  -0.004   0.002  0.00  0.00    +0.127 A 
ENDROOT
BRANCH   6   7
ATOM      7  O   UNL     1      -0.016   1.355   0.009  0.00  0.00    -0.495 OA
ATOM      8  C   UNL     1       1.248   2.021   0.001  0.00  0.00    +0.277 C 
ENDBRANCH   6   7
BRANCH   3   9
ATOM      9  C   UNL     1       0.060  -4.250  -0.020  0.00  0.00    +0.139 C 
ATOM     10  N   UNL     1       1.192  -4.883  -0.035  0.00  0.00    -0.174 NA
BRANCH  10  11
ATOM     11  N   UNL     1       1.211  -6.284  -0.043  0.00  0.00    -0.137 N 
ATOM     12  H   UNL     1       0.378  -6.780  -0.037  0.00  0.00    +0.197 HD
BRANCH  11  13
ATOM     13  S   UNL     1       2.656  -7.092  -0.061  0.00  0.00    +0.086 S 
ATOM     14  O   UNL     1       2.351  -8.473   0.080  0.00  0.00    -0.149 OA
ATOM     15  O   UNL     1       3.392  -6.584  -1.166  0.00  0.00    -0.149 OA
BRANCH  13  16
ATOM     16  C   UNL     1       3.536  -6.620   1.390  0.00  0.00    +0.110 A 
ATOM     17  C   UNL     1       4.386  -5.530   1.359  0.00  0.00    +0.030 A 
ATOM     18  C   UNL     1       5.073  -5.156   2.499  0.00  0.00    +0.017 A 
ATOM     19  C   UNL     1       4.918  -5.879   3.668  0.00  0.00    +0.018 A 
ATOM     20  C   UNL     1       4.071  -6.973   3.697  0.00  0.00    +0.017 A 
ATOM     21  C   UNL     1       3.381  -7.343   2.558  0.00  0.00    +0.030 A 
ATOM     22 BR   UNL     1       5.862  -5.372   5.226  0.00  0.00    -0.050 Br
ENDBRANCH  13  16
ENDBRANCH  11  13
ENDBRANCH  10  11
ENDBRANCH   3   9
BRANCH   1  23
ATOM     23  C   UNL     1      -2.505   0.027   0.038  0.00  0.00    +0.268 C 
BRANCH  23  24
ATOM     24  O   UNL     1      -3.581  -0.914   0.048  0.00  0.00    -0.487 OA
BRANCH  24  28
ATOM     25  C   UNL     1      -7.412   0.622   0.111  0.00  0.00    +0.120 A 
ATOM     26  C   UNL     1      -7.215  -0.751   0.101  0.00  0.00    +0.049 A 
ATOM     27  C   UNL     1      -5.934  -1.265   0.080  0.00  0.00    +0.049 A 
ATOM     28  C   UNL     1      -4.843  -0.408   0.069  0.00  0.00    +0.121 A 
ATOM     29  C   UNL     1      -5.040   0.965   0.084  0.00  0.00    +0.049 A 
ATOM     30  C   UNL     1      -6.322   1.479   0.100  0.00  0.00    +0.049 A 
BRANCH  25  32
ATOM     31  C   UNL     1      -8.803   2.551   0.141  0.00  0.00    +0.277 C 
ATOM     32  O   UNL     1      -8.674   1.128   0.131  0.00  0.00    -0.495 OA
ENDBRANCH  25  32
ENDBRANCH  24  28
ENDBRANCH  23  24
ENDBRANCH   1  23
TORSDOF 9
