REMARK  Name = ZINC35421194
REMARK  13 active torsions:
REMARK  status: ('A' for Active; 'I' for Inactive)
REMARK    1  A    between atoms: C_1  and  C_2
REMARK    2  A    between atoms: C_2  and  C_3
REMARK    3  A    between atoms: C_3  and  C_4
REMARK    4  A    between atoms: C_4  and  O_5
REMARK    5  A    between atoms: O_5  and  C_6
REMARK    6  A    between atoms: C_9  and  C_15
REMARK    7  A    between atoms: C_11  and  O_12
REMARK    8  A    between atoms: O_12  and  C_13
REMARK    9  A    between atoms: C_13  and  C_14
REMARK   10  A    between atoms: C_17  and  C_29
REMARK   11  A    between atoms: C_25  and  C_27
REMARK   12  A    between atoms: C_29  and  C_31
REMARK   13  A    between atoms: C_32  and  C_33
REMARK                            x       y       z     vdW  Elec       q    Type
REMARK                         _______ _______ _______ _____ _____    ______ ____
ROOT
ATOM      1  C   UNL     1       1.355  -7.422  -2.317  0.00  0.00    +0.152 C 
ATOM      2  C   UNL     1       2.639  -7.993  -1.762  0.00  0.00    +0.076 C 
ATOM      3  C   UNL     1       2.293  -9.037  -0.972  0.00  0.00    +0.250 C 
ATOM      4  C   UNL     1       0.825  -9.184  -0.978  0.00  0.00    +0.293 C 
ATOM      5  O   UNL     1       0.207 -10.031  -0.363  0.00  0.00    -0.266 OA
ATOM      6  N   UNL     1       0.270  -8.242  -1.764  0.00  0.00    -0.230 N 
ATOM      7  C   UNL     1      -1.086  -8.075  -2.010  0.00  0.00    +0.191 A 
ATOM      8  N   UNL     1      -1.713  -7.186  -2.768  0.00  0.00    -0.125 NA
ATOM      9  N   UNL     1      -2.970  -7.177  -2.882  0.00  0.00    -0.145 NA
ATOM     10  C   UNL     1      -3.738  -8.046  -2.255  0.00  0.00    +0.101 A 
ATOM     11  S   UNL     1      -2.490  -9.004  -1.399  0.00  0.00    -0.035 S 
ATOM     12  C   UNL     1      -5.237  -8.195  -2.262  0.00  0.00    +0.075 C 
ATOM     13  O   UNL     1       3.157  -9.820  -0.285  0.00  0.00    -0.282 OA
ENDROOT
BRANCH   1  17
ATOM     14  C   UNL     1       0.900  -3.352  -1.087  0.00  0.00    +0.162 A 
ATOM     15  C   UNL     1       1.159  -3.653  -2.414  0.00  0.00    +0.050 A 
ATOM     16  C   UNL     1       1.306  -4.970  -2.809  0.00  0.00    +0.009 A 
ATOM     17  C   UNL     1       1.194  -5.989  -1.881  0.00  0.00    -0.018 A 
ATOM     18  C   UNL     1       0.935  -5.695  -0.555  0.00  0.00    +0.055 A 
ATOM     19  C   UNL     1       0.793  -4.377  -0.152  0.00  0.00    +0.162 A 
BRANCH  14  20
ATOM     20  O   UNL     1       0.755  -2.057  -0.697  0.00  0.00    -0.488 OA
BRANCH  20  21
ATOM     21  C   UNL     1       0.877  -1.057  -1.711  0.00  0.00    +0.229 C 
BRANCH  21  22
ATOM     22  C   UNL     1       0.686   0.327  -1.087  0.00  0.00    +0.041 C 
BRANCH  22  24
ATOM     23  C   UNL     1       0.626   2.782  -1.549  0.00  0.00    +0.004 C 
ATOM     24  C   UNL     1       0.817   1.398  -2.173  0.00  0.00    -0.000 C 
ENDBRANCH  22  24
ENDBRANCH  21  22
ENDBRANCH  20  21
ENDBRANCH  14  20
BRANCH  19  25
ATOM     25  O   UNL     1       0.544  -4.087   1.153  0.00  0.00    -0.489 OA
BRANCH  25  26
ATOM     26  C   UNL     1       0.552  -5.179   2.074  0.00  0.00    +0.226 C 
ATOM     27  C   UNL     1       0.174  -4.675   3.467  0.00  0.00    +0.048 C 
ENDBRANCH  25  26
ENDBRANCH  19  25
ENDBRANCH   1  17
BRANCH   2  28
ATOM     28  C   UNL     1       3.999  -7.510  -2.028  0.00  0.00    +0.188 C 
ATOM     29  O   UNL     1       4.945  -7.993  -1.431  0.00  0.00    -0.287 OA
BRANCH  28  30
ATOM     30  C   UNL     1       4.219  -6.448  -3.010  0.00  0.00    +0.052 C 
ATOM     31  C   UNL     1       5.475  -6.040  -3.295  0.00  0.00    +0.011 C 
BRANCH  31  32
ATOM     32  C   UNL     1       5.691  -4.895  -4.192  0.00  0.00    -0.025 A 
ATOM     33  C   UNL     1       4.602  -4.149  -4.655  0.00  0.00    +0.008 A 
ATOM     34  C   UNL     1       4.813  -3.077  -5.496  0.00  0.00    +0.001 A 
ATOM     35  C   UNL     1       6.098  -2.738  -5.882  0.00  0.00    +0.000 A 
ATOM     36  C   UNL     1       7.181  -3.470  -5.428  0.00  0.00    +0.001 A 
ATOM     37  C   UNL     1       6.988  -4.542  -4.582  0.00  0.00    +0.008 A 
ENDBRANCH  31  32
ENDBRANCH  28  30
ENDBRANCH   2  28
TORSDOF 10
