REMARK  Name = ZINC33808537
REMARK  5 active torsions:
REMARK  status: ('A' for Active; 'I' for Inactive)
REMARK    1  A    between atoms: C_1  and  C_2
REMARK    2  A    between atoms: C_5  and  C_22
REMARK    3  A    between atoms: C_6  and  C_7
REMARK    4  A    between atoms: C_6  and  C_8
REMARK    5  A    between atoms: C_27  and  C_30
REMARK                            x       y       z     vdW  Elec       q    Type
REMARK                         _______ _______ _______ _____ _____    ______ ____
ROOT
ATOM      1  C   UNL     1      -0.019   1.526   0.010  0.00  0.00    +0.018 C 
ATOM      2  C   UNL     1       0.002  -0.004   0.002  0.00  0.00    +0.018 C 
ATOM      3  C   UNL     1       0.742  -0.677  -1.197  0.00  0.00    +0.015 C 
ATOM      4  C   UNL     1       1.004  -2.123  -0.714  0.00  0.00    +0.024 C 
ATOM      5  C   UNL     1       0.392  -2.161   0.722  0.00  0.00    +0.097 C 
ATOM      6  C   UNL     1       0.727  -0.704   1.210  0.00  0.00    -0.005 C 
ATOM      7  C   UNL     1       0.082  -0.359   2.554  0.00  0.00    +0.013 C 
ATOM      8  C   UNL     1       2.234  -0.443   1.214  0.00  0.00    +0.013 C 
ATOM      9  C   UNL     1      -1.116  -2.026   0.492  0.00  0.00    +0.079 A 
ATOM     10  C   UNL     1      -1.360  -0.699   0.069  0.00  0.00    +0.071 A 
ATOM     11  N   UNL     1      -2.570  -0.282  -0.201  0.00  0.00    -0.248 NA
ATOM     12  C   UNL     1      -3.605  -1.119  -0.054  0.00  0.00    +0.093 A 
ATOM     13  C   UNL     1      -4.917  -0.702  -0.336  0.00  0.00    +0.079 A 
ATOM     14  C   UNL     1      -5.955  -1.572  -0.177  0.00  0.00    +0.168 A 
ATOM     15  C   UNL     1      -5.728  -2.888   0.266  0.00  0.00    +0.168 A 
ATOM     16  C   UNL     1      -4.465  -3.320   0.546  0.00  0.00    +0.079 A 
ATOM     17  C   UNL     1      -3.376  -2.446   0.393  0.00  0.00    +0.093 A 
ATOM     18  N   UNL     1      -2.101  -2.875   0.632  0.00  0.00    -0.247 NA
ATOM     19  O   UNL     1      -6.930  -3.533   0.336  0.00  0.00    -0.453 OA
ATOM     20  C   UNL     1      -7.926  -2.493   0.332  0.00  0.00    +0.466 C 
ATOM     21  O   UNL     1      -7.296  -1.412  -0.381  0.00  0.00    -0.453 OA
ENDROOT
BRANCH   5  22
ATOM     22  C   UNL     1       0.847  -3.290   1.610  0.00  0.00    +0.231 C 
ATOM     23  O   UNL     1       1.423  -3.049   2.650  0.00  0.00    -0.274 OA
ATOM     24  N   UNL     1       0.614  -4.567   1.249  0.00  0.00    -0.264 N 
ATOM     25  C   UNL     1       1.034  -5.608   2.069  0.00  0.00    +0.165 A 
ATOM     26  N   UNL     1       0.909  -6.911   1.894  0.00  0.00    -0.225 NA
ATOM     27  C   UNL     1       1.374  -7.772   2.787  0.00  0.00    +0.080 A 
ATOM     28  C   UNL     1       1.995  -7.303   3.911  0.00  0.00    +0.076 A 
ATOM     29  S   UNL     1       1.894  -5.539   3.634  0.00  0.00    -0.060 S 
ATOM     30  H   UNL     1       0.154  -4.760   0.418  0.00  0.00    +0.157 HD
BRANCH  27  31
ATOM     31  C   UNL     1       1.221  -9.231   2.570  0.00  0.00    +0.001 A 
ATOM     32  C   UNL     1       1.706 -10.134   3.515  0.00  0.00    +0.010 A 
ATOM     33  C   UNL     1       1.561 -11.490   3.307  0.00  0.00    +0.001 A 
ATOM     34  C   UNL     1       0.937 -11.955   2.164  0.00  0.00    +0.000 A 
ATOM     35  C   UNL     1       0.454 -11.064   1.222  0.00  0.00    +0.001 A 
ATOM     36  C   UNL     1       0.587  -9.705   1.423  0.00  0.00    +0.010 A 
ENDBRANCH  27  31
ENDBRANCH   5  22
TORSDOF 2
