REMARK  Name = ZINC63385215
REMARK  9 active torsions:
REMARK  status: ('A' for Active; 'I' for Inactive)
REMARK    1  A    between atoms: C_1  and  O_2
REMARK    2  A    between atoms: O_2  and  C_3
REMARK    3  A    between atoms: C_9  and  C_12
REMARK    4  A    between atoms: C_12  and  C_13
REMARK    5  A    between atoms: C_13  and  N_14
REMARK    6  A    between atoms: C_15  and  C_17
REMARK    7  A    between atoms: C_17  and  O_18
REMARK    8  A    between atoms: O_18  and  C_19
REMARK    9  A    between atoms: C_23  and  C_30
REMARK                            x       y       z     vdW  Elec       q    Type
REMARK                         _______ _______ _______ _____ _____    ______ ____
ROOT
ATOM      1  C   UNL     1      -2.367  -8.584  -0.999  0.00  0.00    +0.324 C 
ENDROOT
BRANCH   1   3
ATOM      2  N   UNL     1      -0.752  -6.781  -1.509  0.00  0.00    -0.312 N 
ATOM      3  C   UNL     1      -1.922  -7.385  -1.796  0.00  0.00    +0.251 C 
ATOM      4  O   UNL     1      -2.617  -6.964  -2.697  0.00  0.00    -0.272 OA
ATOM      5  H   UNL     1      -0.196  -7.118  -0.789  0.00  0.00    +0.149 HD
BRANCH   2   6
ATOM      6  C   UNL     1      -0.319  -5.616  -2.284  0.00  0.00    +0.108 C 
BRANCH   6   7
ATOM      7  C   UNL     1       1.031  -5.126  -1.758  0.00  0.00    +0.052 C 
BRANCH   7  14
ATOM      8  C   UNL     1       0.606  -0.607  -1.056  0.00  0.00    +0.121 A 
ATOM      9  C   UNL     1       1.172   0.195  -2.062  0.00  0.00    +0.047 A 
ATOM     10  C   UNL     1       1.790  -0.325  -3.144  0.00  0.00    +0.029 A 
ATOM     11  C   UNL     1       1.886  -1.780  -3.299  0.00  0.00    +0.043 A 
ATOM     12  N   UNL     1       2.419  -2.528  -4.232  0.00  0.00    -0.380 N 
ATOM     13  C   UNL     1       2.222  -3.937  -3.871  0.00  0.00    +0.144 C 
ATOM     14  C   UNL     1       1.476  -3.927  -2.555  0.00  0.00    -0.040 C 
ATOM     15  C   UNL     1       1.290  -2.626  -2.239  0.00  0.00    +0.002 A 
ATOM     16  C   UNL     1       0.646  -1.960  -1.102  0.00  0.00    +0.055 A 
ATOM     17  H   UNL     1       2.869  -2.205  -5.029  0.00  0.00    +0.160 HD
BRANCH   8  19
ATOM     18  C   UNL     1      -0.017   1.425   0.010  0.00  0.00    +0.277 C 
ATOM     19  O   UNL     1       0.002  -0.004   0.002  0.00  0.00    -0.495 OA
ENDBRANCH   8  19
ENDBRANCH   7  14
ENDBRANCH   6   7
ENDBRANCH   2   6
ENDBRANCH   1   3
BRANCH   1  20
ATOM     20  O   UNL     1      -3.629  -9.041  -1.490  0.00  0.00    -0.483 OA
BRANCH  20  21
ATOM     21  C   UNL     1      -4.174 -10.122  -0.876  0.00  0.00    +0.125 A 
ATOM     22  C   UNL     1      -3.504 -10.725   0.186  0.00  0.00    +0.046 A 
ATOM     23  C   UNL     1      -4.040 -11.813   0.812  0.00  0.00    +0.016 A 
ATOM     24  C   UNL     1      -5.269 -12.325   0.387  0.00  0.00    +0.026 A 
ATOM     25  C   UNL     1      -5.871 -13.496   1.044  0.00  0.00    -0.000 A 
ATOM     26  C   UNL     1      -7.089 -13.948   0.571  0.00  0.00    +0.101 A 
ATOM     27  C   UNL     1      -7.702 -13.284  -0.505  0.00  0.00    +0.338 A 
ATOM     28  O   UNL     1      -8.776 -13.689  -0.916  0.00  0.00    -0.245 OA
ATOM     29  O   UNL     1      -7.139 -12.217  -1.092  0.00  0.00    -0.422 OA
ATOM     30  C   UNL     1      -5.951 -11.721  -0.683  0.00  0.00    +0.143 A 
ATOM     31  C   UNL     1      -5.396 -10.613  -1.306  0.00  0.00    +0.092 A 
BRANCH  25  32
ATOM     32  C   UNL     1      -5.194 -14.169   2.175  0.00  0.00    -0.017 A 
ATOM     33  C   UNL     1      -5.012 -13.496   3.384  0.00  0.00    +0.008 A 
ATOM     34  C   UNL     1      -4.380 -14.129   4.434  0.00  0.00    +0.001 A 
ATOM     35  C   UNL     1      -3.928 -15.429   4.291  0.00  0.00    +0.000 A 
ATOM     36  C   UNL     1      -4.105 -16.102   3.095  0.00  0.00    +0.001 A 
ATOM     37  C   UNL     1      -4.741 -15.482   2.039  0.00  0.00    +0.008 A 
ENDBRANCH  25  32
ENDBRANCH  20  21
ENDBRANCH   1  20
TORSDOF 8
