REMARK  Name = ZINC40044229
REMARK  13 active torsions:
REMARK  status: ('A' for Active; 'I' for Inactive)
REMARK    1  A    between atoms: C_1  and  C_2
REMARK    2  A    between atoms: C_2  and  C_3
REMARK    3  A    between atoms: C_3  and  O_4
REMARK    4  A    between atoms: O_4  and  C_5
REMARK    5  A    between atoms: C_8  and  C_14
REMARK    6  A    between atoms: C_10  and  O_11
REMARK    7  A    between atoms: O_11  and  C_12
REMARK    8  A    between atoms: C_12  and  C_13
REMARK    9  A    between atoms: C_21  and  C_38
REMARK   10  A    between atoms: N_29  and  C_30
REMARK   11  A    between atoms: C_30  and  C_31
REMARK   12  A    between atoms: C_34  and  C_37
REMARK   13  A    between atoms: C_38  and  C_39
REMARK                            x       y       z     vdW  Elec       q    Type
REMARK                         _______ _______ _______ _____ _____    ______ ____
ROOT
ATOM      1  C   UNL     1       3.243  -4.423  -5.653  0.00  0.00    +0.145 C 
ATOM      2  C   UNL     1       4.727  -4.373  -5.496  0.00  0.00    +0.072 A 
ATOM      3  C   UNL     1       5.608  -4.917  -4.457  0.00  0.00    +0.199 A 
ATOM      4  O   UNL     1       5.225  -5.686  -3.593  0.00  0.00    -0.287 OA
ATOM      5  C   UNL     1       7.011  -4.441  -4.558  0.00  0.00    +0.065 A 
ATOM      6  C   UNL     1       7.922  -4.707  -3.536  0.00  0.00    +0.019 A 
ATOM      7  C   UNL     1       9.209  -4.258  -3.641  0.00  0.00    -0.047 A 
ATOM      8  C   UNL     1       9.609  -3.540  -4.760  0.00  0.00    +0.007 A 
ATOM      9  C   UNL     1       8.723  -3.270  -5.779  0.00  0.00    +0.047 A 
ATOM     10  C   UNL     1       7.405  -3.720  -5.696  0.00  0.00    +0.139 A 
ATOM     11  O   UNL     1       6.554  -3.453  -6.713  0.00  0.00    -0.450 OA
ATOM     12  C   UNL     1       5.235  -3.673  -6.554  0.00  0.00    +0.199 A 
ATOM     13  C   UNL     1       4.112  -3.252  -7.410  0.00  0.00    +0.283 C 
ATOM     14  O   UNL     1       4.222  -2.607  -8.434  0.00  0.00    -0.267 OA
ATOM     15  N   UNL     1       2.944  -3.687  -6.893  0.00  0.00    -0.279 N 
ENDROOT
BRANCH   1  19
ATOM     16  C   UNL     1       1.342  -2.530  -2.323  0.00  0.00    +0.162 A 
ATOM     17  C   UNL     1       1.908  -1.763  -3.329  0.00  0.00    +0.050 A 
ATOM     18  C   UNL     1       2.522  -2.378  -4.404  0.00  0.00    +0.009 A 
ATOM     19  C   UNL     1       2.573  -3.758  -4.479  0.00  0.00    -0.019 A 
ATOM     20  C   UNL     1       2.009  -4.529  -3.479  0.00  0.00    +0.055 A 
ATOM     21  C   UNL     1       1.397  -3.918  -2.396  0.00  0.00    +0.162 A 
BRANCH  16  22
ATOM     22  O   UNL     1       0.738  -1.926  -1.265  0.00  0.00    -0.488 OA
BRANCH  22  23
ATOM     23  C   UNL     1       0.718  -0.497  -1.257  0.00  0.00    +0.229 C 
BRANCH  23  25
ATOM     24  C   UNL     1      -0.019   1.526   0.010  0.00  0.00    +0.007 C 
ATOM     25  C   UNL     1       0.002  -0.004   0.002  0.00  0.00    +0.038 C 
ENDBRANCH  23  25
ENDBRANCH  22  23
ENDBRANCH  16  22
BRANCH  21  26
ATOM     26  O   UNL     1       0.847  -4.675  -1.408  0.00  0.00    -0.489 OA
BRANCH  26  27
ATOM     27  C   UNL     1       0.942  -6.094  -1.549  0.00  0.00    +0.226 C 
ATOM     28  C   UNL     1       0.273  -6.771  -0.352  0.00  0.00    +0.048 C 
ENDBRANCH  26  27
ENDBRANCH  21  26
ENDBRANCH   1  19
BRANCH   7  29
ATOM     29  C   UNL     1      10.197  -4.543  -2.539  0.00  0.00    +0.032 C 
ATOM     30  C   UNL     1      10.906  -5.869  -2.821  0.00  0.00    +0.009 C 
ENDBRANCH   7  29
BRANCH  15  31
ATOM     31  C   UNL     1       1.612  -3.466  -7.462  0.00  0.00    +0.144 C 
BRANCH  31  32
ATOM     32  C   UNL     1       1.037  -2.186  -6.914  0.00  0.00    -0.030 A 
ATOM     33  C   UNL     1       0.289  -2.207  -5.752  0.00  0.00    +0.005 A 
ATOM     34  C   UNL     1      -0.239  -1.032  -5.248  0.00  0.00    +0.003 A 
ATOM     35  C   UNL     1      -0.018   0.163  -5.907  0.00  0.00    -0.050 A 
ATOM     36  C   UNL     1       0.732   0.184  -7.069  0.00  0.00    +0.003 A 
ATOM     37  C   UNL     1       1.263  -0.990  -7.569  0.00  0.00    +0.005 A 
ATOM     38  C   UNL     1      -0.594   1.443  -5.359  0.00  0.00    +0.044 C 
ENDBRANCH  31  32
ENDBRANCH  15  31
TORSDOF 9
