REMARK  Name = ZINC40591349
REMARK  7 active torsions:
REMARK  status: ('A' for Active; 'I' for Inactive)
REMARK    1  A    between atoms: CG1_1  and  CB_2
REMARK    2  A    between atoms: CB_2  and  CG2_3
REMARK    3  A    between atoms: CB_2  and  CA_4
REMARK    4  A    between atoms: CA_4  and  C_6
REMARK    5  A    between atoms: CA_4  and  N_9
REMARK    6  A    between atoms: N_12  and  C_13
REMARK    7  A    between atoms: N_12  and  C_14
REMARK                            x       y       z     vdW  Elec       q    Type
REMARK                         _______ _______ _______ _____ _____    ______ ____
ROOT
ATOM      1  N   VAL A   1       0.056  -0.038   2.447  0.00  0.00    -0.286 N 
ATOM      2  C   UNK A   0       0.738   0.093   3.602  0.00  0.00    +0.303 C 
ATOM      3  O   UNK A   0       1.922  -0.180   3.644  0.00  0.00    -0.253 OA
ATOM      4  N   UNK A   0       0.107   0.528   4.711  0.00  0.00    -0.284 N 
ATOM      5  C   UNK A   0      -1.319   0.857   4.661  0.00  0.00    +0.134 C 
ATOM      6  H   VAL A   1      -0.888   0.180   2.413  0.00  0.00    +0.151 HD
ENDROOT
BRANCH   4   7
ATOM      7  C   UNK A   0       0.848   0.671   5.967  0.00  0.00    +0.100 C 
ATOM      8  C   UNK A   0       0.776   2.133   6.438  0.00  0.00    +0.047 C 
ATOM      9  C   UNK A   0       1.290   2.195   7.905  0.00  0.00    +0.168 C 
ATOM     10  S   UNK A   0       0.516   0.672   8.597  0.00  0.00    -0.029 S 
ATOM     11  O   UNK A   0      -0.739   1.011   9.171  0.00  0.00    -0.174 OA
ATOM     12  O   UNK A   0       1.479  -0.021   9.380  0.00  0.00    -0.174 OA
ATOM     13  C   UNK A   0       0.228  -0.259   7.038  0.00  0.00    +0.188 C 
ENDBRANCH   4   7
BRANCH   1  14
ATOM     14  CA  VAL A   1       0.742  -0.511   1.242  0.00  0.00    +0.190 C 
BRANCH  14  16
ATOM     15  CG1 VAL A   1      -0.019   1.526   0.010  0.00  0.00    +0.009 C 
ATOM     16  CB  VAL A   1       0.002  -0.004   0.002  0.00  0.00    +0.014 C 
ATOM     17  CG2 VAL A   1       0.718  -0.497  -1.257  0.00  0.00    +0.009 C 
ENDBRANCH  14  16
BRANCH  14  18
ATOM     18  C   VAL A   1       0.762  -2.018   1.233  0.00  0.00    +0.376 C 
ATOM     19  O   VAL A   1       1.680  -2.612   0.693  0.00  0.00    -0.244 OA
ATOM     20  OXT VAL A   1      -0.139  -2.643   1.766  0.00  0.00    -0.244 OA
ENDBRANCH  14  18
ENDBRANCH   1  14
TORSDOF 4
