REMARK  Name = ZINC43187464
REMARK  5 active torsions:
REMARK  status: ('A' for Active; 'I' for Inactive)
REMARK    1  A    between atoms: C_1  and  C_2
REMARK    2  A    between atoms: C_5  and  N_9
REMARK    3  A    between atoms: N_12  and  C_13
REMARK    4  A    between atoms: C_13  and  C_15
REMARK    5  A    between atoms: C_13  and  C_16
REMARK                            x       y       z     vdW  Elec       q    Type
REMARK                         _______ _______ _______ _____ _____    ______ ____
ROOT
ATOM      1  N   UNL     1       0.059  -4.171  -0.023  0.00  0.00    -0.268 N 
ATOM      2  C   UNL     1      -0.040  -4.839  -1.190  0.00  0.00    +0.304 C 
ATOM      3  O   UNL     1      -0.054  -4.229  -2.241  0.00  0.00    -0.252 OA
ATOM      4  N   UNL     1      -0.124  -6.184  -1.190  0.00  0.00    -0.293 N 
ATOM      5  H   UNL     1       0.135  -4.660   0.811  0.00  0.00    +0.156 HD
ATOM      6  H   UNL     1      -0.113  -6.672  -0.352  0.00  0.00    +0.151 HD
ENDROOT
BRANCH   1  11
ATOM      7  C   UNL     1       0.027   1.503   0.005  0.00  0.00    +0.044 C 
ATOM      8  C   UNL     1       0.035  -0.004  -0.002  0.00  0.00    -0.049 A 
ATOM      9  C   UNL     1       0.632  -0.685  -1.046  0.00  0.00    +0.005 A 
ATOM     10  C   UNL     1       0.641  -2.067  -1.056  0.00  0.00    +0.025 A 
ATOM     11  C   UNL     1       0.051  -2.771  -0.016  0.00  0.00    +0.053 A 
ATOM     12  C   UNL     1      -0.548  -2.084   1.033  0.00  0.00    +0.062 A 
ATOM     13  C   UNL     1      -0.550  -0.702   1.039  0.00  0.00    +0.025 A 
ATOM     14 CL   UNL     1      -1.288  -2.960   2.336  0.00  0.00    -0.082 Cl
ENDBRANCH   1  11
BRANCH   4  15
ATOM     15  C   UNL     1      -0.232  -6.911  -2.458  0.00  0.00    +0.102 C 
ATOM     16  C   UNL     1      -1.698  -6.966  -2.892  0.00  0.00    +0.033 C 
BRANCH  15  17
ATOM     17  C   UNL     1       0.292  -8.312  -2.280  0.00  0.00    -0.024 A 
ATOM     18  C   UNL     1       0.006  -9.014  -1.124  0.00  0.00    +0.009 A 
ATOM     19  C   UNL     1       0.484 -10.300  -0.956  0.00  0.00    +0.050 A 
ATOM     20  C   UNL     1       1.252 -10.889  -1.947  0.00  0.00    +0.166 A 
ATOM     21  C   UNL     1       1.540 -10.183  -3.112  0.00  0.00    +0.167 A 
ATOM     22  C   UNL     1       1.053  -8.896  -3.276  0.00  0.00    +0.055 A 
ATOM     23  O   UNL     1       2.303 -10.972  -3.924  0.00  0.00    -0.453 OA
ATOM     24  C   UNL     1       2.820 -12.012  -3.073  0.00  0.00    +0.466 C 
ATOM     25  O   UNL     1       1.835 -12.121  -2.029  0.00  0.00    -0.453 OA
ENDBRANCH  15  17
ENDBRANCH   4  15
TORSDOF 3
