REMARK  Name = ZINC39887305
REMARK  8 active torsions:
REMARK  status: ('A' for Active; 'I' for Inactive)
REMARK    1  A    between atoms: C_1  and  C_2
REMARK    2  A    between atoms: C_2  and  C_3
REMARK    3  A    between atoms: C_2  and  C_4
REMARK    4  A    between atoms: C_7  and  N_10
REMARK    5  A    between atoms: C_11  and  C_21
REMARK    6  A    between atoms: C_16  and  C_19
REMARK    7  A    between atoms: C_24  and  C_26
REMARK    8  A    between atoms: C_28  and  C_33
REMARK                            x       y       z     vdW  Elec       q    Type
REMARK                         _______ _______ _______ _____ _____    ______ ____
ROOT
ATOM      1  N   UNL     1      -5.320  -1.967   0.042  0.00  0.00    -0.267 N 
ATOM      2  C   UNL     1      -5.842  -2.729  -1.097  0.00  0.00    +0.234 C 
ATOM      3  N   UNL     1      -6.548  -3.917  -0.614  0.00  0.00    -0.286 N 
ATOM      4  C   UNL     1      -7.177  -3.905   0.578  0.00  0.00    +0.258 C 
ATOM      5  O   UNL     1      -7.798  -4.883   0.954  0.00  0.00    -0.269 OA
ATOM      6  C   UNL     1      -7.110  -2.708   1.420  0.00  0.00    +0.142 C 
ATOM      7  C   UNL     1      -6.139  -1.741   1.120  0.00  0.00    +0.103 C 
ATOM      8  S   UNL     1      -5.982  -0.281   2.094  0.00  0.00    -0.033 SA
ATOM      9  H   UNL     1      -6.564  -4.721  -1.157  0.00  0.00    +0.151 HD
ENDROOT
BRANCH   1  13
ATOM     10  C   UNL     1      -1.412  -0.524   0.013  0.00  0.00    -0.045 A 
ATOM     11  C   UNL     1      -2.344  -0.011  -0.871  0.00  0.00    +0.006 A 
ATOM     12  C   UNL     1      -3.640  -0.487  -0.864  0.00  0.00    +0.024 A 
ATOM     13  C   UNL     1      -4.008  -1.483   0.032  0.00  0.00    +0.037 A 
ATOM     14  C   UNL     1      -3.070  -1.996   0.919  0.00  0.00    +0.024 A 
ATOM     15  C   UNL     1      -1.774  -1.519   0.903  0.00  0.00    +0.006 A 
BRANCH  10  17
ATOM     16  C   UNL     1       0.622  -0.239  -1.376  0.00  0.00    +0.012 C 
ATOM     17  C   UNL     1       0.002  -0.003   0.002  0.00  0.00    +0.013 C 
ATOM     18  C   UNL     1      -0.006   1.496   0.308  0.00  0.00    +0.012 C 
ENDBRANCH  10  17
ENDBRANCH   1  13
BRANCH   2  19
ATOM     19  C   UNL     1      -6.795  -1.866  -1.883  0.00  0.00    +0.144 A 
ATOM     20  C   UNL     1      -7.857  -2.307  -2.585  0.00  0.00    +0.049 A 
ATOM     21  C   UNL     1      -8.469  -1.176  -3.162  0.00  0.00    +0.050 A 
ATOM     22  C   UNL     1      -7.739  -0.096  -2.775  0.00  0.00    +0.137 A 
ATOM     23  O   UNL     1      -6.730  -0.530  -1.996  0.00  0.00    -0.456 OA
BRANCH  22  24
ATOM     24  C   UNL     1      -8.009   1.310  -3.143  0.00  0.00    +0.036 A 
ATOM     25  C   UNL     1      -8.048   2.297  -2.157  0.00  0.00    +0.025 A 
ATOM     26  C   UNL     1      -8.301   3.607  -2.506  0.00  0.00    +0.056 A 
ATOM     27  C   UNL     1      -8.515   3.945  -3.831  0.00  0.00    +0.014 A 
ATOM     28  C   UNL     1      -8.478   2.972  -4.814  0.00  0.00    +0.021 A 
ATOM     29  C   UNL     1      -8.220   1.657  -4.479  0.00  0.00    +0.052 A 
ATOM     30 CL   UNL     1      -8.167   0.439  -5.714  0.00  0.00    -0.083 Cl
BRANCH  26  31
ATOM     31  C   UNL     1      -8.344   4.674  -1.443  0.00  0.00    +0.417 C 
ATOM     32  F   UNL     1      -7.064   5.212  -1.270  0.00  0.00    -0.166 F 
ATOM     33  F   UNL     1      -9.226   5.687  -1.834  0.00  0.00    -0.166 F 
ATOM     34  F   UNL     1      -8.781   4.114  -0.238  0.00  0.00    -0.166 F 
ENDBRANCH  26  31
ENDBRANCH  22  24
ENDBRANCH   2  19
BRANCH   6  35
ATOM     35  C   UNL     1      -8.008  -2.532   2.522  0.00  0.00    +0.107 C 
ATOM     36  N   UNL     1      -8.720  -2.393   3.395  0.00  0.00    -0.191 NA
ENDBRANCH   6  35
TORSDOF 6
