REMARK  Name = ZINC28720987
REMARK  11 active torsions:
REMARK  status: ('A' for Active; 'I' for Inactive)
REMARK    1  A    between atoms: C_1  and  C_2
REMARK    2  A    between atoms: C_2  and  C_3
REMARK    3  A    between atoms: C_2  and  C_4
REMARK    4  A    between atoms: C_7  and  N_10
REMARK    5  A    between atoms: N_12  and  C_33
REMARK    6  A    between atoms: C_15  and  C_18
REMARK    7  A    between atoms: C_18  and  C_19
REMARK    8  A    between atoms: N_21  and  C_22
REMARK    9  A    between atoms: C_24  and  N_30
REMARK   10  A    between atoms: C_27  and  O_28
REMARK   11  A    between atoms: O_28  and  C_29
REMARK                            x       y       z     vdW  Elec       q    Type
REMARK                         _______ _______ _______ _____ _____    ______ ____
ROOT
ATOM      1  N   UNL     1      -6.303  -0.208   0.577  0.00  0.00    -0.226 NA
ATOM      2  C   UNL     1      -6.497  -1.153   1.466  0.00  0.00    +0.164 C 
ATOM      3  N   UNL     1      -7.369  -2.219   1.399  0.00  0.00    -0.247 N 
ATOM      4  C   UNL     1      -7.472  -3.111   2.369  0.00  0.00    +0.235 C 
ATOM      5  O   UNL     1      -8.240  -4.048   2.305  0.00  0.00    -0.274 OA
ATOM      6  C   UNL     1      -6.567  -2.890   3.570  0.00  0.00    +0.149 C 
ATOM      7  S   UNL     1      -5.689  -1.365   3.045  0.00  0.00    -0.077 S 
ENDROOT
BRANCH   1  11
ATOM      8  C   UNL     1      -3.532   2.780   1.304  0.00  0.00    -0.045 A 
ATOM      9  C   UNL     1      -4.410   2.397   2.302  0.00  0.00    +0.006 A 
ATOM     10  C   UNL     1      -5.340   1.405   2.065  0.00  0.00    +0.028 A 
ATOM     11  C   UNL     1      -5.386   0.781   0.817  0.00  0.00    +0.067 A 
ATOM     12  C   UNL     1      -4.494   1.168  -0.184  0.00  0.00    +0.028 A 
ATOM     13  C   UNL     1      -3.572   2.164   0.065  0.00  0.00    +0.006 A 
BRANCH   8  15
ATOM     14  C   UNL     1      -3.252   5.162   1.931  0.00  0.00    +0.012 C 
ATOM     15  C   UNL     1      -2.523   3.867   1.569  0.00  0.00    +0.013 C 
ATOM     16  C   UNL     1      -1.616   3.450   2.728  0.00  0.00    +0.012 C 
ENDBRANCH   8  15
ENDBRANCH   1  11
BRANCH   3  17
ATOM     17  C   UNL     1      -8.211  -2.369   0.209  0.00  0.00    +0.084 C 
ATOM     18  C   UNL     1      -7.840  -1.548  -1.027  0.00  0.00    +0.025 C 
ATOM     19  C   UNL     1      -9.073  -1.173  -0.201  0.00  0.00    +0.025 C 
ENDBRANCH   3  17
BRANCH   6  20
ATOM     20  C   UNL     1      -7.383  -2.656   4.843  0.00  0.00    +0.120 C 
BRANCH  20  21
ATOM     21  C   UNL     1      -6.453  -2.564   6.026  0.00  0.00    +0.219 C 
ATOM     22  O   UNL     1      -5.256  -2.675   5.866  0.00  0.00    -0.275 OA
ATOM     23  N   UNL     1      -6.952  -2.358   7.261  0.00  0.00    -0.282 N 
ATOM     24  H   UNL     1      -8.041  -2.313   7.414  0.00  0.00    +0.155 HD
BRANCH  23  25
ATOM     25  C   UNL     1      -6.085  -2.203   8.350  0.00  0.00    +0.078 A 
ATOM     26  C   UNL     1      -4.991  -3.044   8.494  0.00  0.00    +0.059 A 
ATOM     27  C   UNL     1      -4.134  -2.885   9.566  0.00  0.00    +0.128 A 
ATOM     28  C   UNL     1      -4.369  -1.896  10.503  0.00  0.00    +0.036 A 
ATOM     29  C   UNL     1      -5.460  -1.057  10.370  0.00  0.00    +0.050 A 
ATOM     30  C   UNL     1      -6.322  -1.207   9.295  0.00  0.00    +0.141 A 
BRANCH  27  31
ATOM     31  N   UNL     1      -2.964  -3.780   9.715  0.00  0.00    +0.056 N 
ATOM     32  O   UNL     1      -2.211  -3.644  10.662  0.00  0.00    -0.126 OA
ATOM     33  O   UNL     1      -2.756  -4.652   8.891  0.00  0.00    -0.126 OA
ENDBRANCH  27  31
BRANCH  30  34
ATOM     34  O   UNL     1      -7.395  -0.383   9.162  0.00  0.00    -0.493 OA
ATOM     35  C   UNL     1      -7.575   0.616  10.168  0.00  0.00    +0.277 C 
ENDBRANCH  30  34
ENDBRANCH  23  25
ENDBRANCH  20  21
ENDBRANCH   6  20
TORSDOF 8
