REMARK  Name = ZINC10125283
REMARK  6 active torsions:
REMARK  status: ('A' for Active; 'I' for Inactive)
REMARK    1  A    between atoms: C_6  and  C_7
REMARK    2  A    between atoms: C_10  and  C_12
REMARK    3  A    between atoms: N_14  and  N_15
REMARK    4  A    between atoms: C_16  and  C_18
REMARK    5  A    between atoms: C_19  and  S_23
REMARK    6  A    between atoms: S_23  and  N_26
REMARK                            x       y       z     vdW  Elec       q    Type
REMARK                         _______ _______ _______ _____ _____    ______ ____
ROOT
ATOM      1  N   UNL     1       1.095  -3.085  -1.766  0.00  0.00    -0.230 N 
ATOM      2  C   UNL     1       1.708  -2.367  -0.804  0.00  0.00    +0.269 C 
ATOM      3  O   UNL     1       1.161  -2.196   0.270  0.00  0.00    -0.268 OA
ATOM      4  H   UNL     1       1.531  -3.221  -2.621  0.00  0.00    +0.173 HD
ENDROOT
BRANCH   2   5
ATOM      5  C   UNL     1       3.034  -1.793  -1.050  0.00  0.00    +0.102 A 
ATOM      6  C   UNL     1       3.862  -1.102  -0.180  0.00  0.00    +0.125 A 
ATOM      7  C   UNL     1       5.069  -0.673  -0.673  0.00  0.00    +0.037 A 
ATOM      8  C   UNL     1       5.387  -0.935  -1.968  0.00  0.00    +0.048 A 
ATOM      9  S   UNL     1       4.000  -1.797  -2.550  0.00  0.00    -0.090 S 
BRANCH   6  10
ATOM     10  S   UNL     1       3.391  -0.795   1.490  0.00  0.00    +0.062 S 
ATOM     11  O   UNL     1       3.641  -1.995   2.210  0.00  0.00    -0.153 OA
ATOM     12  O   UNL     1       2.107  -0.188   1.444  0.00  0.00    -0.153 OA
BRANCH  10  13
ATOM     13  N   UNL     1       4.431   0.344   2.091  0.00  0.00    -0.177 NA
ATOM     14  C   UNL     1       4.193   1.774   1.855  0.00  0.00    +0.109 C 
ATOM     15  C   UNL     1       5.454   2.389   1.240  0.00  0.00    +0.017 C 
ATOM     16  C   UNL     1       6.654   2.092   2.143  0.00  0.00    +0.003 C 
ATOM     17  C   UNL     1       6.855   0.579   2.245  0.00  0.00    +0.017 C 
ATOM     18  C   UNL     1       5.610  -0.057   2.871  0.00  0.00    +0.109 C 
ENDBRANCH  10  13
ENDBRANCH   6  10
ENDBRANCH   2   5
BRANCH   1  21
ATOM     19  C   UNL     1      -0.785  -4.352  -2.492  0.00  0.00    +0.267 C 
ATOM     20  O   UNL     1      -0.237  -4.523  -3.566  0.00  0.00    -0.268 OA
ATOM     21  N   UNL     1      -0.172  -3.635  -1.530  0.00  0.00    -0.230 N 
ATOM     22  H   UNL     1      -0.608  -3.498  -0.674  0.00  0.00    +0.173 HD
BRANCH  19  26
ATOM     23  C   UNL     1      -4.511  -5.783  -1.359  0.00  0.00    +0.020 A 
ATOM     24  C   UNL     1      -4.116  -6.121  -2.643  0.00  0.00    +0.017 A 
ATOM     25  C   UNL     1      -2.903  -5.683  -3.095  0.00  0.00    +0.021 A 
ATOM     26  C   UNL     1      -2.109  -4.927  -2.246  0.00  0.00    +0.076 A 
ATOM     27  S   UNL     1      -3.120  -4.826  -0.777  0.00  0.00    -0.084 S 
BRANCH  23  33
ATOM     28  C   UNL     1      -6.741  -6.889  -1.290  0.00  0.00    +0.012 A 
ATOM     29  C   UNL     1      -7.905  -7.210  -0.624  0.00  0.00    +0.039 A 
ATOM     30  C   UNL     1      -8.108  -6.768   0.674  0.00  0.00    +0.123 A 
ATOM     31  C   UNL     1      -7.141  -6.006   1.311  0.00  0.00    +0.039 A 
ATOM     32  C   UNL     1      -5.972  -5.683   0.656  0.00  0.00    +0.012 A 
ATOM     33  C   UNL     1      -5.762  -6.126  -0.652  0.00  0.00    -0.011 A 
ATOM     34  F   UNL     1      -9.252  -7.081   1.321  0.00  0.00    -0.205 F 
ENDBRANCH  23  33
ENDBRANCH  19  26
ENDBRANCH   1  21
TORSDOF 6
