REMARK  Name = ZINC02201338
REMARK  8 active torsions:
REMARK  status: ('A' for Active; 'I' for Inactive)
REMARK    1  A    between atoms: C_1  and  O_2
REMARK    2  A    between atoms: O_2  and  C_3
REMARK    3  A    between atoms: C_3  and  C_5
REMARK    4  A    between atoms: C_10  and  N_11
REMARK    5  A    between atoms: N_11  and  C_12
REMARK    6  A    between atoms: C_13  and  C_14
REMARK    7  A    between atoms: C_13  and  C_16
REMARK    8  A    between atoms: C_18  and  C_21
REMARK                            x       y       z     vdW  Elec       q    Type
REMARK                         _______ _______ _______ _____ _____    ______ ____
ROOT
ATOM      1  C   UNL     1      -7.278  -2.651   0.799  0.00  0.00    +0.120 A 
ATOM      2  N   UNL     1      -8.494  -2.143   0.935  0.00  0.00    -0.238 NA
ATOM      3  C   UNL     1      -9.543  -2.921   1.138  0.00  0.00    +0.086 A 
ATOM      4  C   UNL     1      -9.369  -4.279   1.210  0.00  0.00    +0.075 A 
ATOM      5  S   UNL     1      -7.603  -4.402   0.961  0.00  0.00    -0.074 S 
ENDROOT
BRANCH   3   6
ATOM      6  C   UNL     1     -10.893  -2.332   1.288  0.00  0.00    +0.086 A 
ATOM      7  C   UNL     1     -11.096  -0.963   1.213  0.00  0.00    +0.029 A 
ATOM      8  C   UNL     1     -12.409  -0.474   1.397  0.00  0.00    +0.026 A 
ATOM      9  C   UNL     1     -12.735   0.925   1.118  0.00  0.00    -0.007 A 
ATOM     10  C   UNL     1     -11.765   1.831   0.681  0.00  0.00    +0.009 A 
ATOM     11  C   UNL     1     -12.114   3.127   0.432  0.00  0.00    +0.001 A 
ATOM     12  C   UNL     1     -13.425   3.559   0.609  0.00  0.00    +0.001 A 
ATOM     13  C   UNL     1     -14.394   2.701   1.034  0.00  0.00    +0.008 A 
ATOM     14  C   UNL     1     -14.070   1.361   1.298  0.00  0.00    -0.017 A 
ATOM     15  C   UNL     1     -15.046   0.445   1.737  0.00  0.00    +0.012 A 
ATOM     16  C   UNL     1     -14.727  -0.847   2.001  0.00  0.00    +0.047 A 
ATOM     17  C   UNL     1     -13.423  -1.328   1.847  0.00  0.00    +0.140 A 
ATOM     18  O   UNL     1     -13.133  -2.615   2.155  0.00  0.00    -0.422 OA
ATOM     19  C   UNL     1     -12.078  -3.175   1.515  0.00  0.00    +0.347 A 
ATOM     20  O   UNL     1     -12.106  -4.335   1.145  0.00  0.00    -0.244 OA
ENDBRANCH   3   6
BRANCH   1  22
ATOM     21  C   UNL     1      -4.844  -2.675   0.451  0.00  0.00    +0.093 C 
ATOM     22  C   UNL     1      -5.996  -1.957   0.569  0.00  0.00    +0.098 C 
BRANCH  21  23
ATOM     23  N   UNL     1      -3.657  -2.032   0.237  0.00  0.00    -0.319 N 
ATOM     24  H   UNL     1      -3.634  -1.064   0.170  0.00  0.00    +0.152 HD
BRANCH  23  30
ATOM     25  C   UNL     1      -1.246  -2.105   0.019  0.00  0.00    +0.080 A 
ATOM     26  C   UNL     1      -0.071  -2.853  -0.096  0.00  0.00    +0.017 A 
ATOM     27  C   UNL     1      -0.133  -4.230  -0.118  0.00  0.00    +0.001 A 
ATOM     28  C   UNL     1      -1.355  -4.877  -0.028  0.00  0.00    +0.002 A 
ATOM     29  C   UNL     1      -2.524  -4.152   0.086  0.00  0.00    +0.024 A 
ATOM     30  C   UNL     1      -2.482  -2.764   0.117  0.00  0.00    +0.045 A 
BRANCH  25  31
ATOM     31  C   UNL     1      -1.187  -0.633   0.044  0.00  0.00    +0.341 C 
ATOM     32  O   UNL     1      -2.214   0.017   0.037  0.00  0.00    -0.245 OA
BRANCH  31  34
ATOM     33  C   UNL     1      -0.012   1.422   0.097  0.00  0.00    +0.280 C 
ATOM     34  O   UNL     1       0.006  -0.006   0.074  0.00  0.00    -0.464 OA
ENDBRANCH  31  34
ENDBRANCH  25  31
ENDBRANCH  23  30
ENDBRANCH  21  23
BRANCH  22  35
ATOM     35  C   UNL     1      -5.963  -0.529   0.469  0.00  0.00    +0.103 C 
ATOM     36  N   UNL     1      -5.937   0.604   0.391  0.00  0.00    -0.191 NA
ENDBRANCH  22  35
ENDBRANCH   1  22
TORSDOF 7
