REMARK  Name = ZINC60343167
REMARK  13 active torsions:
REMARK  status: ('A' for Active; 'I' for Inactive)
REMARK    1  A    between atoms: C_1  and  C_2
REMARK    2  A    between atoms: C_2  and  C_4
REMARK    3  A    between atoms: C_2  and  N_27
REMARK    4  A    between atoms: N_10  and  C_11
REMARK    5  A    between atoms: C_11  and  C_12
REMARK    6  A    between atoms: C_12  and  C_13
REMARK    7  A    between atoms: N_15  and  C_16
REMARK    8  A    between atoms: C_17  and  C_25
REMARK    9  A    between atoms: C_28  and  O_30
REMARK   10  A    between atoms: O_30  and  C_31
REMARK   11  A    between atoms: C_31  and  C_32
REMARK   12  A    between atoms: C_31  and  C_33
REMARK   13  A    between atoms: C_31  and  C_34
REMARK                            x       y       z     vdW  Elec       q    Type
REMARK                         _______ _______ _______ _____ _____    ______ ____
ROOT
ATOM      1  C   UNL     1       0.710  -0.392   1.399  0.00  0.00    -0.048 C 
ATOM      2  C   UNL     1       0.839  -1.916   1.460  0.00  0.00    -0.014 C 
ATOM      3  C   UNL     1       1.641  -2.306   2.704  0.00  0.00    -0.003 C 
ATOM      4  C   UNL     1       3.005  -1.610   2.659  0.00  0.00    -0.019 C 
ATOM      5  C   UNL     1       2.796  -0.098   2.554  0.00  0.00    -0.078 C 
ATOM      6  N   UNL     1       2.046   0.212   1.331  0.00  0.00    +0.383 N 
ATOM      7  H   UNL     1       2.540  -0.156   0.532  0.00  0.00    -0.081 HD
ENDROOT
BRANCH   1   9
ATOM      8  C   UNL     1      -1.480  -0.637   0.223  0.00  0.00    +0.026 C 
ATOM      9  C   UNL     1      -0.092   0.002   0.158  0.00  0.00    +0.060 C 
BRANCH   9  10
ATOM     10  N   UNL     1       0.606  -0.466  -1.043  0.00  0.00    -0.280 N 
ATOM     11  C   UNL     1       0.407   0.155  -2.223  0.00  0.00    +0.401 C 
ATOM     12  O   UNL     1      -0.351   1.102  -2.291  0.00  0.00    -0.226 OA
ATOM     13  H   UNL     1       1.211  -1.222  -0.989  0.00  0.00    +0.152 HD
BRANCH  11  14
ATOM     14  O   UNL     1       1.047  -0.275  -3.326  0.00  0.00    -0.445 OA
BRANCH  14  15
ATOM     15  C   UNL     1       0.789   0.429  -4.542  0.00  0.00    +0.107 C 
ATOM     16  C   UNL     1       1.193   1.896  -4.378  0.00  0.00    +0.055 C 
ATOM     17  C   UNL     1       1.600  -0.199  -5.677  0.00  0.00    +0.055 C 
ATOM     18  C   UNL     1      -0.702   0.345  -4.874  0.00  0.00    +0.055 C 
ENDBRANCH  14  15
ENDBRANCH  11  14
ENDBRANCH   9  10
ENDBRANCH   1   9
BRANCH   6  19
ATOM     19  C   UNL     1       1.916   1.669   1.194  0.00  0.00    -0.069 C 
BRANCH  19  20
ATOM     20  C   UNL     1       3.300   2.286   0.979  0.00  0.00    +0.077 C 
BRANCH  20  21
ATOM     21  C   UNL     1       3.167   3.781   0.839  0.00  0.00    +0.216 C 
ATOM     22  O   UNL     1       2.073   4.301   0.905  0.00  0.00    -0.276 OA
ATOM     23  N   UNL     1       4.263   4.539   0.641  0.00  0.00    -0.279 N 
ATOM     24  H   UNL     1       5.138   4.123   0.588  0.00  0.00    +0.155 HD
BRANCH  23  25
ATOM     25  C   UNL     1       4.140   5.916   0.512  0.00  0.00    +0.090 A 
ATOM     26  C   UNL     1       5.146   6.844   0.300  0.00  0.00    +0.084 A 
ATOM     27  C   UNL     1       4.754   8.238   0.199  0.00  0.00    -0.018 A 
ATOM     28  C   UNL     1       3.425   8.449   0.329  0.00  0.00    -0.004 A 
ATOM     29  S   UNL     1       2.737   6.837   0.569  0.00  0.00    -0.077 S 
ATOM     30  C   UNL     1       2.714   9.765   0.275  0.00  0.00    +0.043 C 
ATOM     31  C   UNL     1       3.756  10.883   0.425  0.00  0.00    +0.005 C 
ATOM     32  C   UNL     1       4.924  10.604  -0.525  0.00  0.00    +0.005 C 
ATOM     33  C   UNL     1       5.718   9.392  -0.033  0.00  0.00    +0.037 C 
BRANCH  26  34
ATOM     34  C   UNL     1       6.517   6.445   0.186  0.00  0.00    +0.102 C 
ATOM     35  N   UNL     1       7.604   6.129   0.095  0.00  0.00    -0.191 NA
ENDBRANCH  26  34
ENDBRANCH  23  25
ENDBRANCH  20  21
ENDBRANCH  19  20
ENDBRANCH   6  19
TORSDOF 9
