REMARK  Name = ZINC39325215
REMARK  8 active torsions:
REMARK  status: ('A' for Active; 'I' for Inactive)
REMARK    1  A    between atoms: C_1  and  C_2
REMARK    2  A    between atoms: C_2  and  C_3
REMARK    3  A    between atoms: C_10  and  C_15
REMARK    4  A    between atoms: C_15  and  N_16
REMARK    5  A    between atoms: N_16  and  C_17
REMARK    6  A    between atoms: N_16  and  S_23
REMARK    7  A    between atoms: C_17  and  C_18
REMARK    8  A    between atoms: S_23  and  C_26
REMARK                            x       y       z     vdW  Elec       q    Type
REMARK                         _______ _______ _______ _____ _____    ______ ____
ROOT
ATOM      1  N   UNL     1      -7.035  -3.774  -3.001  0.00  0.00    -0.171 NA
ENDROOT
BRANCH   1   2
ATOM      2  S   UNL     1      -7.628  -4.695  -1.759  0.00  0.00    +0.061 S 
ATOM      3  O   UNL     1      -8.669  -5.494  -2.306  0.00  0.00    -0.153 OA
ATOM      4  O   UNL     1      -6.504  -5.258  -1.098  0.00  0.00    -0.153 OA
BRANCH   2   5
ATOM      5  C   UNL     1      -8.388  -3.595  -0.611  0.00  0.00    +0.109 A 
ATOM      6  C   UNL     1      -7.686  -3.161   0.497  0.00  0.00    +0.032 A 
ATOM      7  C   UNL     1      -8.279  -2.299   1.400  0.00  0.00    +0.051 A 
ATOM      8  C   UNL     1      -9.581  -1.866   1.195  0.00  0.00    +0.162 A 
ATOM      9  C   UNL     1     -10.286  -2.300   0.080  0.00  0.00    +0.164 A 
ATOM     10  C   UNL     1      -9.684  -3.163  -0.825  0.00  0.00    +0.078 A 
ATOM     11  O   UNL     1     -11.562  -1.882  -0.145  0.00  0.00    -0.485 OA
ATOM     12  C   UNL     1     -12.257  -1.312   0.969  0.00  0.00    +0.270 C 
ATOM     13  C   UNL     1     -11.320  -0.313   1.661  0.00  0.00    +0.270 C 
ATOM     14  O   UNL     1     -10.153  -1.020   2.095  0.00  0.00    -0.485 OA
ENDBRANCH   2   5
ENDBRANCH   1   2
BRANCH   1  15
ATOM     15  C   UNL     1      -5.628  -3.367  -3.003  0.00  0.00    +0.126 C 
BRANCH  15  23
ATOM     16  C   UNL     1      -1.593   0.476  -1.272  0.00  0.00    -0.047 A 
ATOM     17  C   UNL     1      -2.364   0.864  -0.176  0.00  0.00    +0.005 A 
ATOM     18  C   UNL     1      -3.669   0.513  -0.036  0.00  0.00    +0.024 A 
ATOM     19  C   UNL     1      -4.306  -0.272  -1.015  0.00  0.00    +0.040 A 
ATOM     20  N   UNL     1      -5.587  -0.610  -0.868  0.00  0.00    -0.284 N 
ATOM     21  C   UNL     1      -6.245  -1.345  -1.748  0.00  0.00    +0.225 C 
ATOM     22  O   UNL     1      -7.415  -1.621  -1.560  0.00  0.00    -0.275 OA
ATOM     23  C   UNL     1      -5.539  -1.840  -2.990  0.00  0.00    +0.114 C 
ATOM     24  C   UNL     1      -4.082  -1.458  -3.162  0.00  0.00    -0.003 C 
ATOM     25  C   UNL     1      -3.516  -0.696  -2.184  0.00  0.00    -0.007 A 
ATOM     26  C   UNL     1      -2.116  -0.278  -2.273  0.00  0.00    +0.013 A 
ATOM     27  H   UNL     1      -6.058  -0.302  -0.078  0.00  0.00    +0.155 HD
BRANCH  16  29
ATOM     28  C   UNL     1      -0.061   2.254  -2.073  0.00  0.00    +0.009 C 
ATOM     29  C   UNL     1      -0.151   0.908  -1.350  0.00  0.00    +0.032 C 
ENDBRANCH  16  29
ENDBRANCH  15  23
ENDBRANCH   1  15
BRANCH   1  30
ATOM     30  C   UNL     1      -7.918  -3.367  -4.097  0.00  0.00    +0.151 C 
BRANCH  30  31
ATOM     31  C   UNL     1      -7.787  -4.344  -5.237  0.00  0.00    +0.005 A 
ATOM     32  C   UNL     1      -8.493  -5.476  -5.476  0.00  0.00    +0.012 A 
ATOM     33  C   UNL     1      -8.197  -6.226  -6.599  0.00  0.00    +0.008 A 
ATOM     34  C   UNL     1      -7.209  -5.807  -7.427  0.00  0.00    +0.045 A 
ATOM     35  S   UNL     1      -6.667  -4.307  -6.626  0.00  0.00    -0.100 S 
ENDBRANCH  30  31
ENDBRANCH   1  30
TORSDOF 7
