REMARK  Name = ZINC40400774
REMARK  12 active torsions:
REMARK  status: ('A' for Active; 'I' for Inactive)
REMARK    1  A    between atoms: C_1  and  C_2
REMARK    2  A    between atoms: C_2  and  N_3
REMARK    3  A    between atoms: N_3  and  C_4
REMARK    4  A    between atoms: C_4  and  C_5
REMARK    5  A    between atoms: C_6  and  C_8
REMARK    6  A    between atoms: C_9  and  C_37
REMARK    7  A    between atoms: C_13  and  C_15
REMARK    8  A    between atoms: C_18  and  N_21
REMARK    9  A    between atoms: C_24  and  C_27
REMARK   10  A    between atoms: C_28  and  N_30
REMARK   11  A    between atoms: N_30  and  C_31
REMARK   12  A    between atoms: C_31  and  C_32
REMARK                            x       y       z     vdW  Elec       q    Type
REMARK                         _______ _______ _______ _____ _____    ______ ____
ROOT
ATOM      1  C   UNL     1      -1.491  -0.658   2.820  0.00  0.00    +0.060 C 
ATOM      2  C   UNL     1      -2.278  -0.752   3.950  0.00  0.00    +0.051 C 
ATOM      3  N   UNL     1      -1.801  -0.397   5.132  0.00  0.00    -0.230 NA
ATOM      4  C   UNL     1      -0.585   0.060   5.345  0.00  0.00    +0.166 C 
ATOM      5  N   UNL     1       0.350   0.229   4.361  0.00  0.00    -0.267 N 
ATOM      6  C   UNL     1      -0.077  -0.145   2.986  0.00  0.00    +0.148 C 
ATOM      7  C   UNL     1       1.583   0.718   4.745  0.00  0.00    +0.048 C 
ATOM      8  C   UNL     1       1.769   0.991   6.055  0.00  0.00    +0.072 C 
ATOM      9  S   UNL     1       0.188   0.554   6.751  0.00  0.00    -0.060 S 
ATOM     10  C   UNL     1      -3.692  -1.262   3.836  0.00  0.00    +0.066 C 
ENDROOT
BRANCH   6  11
ATOM     11  C   UNL     1       0.864  -1.206   2.476  0.00  0.00    -0.022 A 
ATOM     12  C   UNL     1       1.097  -2.343   3.227  0.00  0.00    +0.008 A 
ATOM     13  C   UNL     1       1.960  -3.316   2.759  0.00  0.00    +0.033 A 
ATOM     14  C   UNL     1       2.590  -3.152   1.539  0.00  0.00    +0.126 A 
ATOM     15  C   UNL     1       2.356  -2.016   0.788  0.00  0.00    +0.033 A 
ATOM     16  C   UNL     1       1.489  -1.045   1.254  0.00  0.00    +0.008 A 
BRANCH  14  17
ATOM     17  N   UNL     1       3.514  -4.194   1.038  0.00  0.00    +0.056 N 
ATOM     18  O   UNL     1       3.720  -5.187   1.696  0.00  0.00    -0.126 OA
ATOM     19  O   UNL     1       4.065  -4.051  -0.028  0.00  0.00    -0.126 OA
ENDBRANCH  14  17
ENDBRANCH   6  11
BRANCH   1  21
ATOM     20  N   UNL     1      -2.688  -0.148   0.825  0.00  0.00    -0.298 N 
ATOM     21  C   UNL     1      -1.983  -1.030   1.560  0.00  0.00    +0.246 C 
ATOM     22  O   UNL     1      -1.773  -2.152   1.131  0.00  0.00    -0.270 OA
BRANCH  20  24
ATOM     23  C   UNL     1      -4.122   1.311   2.164  0.00  0.00    +0.024 C 
ATOM     24  C   UNL     1      -2.863   1.226   1.299  0.00  0.00    +0.104 C 
ENDBRANCH  20  24
BRANCH  20  25
ATOM     25  C   UNL     1      -3.279  -0.565  -0.450  0.00  0.00    +0.104 C 
ATOM     26  C   UNL     1      -2.279  -0.319  -1.581  0.00  0.00    +0.024 C 
ENDBRANCH  20  25
ENDBRANCH   1  21
BRANCH   7  27
ATOM     27  C   UNL     1       2.655   0.934   3.762  0.00  0.00    +0.091 C 
ATOM     28  C   UNL     1       3.893   1.260   4.178  0.00  0.00    +0.239 C 
ATOM     29  O   UNL     1       4.189   1.249   5.501  0.00  0.00    -0.271 OA
BRANCH  28  30
ATOM     30  N   UNL     1       4.865   1.607   3.255  0.00  0.00    -0.305 N 
ATOM     31  H   UNL     1       4.635   1.686   2.316  0.00  0.00    +0.149 HD
BRANCH  30  32
ATOM     32  C   UNL     1       6.240   1.854   3.696  0.00  0.00    +0.179 C 
BRANCH  32  33
ATOM     33  C   UNL     1       7.065   2.329   2.527  0.00  0.00    +0.122 A 
ATOM     34  C   UNL     1       7.238   3.611   2.156  0.00  0.00    +0.046 A 
ATOM     35  C   UNL     1       8.078   3.598   1.019  0.00  0.00    +0.041 A 
ATOM     36  C   UNL     1       8.367   2.310   0.763  0.00  0.00    +0.195 A 
ATOM     37  O   UNL     1       7.756   1.546   1.683  0.00  0.00    -0.466 OA
ENDBRANCH  32  33
ENDBRANCH  30  32
ENDBRANCH  28  30
ENDBRANCH   7  27
TORSDOF 9
