REMARK  Name = ZINC10214934
REMARK  4 active torsions:
REMARK  status: ('A' for Active; 'I' for Inactive)
REMARK    1  A    between atoms: C_7  and  N_18
REMARK    2  A    between atoms: N_8  and  C_12
REMARK    3  A    between atoms: C_12  and  C_13
REMARK    4  A    between atoms: N_21  and  C_22
REMARK                            x       y       z     vdW  Elec       q    Type
REMARK                         _______ _______ _______ _____ _____    ______ ____
ROOT
ATOM      1  C   UNL     1       0.478   1.489  -1.401  0.00  0.00    +0.001 A 
ATOM      2  C   UNL     1       1.509   1.384  -2.330  0.00  0.00    +0.002 A 
ATOM      3  C   UNL     1       2.446   0.398  -2.232  0.00  0.00    +0.028 A 
ATOM      4  C   UNL     1       2.373  -0.526  -1.182  0.00  0.00    +0.080 A 
ATOM      5  C   UNL     1       1.321  -0.418  -0.235  0.00  0.00    +0.039 A 
ATOM      6  C   UNL     1       0.375   0.608  -0.366  0.00  0.00    +0.013 A 
ATOM      7  C   UNL     1       1.261  -1.355   0.816  0.00  0.00    +0.120 A 
ATOM      8  N   UNL     1       2.212  -2.316   0.874  0.00  0.00    -0.275 N 
ATOM      9  C   UNL     1       3.188  -2.375  -0.048  0.00  0.00    +0.351 A 
ATOM     10  O   UNL     1       4.027  -3.258   0.041  0.00  0.00    -0.244 OA
ATOM     11  N   UNL     1       3.274  -1.512  -1.048  0.00  0.00    -0.193 NA
ENDROOT
BRANCH   7  12
ATOM     12  N   UNL     1       0.268  -1.294   1.754  0.00  0.00    -0.255 N 
ATOM     13  C   UNL     1      -0.544  -2.353   1.946  0.00  0.00    +0.309 C 
ATOM     14  O   UNL     1      -0.333  -3.394   1.356  0.00  0.00    -0.252 OA
ATOM     15  N   UNL     1      -1.589  -2.256   2.791  0.00  0.00    -0.269 N 
ATOM     16  H   UNL     1       0.148  -0.489   2.282  0.00  0.00    +0.158 HD
ATOM     17  H   UNL     1      -1.719  -1.448   3.311  0.00  0.00    +0.156 HD
BRANCH  15  18
ATOM     18  C   UNL     1      -2.487  -3.324   2.920  0.00  0.00    +0.038 A 
ATOM     19  C   UNL     1      -2.025  -4.632   2.852  0.00  0.00    +0.027 A 
ATOM     20  C   UNL     1      -2.909  -5.686   2.979  0.00  0.00    +0.051 A 
ATOM     21  C   UNL     1      -4.259  -5.441   3.173  0.00  0.00    +0.166 A 
ATOM     22  C   UNL     1      -4.725  -4.131   3.241  0.00  0.00    +0.168 A 
ATOM     23  C   UNL     1      -3.837  -3.075   3.120  0.00  0.00    +0.073 A 
ATOM     24  O   UNL     1      -6.076  -4.158   3.436  0.00  0.00    -0.453 OA
ATOM     25  C   UNL     1      -6.490  -5.490   3.077  0.00  0.00    +0.466 C 
ATOM     26  O   UNL     1      -5.319  -6.290   3.325  0.00  0.00    -0.453 OA
ENDBRANCH  15  18
ENDBRANCH   7  12
BRANCH   8  27
ATOM     27  C   UNL     1       2.178  -3.304   1.955  0.00  0.00    +0.170 C 
BRANCH  27  28
ATOM     28  C   UNL     1       2.914  -4.546   1.524  0.00  0.00    +0.010 A 
ATOM     29  C   UNL     1       4.225  -4.857   1.675  0.00  0.00    +0.013 A 
ATOM     30  C   UNL     1       4.685  -6.069   1.196  0.00  0.00    +0.008 A 
ATOM     31  C   UNL     1       3.813  -6.911   0.590  0.00  0.00    +0.045 A 
ATOM     32  S   UNL     1       2.285  -5.993   0.690  0.00  0.00    -0.100 S 
ENDBRANCH  27  28
ENDBRANCH   8  27
TORSDOF 4
