REMARK  Name = ZINC39609132
REMARK  8 active torsions:
REMARK  status: ('A' for Active; 'I' for Inactive)
REMARK    1  A    between atoms: C_1  and  C_2
REMARK    2  A    between atoms: C_6  and  C_8
REMARK    3  A    between atoms: C_8  and  C_9
REMARK    4  A    between atoms: C_13  and  C_22
REMARK    5  A    between atoms: N_24  and  C_25
REMARK    6  A    between atoms: C_30  and  O_32
REMARK    7  A    between atoms: O_32  and  C_33
REMARK    8  A    between atoms: C_33  and  C_34
REMARK                            x       y       z     vdW  Elec       q    Type
REMARK                         _______ _______ _______ _____ _____    ______ ____
ROOT
ATOM      1  C   UNL     1       1.608  -3.061   2.942  0.00  0.00    +0.220 C 
ATOM      2  O   UNL     1       2.537  -2.698   2.251  0.00  0.00    -0.275 OA
ATOM      3  N   UNL     1       1.840  -3.753   4.074  0.00  0.00    -0.300 N 
ATOM      4  C   UNL     1       0.844  -4.282   5.036  0.00  0.00    +0.121 C 
ATOM      5  C   UNL     1       1.397  -5.665   5.449  0.00  0.00    +0.100 C 
ATOM      6  C   UNL     1       2.910  -5.576   5.189  0.00  0.00    -0.004 C 
ATOM      7  C   UNL     1       3.149  -4.164   4.636  0.00  0.00    +0.115 C 
ATOM      8  C   UNL     1       3.330  -6.618   4.157  0.00  0.00    -0.010 C 
ATOM      9  C   UNL     1       4.847  -6.549   3.957  0.00  0.00    -0.082 C 
ATOM     10  N   UNL     1       5.523  -6.798   5.236  0.00  0.00    +0.379 N 
ATOM     11  C   UNL     1       5.186  -5.739   6.195  0.00  0.00    -0.082 C 
ATOM     12  C   UNL     1       3.683  -5.774   6.489  0.00  0.00    -0.010 C 
ATOM     13  H   UNL     1       5.226  -7.689   5.603  0.00  0.00    -0.086 HD
ATOM     14  H   UNL     1       6.521  -6.812   5.090  0.00  0.00    -0.086 HD
ENDROOT
BRANCH   5  15
ATOM     15  C   UNL     1       1.128  -5.922   6.910  0.00  0.00    +0.218 C 
ATOM     16  O   UNL     1       1.099  -4.996   7.693  0.00  0.00    -0.275 OA
ATOM     17  N   UNL     1       0.920  -7.180   7.345  0.00  0.00    -0.310 N 
ATOM     18  H   UNL     1       0.943  -7.920   6.719  0.00  0.00    +0.149 HD
BRANCH  17  19
ATOM     19  C   UNL     1       0.658  -7.430   8.765  0.00  0.00    +0.102 C 
ATOM     20  C   UNL     1       1.986  -7.602   9.523  0.00  0.00    +0.025 C 
ATOM     21  C   UNL     1       1.968  -9.021  10.127  0.00  0.00    +0.004 C 
ATOM     22  C   UNL     1       0.463  -9.373  10.228  0.00  0.00    +0.033 C 
ATOM     23  C   UNL     1      -0.121  -8.751   8.934  0.00  0.00    +0.139 C 
BRANCH  23  24
ATOM     24  O   UNL     1      -1.518  -8.491   9.089  0.00  0.00    -0.370 OA
BRANCH  24  25
ATOM     25  C   UNL     1      -2.362  -9.531   8.592  0.00  0.00    +0.195 C 
BRANCH  25  26
ATOM     26  C   UNL     1      -3.805  -9.153   8.807  0.00  0.00    -0.022 A 
ATOM     27  C   UNL     1      -4.444  -9.505   9.981  0.00  0.00    +0.006 A 
ATOM     28  C   UNL     1      -5.768  -9.159  10.178  0.00  0.00    +0.000 A 
ATOM     29  C   UNL     1      -6.452  -8.460   9.200  0.00  0.00    +0.000 A 
ATOM     30  C   UNL     1      -5.812  -8.108   8.027  0.00  0.00    +0.000 A 
ATOM     31  C   UNL     1      -4.487  -8.450   7.832  0.00  0.00    +0.006 A 
ENDBRANCH  25  26
ENDBRANCH  24  25
ENDBRANCH  23  24
ENDBRANCH  17  19
ENDBRANCH   5  15
BRANCH   1  32
ATOM     32  C   UNL     1       0.194  -2.737   2.533  0.00  0.00    +0.131 C 
BRANCH  32  38
ATOM     33  C   UNL     1       0.355   1.635   0.102  0.00  0.00    +0.044 C 
ATOM     34  C   UNL     1       0.286   0.130   0.078  0.00  0.00    -0.050 A 
ATOM     35  C   UNL     1       0.237  -0.540  -1.130  0.00  0.00    +0.003 A 
ATOM     36  C   UNL     1       0.173  -1.921  -1.153  0.00  0.00    +0.001 A 
ATOM     37  C   UNL     1       0.159  -2.632   0.033  0.00  0.00    +0.004 A 
ATOM     38  C   UNL     1       0.209  -1.962   1.241  0.00  0.00    -0.038 A 
ATOM     39  C   UNL     1       0.277  -0.581   1.263  0.00  0.00    +0.007 A 
ENDBRANCH  32  38
ENDBRANCH   1  32
TORSDOF 7
