REMARK  Name = ZINC00845671
REMARK  5 active torsions:
REMARK  status: ('A' for Active; 'I' for Inactive)
REMARK    1  A    between atoms: C_1  and  C_2
REMARK    2  A    between atoms: C_5  and  C_8
REMARK    3  A    between atoms: C_10  and  C_17
REMARK    4  A    between atoms: C_11  and  C_16
REMARK    5  A    between atoms: N_19  and  C_20
REMARK                            x       y       z     vdW  Elec       q    Type
REMARK                         _______ _______ _______ _____ _____    ______ ____
ROOT
ATOM      1  C   UNL     1      -2.099   3.883  -0.188  0.00  0.00    +0.139 C 
ATOM      2  C   UNL     1      -2.758   3.759   1.171  0.00  0.00    +0.056 C 
ATOM      3  C   UNL     1      -3.920   3.076   1.246  0.00  0.00    +0.017 C 
ATOM      4  N   UNL     1      -4.481   2.516   0.134  0.00  0.00    -0.300 N 
ATOM      5  C   UNL     1      -3.943   2.594  -1.090  0.00  0.00    +0.135 C 
ATOM      6  S   UNL     1      -4.751   1.845  -2.400  0.00  0.00    -0.019 S 
ATOM      7  N   UNL     1      -2.785   3.243  -1.323  0.00  0.00    -0.315 N 
ATOM      8  C   UNL     1      -4.608   2.929   2.578  0.00  0.00    +0.061 C 
ATOM      9  H   UNL     1      -5.317   2.035   0.236  0.00  0.00    +0.154 HD
ATOM     10  H   UNL     1      -2.413   3.288  -2.218  0.00  0.00    +0.149 HD
ENDROOT
BRANCH   1  15
ATOM     11  C   UNL     1       3.206   1.622   0.189  0.00  0.00    +0.044 C 
ATOM     12  C   UNL     1       1.822   2.212   0.091  0.00  0.00    -0.050 A 
ATOM     13  C   UNL     1       0.761   1.421  -0.308  0.00  0.00    +0.004 A 
ATOM     14  C   UNL     1      -0.507   1.963  -0.403  0.00  0.00    +0.006 A 
ATOM     15  C   UNL     1      -0.716   3.293  -0.089  0.00  0.00    -0.023 A 
ATOM     16  C   UNL     1       0.346   4.084   0.310  0.00  0.00    +0.006 A 
ATOM     17  C   UNL     1       1.615   3.543   0.400  0.00  0.00    +0.004 A 
ENDBRANCH   1  15
BRANCH   2  18
ATOM     18  C   UNL     1      -2.174   4.340   2.323  0.00  0.00    +0.248 C 
ATOM     19  O   UNL     1      -2.032   5.548   2.390  0.00  0.00    -0.270 OA
ATOM     20  N   UNL     1      -1.777   3.557   3.345  0.00  0.00    -0.282 N 
ATOM     21  H   UNL     1      -1.989   2.610   3.341  0.00  0.00    +0.155 HD
BRANCH  20  22
ATOM     22  C   UNL     1      -1.059   4.109   4.412  0.00  0.00    +0.034 A 
ATOM     23  C   UNL     1      -1.236   5.443   4.752  0.00  0.00    +0.025 A 
ATOM     24  C   UNL     1      -0.530   5.984   5.808  0.00  0.00    +0.022 A 
ATOM     25  C   UNL     1       0.361   5.201   6.521  0.00  0.00    +0.041 A 
ATOM     26  C   UNL     1       0.542   3.872   6.180  0.00  0.00    +0.022 A 
ATOM     27  C   UNL     1      -0.165   3.324   5.128  0.00  0.00    +0.025 A 
ATOM     28 CL   UNL     1       1.252   5.886   7.844  0.00  0.00    -0.084 Cl
ENDBRANCH  20  22
ENDBRANCH   2  18
TORSDOF 3
