REMARK  Name = ZINC33929176
REMARK  7 active torsions:
REMARK  status: ('A' for Active; 'I' for Inactive)
REMARK    1  A    between atoms: C_1  and  C_2
REMARK    2  A    between atoms: C_5  and  N_9
REMARK    3  A    between atoms: C_14  and  C_29
REMARK    4  A    between atoms: C_17  and  C_22
REMARK    5  A    between atoms: C_17  and  C_26
REMARK    6  A    between atoms: C_22  and  C_23
REMARK    7  A    between atoms: C_30  and  C_31
REMARK                            x       y       z     vdW  Elec       q    Type
REMARK                         _______ _______ _______ _____ _____    ______ ____
ROOT
ATOM      1  N   UNL     1       0.059  -4.173  -0.022  0.00  0.00    -0.210 N 
ATOM      2  C   UNL     1       0.069  -4.926  -1.170  0.00  0.00    +0.229 C 
ATOM      3  O   UNL     1       0.282  -4.548  -2.301  0.00  0.00    -0.275 OA
ATOM      4  C   UNL     1      -0.231  -6.267  -0.733  0.00  0.00    +0.077 C 
ATOM      5  C   UNL     1      -0.090  -7.666  -1.174  0.00  0.00    -0.034 C 
ATOM      6  N   UNL     1      -0.471  -8.427   0.066  0.00  0.00    +0.395 N 
ATOM      7  C   UNL     1      -0.255  -7.529   1.239  0.00  0.00    +0.058 C 
ATOM      8  C   UNL     1       0.493  -6.312   0.671  0.00  0.00    +0.087 C 
ATOM      9  C   UNL     1       0.075  -4.937   1.111  0.00  0.00    +0.229 C 
ATOM     10  O   UNL     1      -0.195  -4.580   2.237  0.00  0.00    -0.275 OA
ATOM     11  H   UNL     1      -1.443  -8.696   0.016  0.00  0.00    -0.083 HD
ATOM     12  H   UNL     1       0.107  -9.249   0.153  0.00  0.00    -0.083 HD
ENDROOT
BRANCH   1  17
ATOM     13  C   UNL     1      -0.018   1.503   0.010  0.00  0.00    +0.045 C 
ATOM     14  C   UNL     1       0.002  -0.004   0.002  0.00  0.00    -0.032 A 
ATOM     15  C   UNL     1       0.006  -0.688  -1.200  0.00  0.00    +0.006 A 
ATOM     16  C   UNL     1       0.025  -2.068  -1.211  0.00  0.00    +0.024 A 
ATOM     17  C   UNL     1       0.040  -2.771  -0.013  0.00  0.00    +0.045 A 
ATOM     18  C   UNL     1       0.037  -2.084   1.192  0.00  0.00    +0.044 A 
ATOM     19  C   UNL     1       0.023  -0.701   1.197  0.00  0.00    +0.046 A 
ATOM     20 CL   UNL     1       0.025   0.161   2.704  0.00  0.00    -0.083 Cl
ENDBRANCH   1  17
BRANCH   7  21
ATOM     21  C   UNL     1       0.600  -8.216   2.272  0.00  0.00    +0.347 C 
ATOM     22  O   UNL     1       0.981  -9.359   2.085  0.00  0.00    -0.248 OA
ATOM     23  O   UNL     1       0.910  -7.630   3.295  0.00  0.00    -0.248 OA
ENDBRANCH   7  21
BRANCH   5  24
ATOM     24  C   UNL     1      -1.036  -7.971  -2.306  0.00  0.00    -0.041 C 
ATOM     25  C   UNL     1      -0.570  -8.461  -3.446  0.00  0.00    +0.002 C 
BRANCH  25  26
ATOM     26  C   UNL     1      -1.498  -8.761  -4.556  0.00  0.00    -0.025 A 
ATOM     27  C   UNL     1      -2.866  -8.523  -4.410  0.00  0.00    +0.008 A 
ATOM     28  C   UNL     1      -3.727  -8.804  -5.450  0.00  0.00    +0.001 A 
ATOM     29  C   UNL     1      -3.238  -9.322  -6.637  0.00  0.00    +0.000 A 
ATOM     30  C   UNL     1      -1.884  -9.560  -6.788  0.00  0.00    +0.001 A 
ATOM     31  C   UNL     1      -1.011  -9.277  -5.758  0.00  0.00    +0.008 A 
ENDBRANCH  25  26
ENDBRANCH   5  24
BRANCH   7  32
ATOM     32  C   UNL     1      -1.597  -7.119   1.848  0.00  0.00    +0.125 C 
BRANCH  32  33
ATOM     33  C   UNL     1      -2.324  -8.347   2.333  0.00  0.00    +0.355 C 
ATOM     34  O   UNL     1      -1.815  -9.447   2.204  0.00  0.00    -0.246 OA
ATOM     35  O   UNL     1      -3.421  -8.240   2.855  0.00  0.00    -0.246 OA
ENDBRANCH  32  33
ENDBRANCH   7  32
TORSDOF 6
