REMARK  Name = ZINC20074375
REMARK  8 active torsions:
REMARK  status: ('A' for Active; 'I' for Inactive)
REMARK    1  A    between atoms: C_1  and  C_2
REMARK    2  A    between atoms: C_2  and  C_18
REMARK    3  A    between atoms: N_3  and  N_4
REMARK    4  A    between atoms: C_5  and  C_7
REMARK    5  A    between atoms: C_7  and  N_8
REMARK    6  A    between atoms: C_9  and  C_11
REMARK    7  A    between atoms: C_20  and  O_25
REMARK    8  A    between atoms: C_23  and  O_24
REMARK                            x       y       z     vdW  Elec       q    Type
REMARK                         _______ _______ _______ _____ _____    ______ ____
ROOT
ATOM      1  N   UNL     1      -4.860   3.906   0.065  0.00  0.00    -0.205 N 
ATOM      2  C   UNL     1      -6.021   3.222   0.073  0.00  0.00    +0.249 C 
ATOM      3  O   UNL     1      -6.009   2.009   0.067  0.00  0.00    -0.272 OA
ATOM      4  H   UNL     1      -4.870   5.006   0.070  0.00  0.00    +0.177 HD
ENDROOT
BRANCH   1   7
ATOM      5  C   UNL     1      -2.536   5.383   0.051  0.00  0.00    +0.068 C 
ATOM      6  C   UNL     1      -2.522   3.876   0.044  0.00  0.00    +0.067 C 
ATOM      7  N   UNL     1      -3.640   3.217   0.051  0.00  0.00    -0.184 NA
BRANCH   6   8
ATOM      8  C   UNL     1      -1.239   3.151   0.029  0.00  0.00    +0.042 A 
ATOM      9  C   UNL     1      -0.034   3.857   0.022  0.00  0.00    +0.058 A 
ATOM     10  C   UNL     1       1.167   3.170   0.007  0.00  0.00    +0.118 A 
ATOM     11  C   UNL     1       1.176   1.781   0.000  0.00  0.00    +0.049 A 
ATOM     12  C   UNL     1      -0.013   1.076   0.008  0.00  0.00    +0.049 A 
ATOM     13  C   UNL     1      -1.222   1.750   0.017  0.00  0.00    +0.126 A 
BRANCH  13  14
ATOM     14  O   UNL     1      -2.390   1.055   0.019  0.00  0.00    -0.506 OA
ATOM     15  H   UNL     1      -2.375  -0.045   0.010  0.00  0.00    +0.292 HD
ENDBRANCH  13  14
BRANCH  10  16
ATOM     16  O   UNL     1       2.341   3.856   0.000  0.00  0.00    -0.507 OA
ATOM     17  H   UNL     1       3.296   3.311  -0.011  0.00  0.00    +0.292 HD
ENDBRANCH  10  16
ENDBRANCH   6   8
ENDBRANCH   1   7
BRANCH   2  18
ATOM     18  C   UNL     1      -7.332   3.963   0.088  0.00  0.00    +0.202 C 
BRANCH  18  19
ATOM     19  N   UNL     1      -8.437   3.001   0.093  0.00  0.00    -0.303 N 
ATOM     20  C   UNL     1      -9.712   3.438   0.107  0.00  0.00    +0.246 C 
ATOM     21  O   UNL     1      -9.945   4.631   0.114  0.00  0.00    -0.270 OA
ATOM     22  H   UNL     1      -8.226   1.921   0.087  0.00  0.00    +0.150 HD
BRANCH  20  23
ATOM     23  C   UNL     1     -10.826   2.468   0.113  0.00  0.00    +0.051 A 
ATOM     24  C   UNL     1     -10.562   1.097   0.098  0.00  0.00    +0.014 A 
ATOM     25  C   UNL     1     -11.607   0.196   0.108  0.00  0.00    +0.001 A 
ATOM     26  C   UNL     1     -12.915   0.648   0.122  0.00  0.00    +0.001 A 
ATOM     27  C   UNL     1     -13.185   2.005   0.131  0.00  0.00    +0.016 A 
ATOM     28  C   UNL     1     -12.148   2.918   0.126  0.00  0.00    +0.030 A 
ATOM     29 BR   UNL     1     -12.519   4.772   0.138  0.00  0.00    -0.050 Br
ENDBRANCH  20  23
ENDBRANCH  18  19
ENDBRANCH   2  18
TORSDOF 7
