REMARK  Name = ZINC43736461
REMARK  14 active torsions:
REMARK  status: ('A' for Active; 'I' for Inactive)
REMARK    1  A    between atoms: C_1  and  C_2
REMARK    2  A    between atoms: C_3  and  C_34
REMARK    3  A    between atoms: C_5  and  C_33
REMARK    4  A    between atoms: C_8  and  C_32
REMARK    5  A    between atoms: C_21  and  C_31
REMARK    6  A    between atoms: C_24  and  O_27
REMARK    7  A    between atoms: O_27  and  C_28
REMARK    8  A    between atoms: C_28  and  C_30
REMARK    9  A    between atoms: C_34  and  C_35
REMARK   10  A    between atoms: C_35  and  C_36
REMARK   11  A    between atoms: C_36  and  C_38
REMARK   12  A    between atoms: C_36  and  C_39
REMARK   13  A    between atoms: C_39  and  N_40
REMARK   14  A    between atoms: C_41  and  C_43
REMARK                            x       y       z     vdW  Elec       q    Type
REMARK                         _______ _______ _______ _____ _____    ______ ____
ROOT
ATOM      1  C   UNL     1      -0.018   1.500   0.010  0.00  0.00    +0.043 C 
ATOM      2  C   UNL     1       0.002  -0.004   0.002  0.00  0.00    -0.028 C 
ATOM      3  C   UNL     1      -0.044  -0.816  -1.074  0.00  0.00    +0.098 C 
ATOM      4  O   UNL     1       0.029  -2.156  -0.701  0.00  0.00    -0.490 OA
ATOM      5  C   UNL     1       0.847  -2.080   0.435  0.00  0.00    +0.115 C 
ATOM      6  C   UNL     1       0.026  -0.947   1.148  0.00  0.00    +0.068 C 
ATOM      7  C   UNL     1       0.704  -0.787   2.484  0.00  0.00    -0.019 C 
ATOM      8  C   UNL     1       1.790   0.261   2.489  0.00  0.00    +0.008 C 
ATOM      9  C   UNL     1       2.825   0.038   3.587  0.00  0.00    +0.005 C 
ATOM     10  C   UNL     1       3.448  -1.349   3.430  0.00  0.00    +0.003 C 
ATOM     11  C   UNL     1       2.368  -2.391   3.674  0.00  0.00    +0.000 C 
ATOM     12  C   UNL     1       1.146  -2.217   2.825  0.00  0.00    +0.003 C 
ATOM     13  C   UNL     1       1.181  -3.041   1.515  0.00  0.00    +0.052 C 
ATOM     14  C   UNL     1       2.952  -3.796   3.511  0.00  0.00    +0.031 C 
ATOM     15  C   UNL     1       4.165  -3.946   4.383  0.00  0.00    -0.027 C 
ATOM     16  C   UNL     1       4.906  -2.944   4.741  0.00  0.00    -0.064 C 
ATOM     17  C   UNL     1       4.634  -1.515   4.364  0.00  0.00    -0.008 C 
ATOM     18  C   UNL     1       5.893  -0.939   3.706  0.00  0.00    +0.015 C 
ATOM     19  C   UNL     1       7.117  -1.148   4.591  0.00  0.00    +0.046 C 
ATOM     20  C   UNL     1       7.347  -2.630   4.876  0.00  0.00    +0.180 C 
ATOM     21  C   UNL     1       6.132  -3.222   5.595  0.00  0.00    +0.075 C 
ATOM     22  C   UNL     1       4.372  -0.739   5.656  0.00  0.00    +0.016 C 
ATOM     23  C   UNL     1      -0.365  -0.364   3.526  0.00  0.00    +0.012 C 
ATOM     24  C   UNL     1       2.160  -1.484  -0.072  0.00  0.00    +0.056 C 
ENDROOT
BRANCH  20  25
ATOM     25  O   UNL     1       7.562  -3.328   3.647  0.00  0.00    -0.461 OA
BRANCH  25  26
ATOM     26  C   UNL     1       8.352  -4.412   3.692  0.00  0.00    +0.304 C 
ATOM     27  O   UNL     1       8.845  -4.757   4.740  0.00  0.00    -0.251 OA
ATOM     28  C   UNL     1       8.625  -5.198   2.436  0.00  0.00    +0.136 C 
ENDBRANCH  25  26
ENDBRANCH  20  25
BRANCH   3  29
ATOM     29  C   UNL     1      -0.174  -0.335  -2.495  0.00  0.00    +0.074 C 
BRANCH  29  30
ATOM     30  C   UNL     1       1.216  -0.228  -3.126  0.00  0.00    +0.012 C 
BRANCH  30  31
ATOM     31  C   UNL     1       1.085   0.261  -4.569  0.00  0.00    +0.003 C 
ATOM     32  C   UNL     1       0.526   1.685  -4.576  0.00  0.00    +0.009 C 
BRANCH  31  33
ATOM     33  C   UNL     1       2.460   0.249  -5.239  0.00  0.00    +0.107 C 
BRANCH  33  34
ATOM     34  N   UNL     1       2.317   0.603  -6.654  0.00  0.00    -0.315 N 
ATOM     35  C   UNL     1       3.405   0.656  -7.448  0.00  0.00    +0.210 C 
ATOM     36  O   UNL     1       4.502   0.411  -6.992  0.00  0.00    -0.276 OA
ATOM     37  C   UNL     1       3.258   1.019  -8.903  0.00  0.00    +0.109 C 
ATOM     38  H   UNL     1       1.440   0.798  -7.019  0.00  0.00    +0.149 HD
ENDBRANCH  33  34
ENDBRANCH  31  33
ENDBRANCH  30  31
ENDBRANCH  29  30
ENDBRANCH   3  29
TORSDOF 7
