REMARK  Name = ZINC09633974
REMARK  5 active torsions:
REMARK  status: ('A' for Active; 'I' for Inactive)
REMARK    1  A    between atoms: C_4  and  C_7
REMARK    2  A    between atoms: C_16  and  C_18
REMARK    3  A    between atoms: C_18  and  S_19
REMARK    4  A    between atoms: S_19  and  C_20
REMARK    5  A    between atoms: N_30  and  C_31
REMARK                            x       y       z     vdW  Elec       q    Type
REMARK                         _______ _______ _______ _____ _____    ______ ____
ROOT
ATOM      1  C   UNL     1       2.550   6.020  -0.349  0.00  0.00    +0.151 C 
ENDROOT
BRANCH   1  11
ATOM      2  C   UNL     1      -2.123   9.258  -0.768  0.00  0.00    +0.004 A 
ATOM      3  C   UNL     1      -3.263   8.526  -0.758  0.00  0.00    +0.056 A 
ATOM      4  S   UNL     1      -2.677   6.849  -0.611  0.00  0.00    -0.076 S 
ATOM      5  C   UNL     1      -0.932   7.166  -0.567  0.00  0.00    +0.116 A 
ATOM      6  C   UNL     1      -0.844   8.564  -0.667  0.00  0.00    +0.080 A 
ATOM      7  C   UNL     1       0.481   9.105  -0.657  0.00  0.00    +0.260 A 
ATOM      8  O   UNL     1       0.660  10.308  -0.740  0.00  0.00    -0.267 OA
ATOM      9  N   UNL     1       1.528   8.264  -0.555  0.00  0.00    -0.310 N 
ATOM     10  H   UNL     1       2.428   8.625  -0.547  0.00  0.00    +0.170 HD
ATOM     11  C   UNL     1       1.348   6.922  -0.462  0.00  0.00    +0.121 A 
ATOM     12  N   UNL     1       0.151   6.399  -0.473  0.00  0.00    -0.226 NA
BRANCH   2  16
ATOM     13  C   UNL     1      -2.269  13.494  -1.088  0.00  0.00    +0.000 A 
ATOM     14  C   UNL     1      -2.980  12.711  -1.979  0.00  0.00    +0.001 A 
ATOM     15  C   UNL     1      -2.936  11.335  -1.881  0.00  0.00    +0.008 A 
ATOM     16  C   UNL     1      -2.174  10.735  -0.880  0.00  0.00    -0.017 A 
ATOM     17  C   UNL     1      -1.464  11.529   0.020  0.00  0.00    +0.008 A 
ATOM     18  C   UNL     1      -1.511  12.904  -0.092  0.00  0.00    +0.001 A 
ENDBRANCH   2  16
ENDBRANCH   1  11
BRANCH   1  19
ATOM     19  S   UNL     1       2.003   4.297  -0.242  0.00  0.00    -0.079 S 
BRANCH  19  20
ATOM     20  C   UNL     1       3.564   3.488  -0.123  0.00  0.00    +0.177 A 
ATOM     21  N   UNL     1       4.650   4.221  -0.131  0.00  0.00    -0.223 NA
ATOM     22  C   UNL     1       5.880   3.663  -0.048  0.00  0.00    +0.079 A 
ATOM     23  C   UNL     1       7.041   4.443  -0.062  0.00  0.00    +0.028 A 
ATOM     24  C   UNL     1       8.263   3.837   0.022  0.00  0.00    +0.002 A 
ATOM     25  C   UNL     1       8.371   2.456   0.123  0.00  0.00    +0.001 A 
ATOM     26  C   UNL     1       7.255   1.667   0.140  0.00  0.00    +0.015 A 
ATOM     27  C   UNL     1       5.994   2.258   0.054  0.00  0.00    +0.065 A 
ATOM     28  C   UNL     1       4.761   1.460   0.067  0.00  0.00    +0.267 A 
ATOM     29  O   UNL     1       4.795   0.247   0.154  0.00  0.00    -0.267 OA
ATOM     30  N   UNL     1       3.585   2.124  -0.021  0.00  0.00    -0.255 N 
BRANCH  30  31
ATOM     31  C   UNL     1       2.381   1.409  -0.013  0.00  0.00    +0.052 A 
ATOM     32  C   UNL     1       1.827   0.967  -1.207  0.00  0.00    +0.026 A 
ATOM     33  C   UNL     1       0.639   0.262  -1.196  0.00  0.00    +0.002 A 
ATOM     34  C   UNL     1       0.002  -0.004   0.002  0.00  0.00    +0.000 A 
ATOM     35  C   UNL     1       0.551   0.435   1.193  0.00  0.00    +0.002 A 
ATOM     36  C   UNL     1       1.738   1.141   1.188  0.00  0.00    +0.026 A 
ENDBRANCH  30  31
ENDBRANCH  19  20
ENDBRANCH   1  19
TORSDOF 5
