REMARK  Name = ZINC09720437
REMARK  8 active torsions:
REMARK  status: ('A' for Active; 'I' for Inactive)
REMARK    1  A    between atoms: C_1  and  C_2
REMARK    2  A    between atoms: C_6  and  C_8
REMARK    3  A    between atoms: N_13  and  C_16
REMARK    4  A    between atoms: C_19  and  N_36
REMARK    5  A    between atoms: C_20  and  N_22
REMARK    6  A    between atoms: N_22  and  C_23
REMARK    7  A    between atoms: C_23  and  C_25
REMARK    8  A    between atoms: C_23  and  C_26
REMARK                            x       y       z     vdW  Elec       q    Type
REMARK                         _______ _______ _______ _____ _____    ______ ____
ROOT
ATOM      1  C   UNL     1      -2.376   3.843  -2.148  0.00  0.00    +0.032 A 
ATOM      2  C   UNL     1      -2.780   5.168  -2.030  0.00  0.00    +0.025 A 
ATOM      3  C   UNL     1      -1.994   6.180  -2.545  0.00  0.00    +0.036 A 
ATOM      4  C   UNL     1      -0.800   5.880  -3.174  0.00  0.00    +0.147 A 
ATOM      5  C   UNL     1      -0.388   4.559  -3.291  0.00  0.00    +0.060 A 
ATOM      6  C   UNL     1      -1.175   3.539  -2.775  0.00  0.00    +0.048 A 
ENDROOT
BRANCH   1  12
ATOM      7  C   UNL     1      -6.599   0.621  -1.450  0.00  0.00    +0.247 C 
ATOM      8  O   UNL     1      -7.559   1.118  -0.893  0.00  0.00    -0.270 OA
ATOM      9  N   UNL     1      -5.370   1.144  -1.269  0.00  0.00    -0.295 N 
ATOM     10  C   UNL     1      -5.147   2.233  -0.306  0.00  0.00    +0.127 C 
ATOM     11  C   UNL     1      -4.392   3.362  -1.016  0.00  0.00    +0.124 C 
ATOM     12  N   UNL     1      -3.174   2.820  -1.633  0.00  0.00    -0.327 N 
ATOM     13  C   UNL     1      -3.497   1.831  -2.670  0.00  0.00    +0.124 C 
ATOM     14  C   UNL     1      -4.216   0.639  -2.029  0.00  0.00    +0.127 C 
BRANCH   7  20
ATOM     15  C   UNL     1      -9.361  -1.943  -4.721  0.00  0.00    +0.044 C 
ATOM     16  C   UNL     1      -8.106  -1.794  -3.900  0.00  0.00    -0.050 A 
ATOM     17  C   UNL     1      -7.119  -2.762  -3.966  0.00  0.00    +0.003 A 
ATOM     18  C   UNL     1      -5.964  -2.632  -3.215  0.00  0.00    +0.001 A 
ATOM     19  C   UNL     1      -5.787  -1.534  -2.400  0.00  0.00    +0.013 A 
ATOM     20  C   UNL     1      -6.780  -0.557  -2.325  0.00  0.00    +0.037 A 
ATOM     21  C   UNL     1      -7.944  -0.693  -3.085  0.00  0.00    +0.016 A 
ENDBRANCH   7  20
ENDBRANCH   1  12
BRANCH   4  22
ATOM     22  N   UNL     1       0.039   6.968  -3.723  0.00  0.00    +0.058 N 
ATOM     23  O   UNL     1      -0.264   8.131  -3.525  0.00  0.00    -0.126 OA
ATOM     24  O   UNL     1       1.033   6.701  -4.374  0.00  0.00    -0.126 OA
ENDBRANCH   4  22
BRANCH   5  25
ATOM     25  N   UNL     1       0.818   4.257  -3.927  0.00  0.00    -0.339 N 
ATOM     26  H   UNL     1       1.326   4.959  -4.363  0.00  0.00    +0.146 HD
BRANCH  25  27
ATOM     27  C   UNL     1       1.316   2.879  -3.937  0.00  0.00    +0.074 C 
ATOM     28  C   UNL     1       0.680   2.115  -5.100  0.00  0.00    +0.028 C 
BRANCH  27  29
ATOM     29  C   UNL     1       2.837   2.888  -4.104  0.00  0.00    -0.010 C 
ATOM     30  C   UNL     1       3.473   3.652  -2.941  0.00  0.00    +0.012 C 
ATOM     31  C   UNL     1       4.994   3.661  -3.107  0.00  0.00    -0.010 C 
ATOM     32  C   UNL     1       5.514   2.222  -3.117  0.00  0.00    +0.007 C 
ATOM     33  C   UNL     1       4.878   1.458  -4.280  0.00  0.00    -0.010 C 
ATOM     34  C   UNL     1       3.357   1.449  -4.113  0.00  0.00    +0.012 C 
ATOM     35  C   UNL     1       5.243   2.141  -5.600  0.00  0.00    +0.007 C 
ATOM     36  C   UNL     1       4.723   3.580  -5.590  0.00  0.00    -0.010 C 
ATOM     37  C   UNL     1       5.359   4.344  -4.427  0.00  0.00    +0.007 C 
ATOM     38  C   UNL     1       3.202   3.571  -5.423  0.00  0.00    +0.012 C 
ENDBRANCH  27  29
ENDBRANCH  25  27
ENDBRANCH   5  25
TORSDOF 6
