REMARK  Name = ZINC35707168
REMARK  6 active torsions:
REMARK  status: ('A' for Active; 'I' for Inactive)
REMARK    1  A    between atoms: C_1  and  C_2
REMARK    2  A    between atoms: C_6  and  C_8
REMARK    3  A    between atoms: C_22  and  C_24
REMARK    4  A    between atoms: C_24  and  N_25
REMARK    5  A    between atoms: N_25  and  C_26
REMARK    6  A    between atoms: N_31  and  C_32
REMARK                            x       y       z     vdW  Elec       q    Type
REMARK                         _______ _______ _______ _____ _____    ______ ____
ROOT
ATOM      1  C   UNL     1       0.064  -1.845   3.006  0.00  0.00    +0.159 C 
ATOM      2  C   UNL     1      -1.355  -2.060   3.473  0.00  0.00    +0.049 A 
ATOM      3  C   UNL     1      -2.167  -1.233   4.141  0.00  0.00    +0.025 A 
ATOM      4  C   UNL     1      -3.393  -1.907   4.330  0.00  0.00    +0.020 A 
ATOM      5  C   UNL     1      -3.277  -3.131   3.766  0.00  0.00    +0.092 A 
ATOM      6  N   UNL     1      -2.033  -3.237   3.241  0.00  0.00    -0.316 N 
ATOM      7  C   UNL     1      -1.425  -4.305   2.565  0.00  0.00    +0.068 A 
ATOM      8  C   UNL     1      -2.154  -5.382   2.099  0.00  0.00    +0.028 A 
ATOM      9  C   UNL     1      -1.511  -6.407   1.429  0.00  0.00    +0.002 A 
ATOM     10  C   UNL     1      -0.143  -6.354   1.226  0.00  0.00    +0.002 A 
ATOM     11  C   UNL     1       0.592  -5.281   1.693  0.00  0.00    +0.025 A 
ATOM     12  C   UNL     1      -0.041  -4.250   2.369  0.00  0.00    +0.061 A 
ATOM     13  N   UNL     1       0.697  -3.167   2.869  0.00  0.00    -0.255 N 
ATOM     14  C   UNL     1       1.986  -3.336   3.225  0.00  0.00    +0.238 C 
ATOM     15  O   UNL     1       2.482  -4.443   3.201  0.00  0.00    -0.273 OA
ENDROOT
BRANCH   1  21
ATOM     16  C   UNL     1       0.578   2.349   0.325  0.00  0.00    +0.044 C 
ATOM     17  C   UNL     1       0.308   0.868   0.392  0.00  0.00    -0.050 A 
ATOM     18  C   UNL     1       0.059   0.157  -0.767  0.00  0.00    +0.003 A 
ATOM     19  C   UNL     1      -0.188  -1.201  -0.705  0.00  0.00    +0.001 A 
ATOM     20  C   UNL     1      -0.187  -1.849   0.516  0.00  0.00    +0.006 A 
ATOM     21  C   UNL     1       0.063  -1.139   1.675  0.00  0.00    -0.021 A 
ATOM     22  C   UNL     1       0.315   0.220   1.613  0.00  0.00    +0.009 A 
ENDBRANCH   1  21
BRANCH  14  23
ATOM     23  C   UNL     1       2.812  -2.150   3.652  0.00  0.00    +0.205 C 
BRANCH  23  24
ATOM     24  N   UNL     1       4.201  -2.569   3.852  0.00  0.00    -0.274 N 
ATOM     25  C   UNL     1       4.607  -3.002   5.062  0.00  0.00    +0.307 C 
ATOM     26  O   UNL     1       3.848  -2.958   6.010  0.00  0.00    -0.252 OA
ATOM     27  N   UNL     1       5.856  -3.485   5.221  0.00  0.00    -0.267 N 
ATOM     28  H   UNL     1       6.483  -3.460   4.481  0.00  0.00    +0.156 HD
BRANCH  27  29
ATOM     29  C   UNL     1       6.247  -4.024   6.454  0.00  0.00    +0.070 A 
ATOM     30  C   UNL     1       5.288  -4.407   7.381  0.00  0.00    +0.029 A 
ATOM     31  C   UNL     1       5.676  -4.938   8.596  0.00  0.00    +0.040 A 
ATOM     32  C   UNL     1       7.020  -5.087   8.891  0.00  0.00    +0.126 A 
ATOM     33  C   UNL     1       7.980  -4.705   7.970  0.00  0.00    +0.078 A 
ATOM     34  C   UNL     1       7.597  -4.179   6.749  0.00  0.00    +0.147 A 
ATOM     35  F   UNL     1       8.533  -3.812   5.847  0.00  0.00    -0.203 F 
ATOM     36  F   UNL     1       7.396  -5.606  10.081  0.00  0.00    -0.205 F 
ENDBRANCH  27  29
BRANCH  24  37
ATOM     37  C   UNL     1       5.149  -2.517   2.736  0.00  0.00    +0.078 C 
ATOM     38  C   UNL     1       4.728  -1.741   1.487  0.00  0.00    +0.024 C 
ATOM     39  C   UNL     1       4.778  -3.269   1.457  0.00  0.00    +0.024 C 
ENDBRANCH  24  37
ENDBRANCH  23  24
ENDBRANCH  14  23
TORSDOF 5
