REMARK  Name = ZINC38658785
REMARK  11 active torsions:
REMARK  status: ('A' for Active; 'I' for Inactive)
REMARK    1  A    between atoms: C_1  and  O_2
REMARK    2  A    between atoms: O_2  and  C_3
REMARK    3  A    between atoms: C_7  and  C_11
REMARK    4  A    between atoms: C_8  and  O_9
REMARK    5  A    between atoms: O_9  and  C_10
REMARK    6  A    between atoms: C_16  and  O_25
REMARK    7  A    between atoms: C_20  and  N_24
REMARK    8  A    between atoms: C_21  and  C_22
REMARK    9  A    between atoms: O_25  and  C_26
REMARK   10  A    between atoms: C_26  and  C_28
REMARK   11  A    between atoms: C_29  and  C_30
REMARK                            x       y       z     vdW  Elec       q    Type
REMARK                         _______ _______ _______ _____ _____    ______ ____
ROOT
ATOM      1  C   UNL     1       1.233  -4.250   2.153  0.00  0.00    +0.102 C 
ATOM      2  C   UNL     1       2.608  -4.840   1.980  0.00  0.00    +0.008 A 
ATOM      3  C   UNL     1       3.101  -5.053   0.705  0.00  0.00    +0.012 A 
ATOM      4  C   UNL     1       4.359  -5.593   0.526  0.00  0.00    +0.047 A 
ATOM      5  C   UNL     1       5.134  -5.925   1.629  0.00  0.00    +0.135 A 
ATOM      6  C   UNL     1       4.643  -5.713   2.907  0.00  0.00    +0.093 A 
ATOM      7  C   UNL     1       3.377  -5.169   3.085  0.00  0.00    +0.138 A 
ATOM      8  O   UNL     1       2.911  -4.968   4.342  0.00  0.00    -0.441 OA
ATOM      9  C   UNL     1       1.593  -4.820   4.552  0.00  0.00    +0.199 C 
ATOM     10  C   UNL     1       0.746  -4.480   3.556  0.00  0.00    +0.098 C 
ENDROOT
BRANCH   1  15
ATOM     11  C   UNL     1       0.496  -0.840   0.686  0.00  0.00    +0.162 A 
ATOM     12  C   UNL     1       1.393  -0.045   1.382  0.00  0.00    +0.049 A 
ATOM     13  C   UNL     1       2.232  -0.612   2.322  0.00  0.00    +0.004 A 
ATOM     14  C   UNL     1       2.179  -1.971   2.571  0.00  0.00    +0.008 A 
ATOM     15  C   UNL     1       1.287  -2.769   1.880  0.00  0.00    +0.011 A 
ATOM     16  C   UNL     1       0.439  -2.207   0.940  0.00  0.00    +0.166 A 
BRANCH  11  18
ATOM     17  C   UNL     1      -0.217   1.125  -0.449  0.00  0.00    +0.277 C 
ATOM     18  O   UNL     1      -0.331  -0.284  -0.240  0.00  0.00    -0.491 OA
ENDBRANCH  11  18
BRANCH  16  19
ATOM     19  O   UNL     1      -0.444  -2.990   0.263  0.00  0.00    -0.491 OA
ATOM     20  C   UNL     1       0.007  -3.564  -0.965  0.00  0.00    +0.277 C 
ENDBRANCH  16  19
ENDBRANCH   1  15
BRANCH   9  21
ATOM     21  N   UNL     1       1.093  -5.018   5.815  0.00  0.00    -0.328 N 
ATOM     22  H   UNL     1       1.690  -5.262   6.540  0.00  0.00    +0.145 HD
ATOM     23  H   UNL     1       0.143  -4.915   5.983  0.00  0.00    +0.145 HD
ENDBRANCH   9  21
BRANCH  10  24
ATOM     24  C   UNL     1      -0.649  -4.337   3.846  0.00  0.00    +0.101 C 
ATOM     25  N   UNL     1      -1.756  -4.224   4.077  0.00  0.00    -0.191 NA
ENDBRANCH  10  24
BRANCH   5  26
ATOM     26  O   UNL     1       6.372  -6.457   1.456  0.00  0.00    -0.423 OA
BRANCH  26  27
ATOM     27  C   UNL     1       7.344  -5.656   0.971  0.00  0.00    +0.337 C 
ATOM     28  O   UNL     1       7.128  -4.471   0.804  0.00  0.00    -0.245 OA
BRANCH  27  29
ATOM     29  C   UNL     1       8.656  -6.213   0.645  0.00  0.00    +0.092 C 
ATOM     30  C   UNL     1       9.628  -5.412   0.160  0.00  0.00    +0.016 C 
BRANCH  30  31
ATOM     31  C   UNL     1      10.948  -5.972  -0.167  0.00  0.00    -0.006 A 
ATOM     32  C   UNL     1      11.198  -7.336   0.017  0.00  0.00    +0.009 A 
ATOM     33  C   UNL     1      12.438  -7.854  -0.292  0.00  0.00    +0.001 A 
ATOM     34  C   UNL     1      13.434  -7.028  -0.784  0.00  0.00    +0.001 A 
ATOM     35  C   UNL     1      13.196  -5.678  -0.969  0.00  0.00    +0.020 A 
ATOM     36  C   UNL     1      11.958  -5.145  -0.670  0.00  0.00    +0.048 A 
ATOM     37 CL   UNL     1      11.658  -3.452  -0.911  0.00  0.00    -0.083 Cl
ENDBRANCH  30  31
ENDBRANCH  27  29
ENDBRANCH  26  27
ENDBRANCH   5  26
TORSDOF 9
