REMARK  Name = ZINC20882462
REMARK  10 active torsions:
REMARK  status: ('A' for Active; 'I' for Inactive)
REMARK    1  A    between atoms: C_1  and  C_2
REMARK    2  A    between atoms: C_2  and  C_3
REMARK    3  A    between atoms: C_2  and  C_4
REMARK    4  A    between atoms: C_4  and  O_5
REMARK    5  A    between atoms: O_5  and  C_6
REMARK    6  A    between atoms: C_9  and  C_12
REMARK    7  A    between atoms: C_17  and  C_23
REMARK    8  A    between atoms: C_25  and  N_32
REMARK    9  A    between atoms: C_27  and  O_29
REMARK   10  A    between atoms: O_29  and  C_30
REMARK                            x       y       z     vdW  Elec       q    Type
REMARK                         _______ _______ _______ _____ _____    ______ ____
ROOT
ATOM      1  C   UNL     1       2.103  -1.066  -3.732  0.00  0.00    +0.032 C 
ATOM      2  C   UNL     1       2.099  -1.935  -2.473  0.00  0.00    +0.059 C 
ATOM      3  C   UNL     1       2.027  -1.055  -1.250  0.00  0.00    +0.018 C 
ATOM      4  C   UNL     1       2.567   0.182  -1.255  0.00  0.00    +0.020 C 
ATOM      5  C   UNL     1       2.489   1.043  -0.016  0.00  0.00    +0.063 C 
ATOM      6  C   UNL     1       2.591   0.156   1.226  0.00  0.00    +0.109 C 
ATOM      7  C   UNL     1       1.641  -1.004   1.083  0.00  0.00    +0.218 C 
ATOM      8  O   UNL     1       1.091  -1.460   2.063  0.00  0.00    -0.275 OA
ATOM      9  N   UNL     1       1.400  -1.535  -0.128  0.00  0.00    -0.289 N 
ATOM     10  C   UNL     1       3.207   0.696  -2.395  0.00  0.00    +0.162 C 
ATOM     11  O   UNL     1       3.692   1.809  -2.358  0.00  0.00    -0.292 OA
ATOM     12  C   UNL     1       3.299  -0.111  -3.663  0.00  0.00    +0.088 C 
ATOM     13  H   UNL     1       0.687  -2.368  -0.211  0.00  0.00    +0.155 HD
ENDROOT
BRANCH   5  14
ATOM     14  C   UNL     1       1.176   1.782   0.000  0.00  0.00    -0.034 A 
ATOM     15  C   UNL     1      -0.013   1.076   0.008  0.00  0.00    +0.041 A 
ATOM     16  C   UNL     1      -1.220   1.749   0.017  0.00  0.00    +0.177 A 
ATOM     17  C   UNL     1      -1.240   3.135   0.031  0.00  0.00    +0.250 A 
ATOM     18  C   UNL     1      -0.044   3.845   0.023  0.00  0.00    +0.169 A 
ATOM     19  C   UNL     1       1.163   3.164   0.007  0.00  0.00    +0.054 A 
ATOM     20  O   UNL     1      -2.427   3.799   0.046  0.00  0.00    -0.282 OA
BRANCH  16  21
ATOM     21  N   UNL     1      -2.491   0.990   0.019  0.00  0.00    +0.060 N 
ATOM     22  O   UNL     1      -2.473  -0.228   0.012  0.00  0.00    -0.126 OA
ATOM     23  O   UNL     1      -3.554   1.583   0.027  0.00  0.00    -0.126 OA
ENDBRANCH  16  21
BRANCH  18  24
ATOM     24  O   UNL     1      -0.059   5.205   0.030  0.00  0.00    -0.491 OA
ATOM     25  C   UNL     1       1.207   5.868   0.022  0.00  0.00    +0.277 C 
ENDBRANCH  18  24
ENDBRANCH   5  14
BRANCH   1  29
ATOM     26  C   UNL     1       2.453  -3.553  -7.190  0.00  0.00    +0.121 A 
ATOM     27  C   UNL     1       1.353  -2.720  -7.042  0.00  0.00    +0.046 A 
ATOM     28  C   UNL     1       1.242  -1.917  -5.923  0.00  0.00    +0.007 A 
ATOM     29  C   UNL     1       2.226  -1.943  -4.952  0.00  0.00    -0.043 A 
ATOM     30  C   UNL     1       3.326  -2.768  -5.100  0.00  0.00    +0.007 A 
ATOM     31  C   UNL     1       3.438  -3.577  -6.214  0.00  0.00    +0.046 A 
BRANCH  26  32
ATOM     32  O   UNL     1       2.564  -4.343  -8.290  0.00  0.00    -0.492 OA
BRANCH  32  33
ATOM     33  C   UNL     1       3.723  -5.175  -8.377  0.00  0.00    +0.232 C 
BRANCH  33  35
ATOM     34  C   UNL     1       3.765  -5.037 -10.871  0.00  0.00    +0.010 C 
ATOM     35  C   UNL     1       3.673  -5.985  -9.673  0.00  0.00    +0.020 C 
ATOM     36  C   UNL     1       4.848  -6.965  -9.707  0.00  0.00    +0.010 C 
ENDBRANCH  33  35
ENDBRANCH  32  33
ENDBRANCH  26  32
ENDBRANCH   1  29
TORSDOF 7
