REMARK  Name = ZINC28376125
REMARK  4 active torsions:
REMARK  status: ('A' for Active; 'I' for Inactive)
REMARK    1  A    between atoms: C_4  and  C_33
REMARK    2  A    between atoms: C_5  and  C_7
REMARK    3  A    between atoms: C_7  and  C_8
REMARK    4  A    between atoms: N_11  and  C_14
REMARK                            x       y       z     vdW  Elec       q    Type
REMARK                         _______ _______ _______ _____ _____    ______ ____
ROOT
ATOM      1  C   UNL     1      -3.410   4.149   1.059  0.00  0.00    -0.068 C 
ATOM      2  C   UNL     1      -3.155   3.408   2.373  0.00  0.00    -0.011 C 
ATOM      3  C   UNL     1      -1.649   3.332   2.632  0.00  0.00    +0.051 C 
ATOM      4  C   UNL     1      -0.970   2.590   1.481  0.00  0.00    +0.139 C 
ATOM      5  C   UNL     1      -1.231   3.318   0.162  0.00  0.00    +0.051 C 
ATOM      6  C   UNL     1      -2.738   3.394  -0.090  0.00  0.00    -0.011 C 
ATOM      7  C   UNL     1       0.513   2.494   1.733  0.00  0.00    +0.014 A 
ATOM      8  C   UNL     1       1.506   3.428   1.895  0.00  0.00    +0.012 A 
ATOM      9  C   UNL     1       2.812   3.024   2.121  0.00  0.00    +0.050 A 
ATOM     10  C   UNL     1       3.127   1.675   2.186  0.00  0.00    +0.163 A 
ATOM     11  C   UNL     1       2.131   0.719   2.025  0.00  0.00    +0.176 A 
ATOM     12  C   UNL     1       0.810   1.127   1.794  0.00  0.00    +0.111 A 
ATOM     13  C   UNL     1      -0.439   0.378   1.586  0.00  0.00    +0.344 C 
ATOM     14  O   UNL     1      -0.529  -0.833   1.578  0.00  0.00    -0.245 OA
ATOM     15  O   UNL     1      -1.464   1.227   1.399  0.00  0.00    -0.450 OA
ATOM     16  O   UNL     1       2.419  -0.606   2.094  0.00  0.00    -0.484 OA
ATOM     17  C   UNL     1       3.795  -0.975   1.954  0.00  0.00    +0.270 C 
ATOM     18  C   UNL     1       4.634  -0.044   2.841  0.00  0.00    +0.270 C 
ATOM     19  O   UNL     1       4.418   1.303   2.406  0.00  0.00    -0.485 OA
ENDROOT
BRANCH   1  23
ATOM     20  C   UNL     1      -7.322   3.842  -0.637  0.00  0.00    -0.010 C 
ATOM     21  C   UNL     1      -6.657   5.216  -0.519  0.00  0.00    -0.015 C 
ATOM     22  C   UNL     1      -5.144   5.035  -0.378  0.00  0.00    -0.078 C 
ATOM     23  N   UNL     1      -4.856   4.227   0.814  0.00  0.00    +0.382 N 
ATOM     24  C   UNL     1      -5.445   2.887   0.703  0.00  0.00    -0.078 C 
ATOM     25  C   UNL     1      -6.967   3.004   0.594  0.00  0.00    -0.015 C 
ATOM     26  H   UNL     1      -5.320   4.727   1.677  0.00  0.00    -0.081 HD
BRANCH  20  27
ATOM     27  C   UNL     1      -8.841   4.014  -0.719  0.00  0.00    +0.039 C 
BRANCH  27  32
ATOM     28  C   UNL     1     -10.487   0.662  -0.163  0.00  0.00    +0.000 A 
ATOM     29  C   UNL     1     -10.666   0.224  -1.462  0.00  0.00    +0.001 A 
ATOM     30  C   UNL     1     -10.254   1.012  -2.520  0.00  0.00    +0.012 A 
ATOM     31  C   UNL     1      -9.667   2.240  -2.280  0.00  0.00    +0.058 A 
ATOM     32  C   UNL     1      -9.484   2.677  -0.981  0.00  0.00    -0.035 A 
ATOM     33  C   UNL     1      -9.897   1.889   0.078  0.00  0.00    +0.004 A 
BRANCH  31  34
ATOM     34  C   UNL     1      -9.223   3.102  -3.434  0.00  0.00    +0.418 C 
ATOM     35  F   UNL     1      -9.543   2.468  -4.639  0.00  0.00    -0.166 F 
ATOM     36  F   UNL     1      -9.874   4.338  -3.370  0.00  0.00    -0.166 F 
ATOM     37  F   UNL     1      -7.840   3.299  -3.363  0.00  0.00    -0.166 F 
ENDBRANCH  31  34
ENDBRANCH  27  32
ENDBRANCH  20  27
ENDBRANCH   1  23
TORSDOF 4
