REMARK  Name = ZINC34786878
REMARK  6 active torsions:
REMARK  status: ('A' for Active; 'I' for Inactive)
REMARK    1  A    between atoms: C_1  and  C_2
REMARK    2  A    between atoms: C_4  and  C_38
REMARK    3  A    between atoms: N_19  and  N_20
REMARK    4  A    between atoms: N_19  and  N_27
REMARK    5  A    between atoms: N_20  and  C_21
REMARK    6  A    between atoms: N_27  and  C_28
REMARK                            x       y       z     vdW  Elec       q    Type
REMARK                         _______ _______ _______ _____ _____    ______ ____
ROOT
ATOM      1  C   UNL     1       3.845  -0.975  -0.637  0.00  0.00    +0.067 C 
ATOM      2  C   UNL     1       3.092  -2.246  -0.337  0.00  0.00    +0.061 A 
ATOM      3  C   UNL     1       2.925  -3.325  -1.213  0.00  0.00    +0.048 A 
ATOM      4  C   UNL     1       2.194  -4.269  -0.578  0.00  0.00    +0.045 A 
ATOM      5  N   UNL     1       1.909  -3.800   0.665  0.00  0.00    -0.202 N 
ATOM      6  N   UNL     1       2.490  -2.531   0.788  0.00  0.00    -0.169 NA
ATOM      7  C   UNL     1       1.172  -4.465   1.646  0.00  0.00    +0.254 A 
ATOM      8  N   UNL     1       0.969  -3.876   2.817  0.00  0.00    -0.192 NA
ATOM      9  C   UNL     1       0.280  -4.456   3.786  0.00  0.00    +0.170 A 
ATOM     10  C   UNL     1      -0.263  -5.753   3.567  0.00  0.00    +0.054 A 
ATOM     11  C   UNL     1      -1.055  -6.580   4.492  0.00  0.00    -0.025 A 
ATOM     12  C   UNL     1      -1.453  -7.781   4.044  0.00  0.00    -0.004 A 
ATOM     13  S   UNL     1      -0.815  -7.891   2.387  0.00  0.00    -0.073 S 
ATOM     14  C   UNL     1      -0.009  -6.316   2.304  0.00  0.00    +0.116 A 
ATOM     15  N   UNL     1       0.686  -5.669   1.387  0.00  0.00    -0.203 NA
ATOM     16  C   UNL     1      -2.248  -8.538   5.074  0.00  0.00    +0.043 C 
ATOM     17  C   UNL     1      -1.937  -7.822   6.407  0.00  0.00    +0.010 C 
ATOM     18  C   UNL     1      -1.573  -6.405   5.923  0.00  0.00    +0.037 C 
ATOM     19  N   UNL     1       0.089  -3.811   4.994  0.00  0.00    -0.151 N 
ATOM     20  C   UNL     1       1.773  -5.600  -1.145  0.00  0.00    +0.066 C 
ENDROOT
BRANCH  19  21
ATOM     21  N   UNL     1       0.404  -4.463   6.194  0.00  0.00    -0.246 N 
ATOM     22  H   UNL     1      -0.298  -4.681   6.826  0.00  0.00    +0.172 HD
BRANCH  21  23
ATOM     23  C   UNL     1       1.730  -4.798   6.479  0.00  0.00    +0.046 A 
ATOM     24  C   UNL     1       2.751  -4.380   5.635  0.00  0.00    +0.024 A 
ATOM     25  C   UNL     1       4.060  -4.713   5.920  0.00  0.00    +0.002 A 
ATOM     26  C   UNL     1       4.356  -5.461   7.045  0.00  0.00    +0.000 A 
ATOM     27  C   UNL     1       3.342  -5.878   7.887  0.00  0.00    +0.002 A 
ATOM     28  C   UNL     1       2.031  -5.545   7.611  0.00  0.00    +0.024 A 
ENDBRANCH  21  23
ENDBRANCH  19  21
BRANCH  19  29
ATOM     29  N   UNL     1      -0.419  -2.506   5.019  0.00  0.00    -0.246 N 
ATOM     30  H   UNL     1       0.184  -1.752   5.113  0.00  0.00    +0.172 HD
BRANCH  29  31
ATOM     31  C   UNL     1      -1.791  -2.290   4.907  0.00  0.00    +0.054 A 
ATOM     32  C   UNL     1      -2.643  -3.346   4.661  0.00  0.00    +0.025 A 
ATOM     33  C   UNL     1      -4.015  -3.141   4.548  0.00  0.00    +0.002 A 
ATOM     34  C   UNL     1      -4.553  -1.897   4.678  0.00  0.00    +0.008 A 
ATOM     35  C   UNL     1      -3.720  -0.794   4.930  0.00  0.00    -0.016 A 
ATOM     36  C   UNL     1      -2.322  -0.990   5.052  0.00  0.00    +0.004 A 
ATOM     37  C   UNL     1      -1.491   0.112   5.308  0.00  0.00    +0.010 A 
ATOM     38  C   UNL     1      -2.037   1.351   5.441  0.00  0.00    +0.001 A 
ATOM     39  C   UNL     1      -3.412   1.545   5.327  0.00  0.00    +0.001 A 
ATOM     40  C   UNL     1      -4.247   0.501   5.068  0.00  0.00    +0.008 A 
ENDBRANCH  29  31
ENDBRANCH  19  29
TORSDOF 4
