REMARK  Name = ZINC28352230
REMARK  9 active torsions:
REMARK  status: ('A' for Active; 'I' for Inactive)
REMARK    1  A    between atoms: C_1  and  O_2
REMARK    2  A    between atoms: O_2  and  C_3
REMARK    3  A    between atoms: C_8  and  S_9
REMARK    4  A    between atoms: S_9  and  C_10
REMARK    5  A    between atoms: C_13  and  C_20
REMARK    6  A    between atoms: C_15  and  C_16
REMARK    7  A    between atoms: C_29  and  C_32
REMARK    8  A    between atoms: C_32  and  C_33
REMARK    9  A    between atoms: C_33  and  O_34
REMARK                            x       y       z     vdW  Elec       q    Type
REMARK                         _______ _______ _______ _____ _____    ______ ____
ROOT
ATOM      1  C   UNL     1      -5.110  -0.059  -0.038  0.00  0.00    +0.025 A 
ATOM      2  C   UNL     1      -3.805  -0.542  -0.029  0.00  0.00    +0.016 A 
ATOM      3  C   UNL     1      -2.745   0.335  -0.078  0.00  0.00    +0.009 A 
ATOM      4  C   UNL     1      -2.979   1.709  -0.137  0.00  0.00    -0.017 A 
ATOM      5  C   UNL     1      -4.288   2.192  -0.140  0.00  0.00    +0.022 A 
ATOM      6  C   UNL     1      -5.346   1.310  -0.096  0.00  0.00    +0.069 A 
ENDROOT
BRANCH   4   7
ATOM      7  C   UNL     1      -1.839   2.655  -0.189  0.00  0.00    -0.013 A 
ATOM      8  C   UNL     1      -2.055   4.038  -0.243  0.00  0.00    +0.026 A 
ATOM      9  C   UNL     1      -0.970   4.885  -0.297  0.00  0.00    +0.085 A 
ATOM     10  N   UNL     1       0.263   4.412  -0.293  0.00  0.00    -0.350 N 
ATOM     11  C   UNL     1       0.514   3.113  -0.238  0.00  0.00    +0.099 A 
ATOM     12  C   UNL     1      -0.523   2.192  -0.181  0.00  0.00    +0.050 A 
ATOM     13  N   UNL     1       1.831   2.667  -0.236  0.00  0.00    -0.317 N 
ATOM     14  C   UNL     1       2.066   1.717  -1.332  0.00  0.00    +0.107 C 
ATOM     15  C   UNL     1       3.478   1.138  -1.212  0.00  0.00    +0.022 C 
ATOM     16  C   UNL     1       4.498   2.278  -1.272  0.00  0.00    -0.006 C 
ATOM     17  C   UNL     1       4.202   3.278  -0.151  0.00  0.00    +0.022 C 
ATOM     18  C   UNL     1       2.769   3.795  -0.301  0.00  0.00    +0.107 C 
ATOM     19  H   UNL     1       1.117   5.104  -0.337  0.00  0.00    +0.166 HD
BRANCH  16  20
ATOM     20  C   UNL     1       5.909   1.712  -1.093  0.00  0.00    +0.031 C 
BRANCH  20  21
ATOM     21  C   UNL     1       6.251   0.809  -2.280  0.00  0.00    +0.156 C 
BRANCH  21  22
ATOM     22  O   UNL     1       7.568   0.280  -2.112  0.00  0.00    -0.395 OA
ATOM     23  H   UNL     1       7.990  -0.395  -2.871  0.00  0.00    +0.209 HD
ENDBRANCH  21  22
ENDBRANCH  20  21
ENDBRANCH  16  20
ENDBRANCH   4   7
BRANCH   6  24
ATOM     24  C   UNL     1      -6.760   1.831  -0.106  0.00  0.00    +0.418 C 
ATOM     25  F   UNL     1      -6.742   3.229  -0.168  0.00  0.00    -0.166 F 
ATOM     26  F   UNL     1      -7.436   1.324  -1.220  0.00  0.00    -0.166 F 
ATOM     27  F   UNL     1      -7.415   1.425   1.062  0.00  0.00    -0.166 F 
ENDBRANCH   6  24
BRANCH   1  28
ATOM     28  S   UNL     1      -6.465  -1.184   0.026  0.00  0.00    -0.085 S 
BRANCH  28  34
ATOM     29  C   UNL     1      -8.117  -1.832   2.114  0.00  0.00    +0.134 A 
ATOM     30  C   UNL     1      -8.511  -1.797   3.441  0.00  0.00    +0.047 A 
ATOM     31  C   UNL     1      -7.772  -1.081   4.364  0.00  0.00    +0.004 A 
ATOM     32  C   UNL     1      -6.638  -0.397   3.967  0.00  0.00    +0.001 A 
ATOM     33  C   UNL     1      -6.234  -0.430   2.646  0.00  0.00    +0.019 A 
ATOM     34  C   UNL     1      -6.974  -1.143   1.712  0.00  0.00    +0.054 A 
BRANCH  29  36
ATOM     35  C   UNL     1     -10.002  -3.218   1.689  0.00  0.00    +0.277 C 
ATOM     36  O   UNL     1      -8.843  -2.537   1.206  0.00  0.00    -0.494 OA
ENDBRANCH  29  36
ENDBRANCH  28  34
ENDBRANCH   1  28
TORSDOF 8
