REMARK  Name = ZINC13647090
REMARK  13 active torsions:
REMARK  status: ('A' for Active; 'I' for Inactive)
REMARK    1  A    between atoms: C_1  and  C_2
REMARK    2  A    between atoms: C_2  and  C_4
REMARK    3  A    between atoms: C_2  and  N_14
REMARK    4  A    between atoms: C_7  and  C_10
REMARK    5  A    between atoms: C_10  and  C_11
REMARK    6  A    between atoms: C_10  and  C_12
REMARK    7  A    between atoms: C_10  and  C_13
REMARK    8  A    between atoms: C_15  and  C_17
REMARK    9  A    between atoms: C_17  and  C_19
REMARK   10  A    between atoms: C_17  and  N_20
REMARK   11  A    between atoms: N_20  and  C_21
REMARK   12  A    between atoms: N_20  and  S_28
REMARK   13  A    between atoms: S_28  and  C_31
REMARK                            x       y       z     vdW  Elec       q    Type
REMARK                         _______ _______ _______ _____ _____    ______ ____
ROOT
ATOM      1  N   UNL     1       1.159   1.073  -0.471  0.00  0.00    -0.307 N 
ATOM      2  C   UNL     1       2.269   0.657  -1.113  0.00  0.00    +0.235 C 
ATOM      3  O   UNL     1       2.204  -0.259  -1.905  0.00  0.00    -0.274 OA
ATOM      4  H   UNL     1       1.211   1.806   0.162  0.00  0.00    +0.149 HD
ENDROOT
BRANCH   1   6
ATOM      5  C   UNL     1      -0.781   1.045  -1.960  0.00  0.00    +0.033 C 
ATOM      6  C   UNL     1      -0.125   0.417  -0.728  0.00  0.00    +0.100 C 
BRANCH   6   7
ATOM      7  C   UNL     1      -1.027   0.593   0.466  0.00  0.00    -0.027 A 
ATOM      8  C   UNL     1      -1.051   1.798   1.142  0.00  0.00    +0.006 A 
ATOM      9  C   UNL     1      -1.882   1.962   2.235  0.00  0.00    +0.004 A 
ATOM     10  C   UNL     1      -2.682   0.916   2.657  0.00  0.00    -0.042 A 
ATOM     11  C   UNL     1      -2.655  -0.291   1.984  0.00  0.00    +0.004 A 
ATOM     12  C   UNL     1      -1.827  -0.452   0.888  0.00  0.00    +0.006 A 
BRANCH  10  13
ATOM     13  C   UNL     1      -3.585   1.092   3.851  0.00  0.00    -0.013 C 
ATOM     14  C   UNL     1      -3.207   0.076   4.930  0.00  0.00    +0.015 C 
ATOM     15  C   UNL     1      -3.425   2.509   4.406  0.00  0.00    +0.015 C 
ATOM     16  C   UNL     1      -5.038   0.871   3.429  0.00  0.00    +0.015 C 
ENDBRANCH  10  13
ENDBRANCH   6   7
ENDBRANCH   1   6
BRANCH   2  17
ATOM     17  C   UNL     1       3.590   1.332  -0.849  0.00  0.00    +0.180 C 
ATOM     18  C   UNL     1       3.946   1.192   0.633  0.00  0.00    +0.040 C 
BRANCH  17  19
ATOM     19  N   UNL     1       4.632   0.702  -1.663  0.00  0.00    -0.196 N 
BRANCH  19  20
ATOM     20  C   UNL     1       4.991  -0.629  -1.432  0.00  0.00    +0.052 A 
ATOM     21  C   UNL     1       4.635  -1.614  -2.344  0.00  0.00    +0.026 A 
ATOM     22  C   UNL     1       4.996  -2.927  -2.116  0.00  0.00    +0.022 A 
ATOM     23  C   UNL     1       5.701  -3.264  -0.974  0.00  0.00    +0.041 A 
ATOM     24  C   UNL     1       6.052  -2.286  -0.061  0.00  0.00    +0.022 A 
ATOM     25  C   UNL     1       5.699  -0.970  -0.287  0.00  0.00    +0.026 A 
ATOM     26 CL   UNL     1       6.146  -4.917  -0.687  0.00  0.00    -0.084 Cl
ENDBRANCH  19  20
BRANCH  19  27
ATOM     27  S   UNL     1       5.385   1.567  -2.858  0.00  0.00    +0.043 S 
ATOM     28  O   UNL     1       5.723   0.603  -3.846  0.00  0.00    -0.155 OA
ATOM     29  O   UNL     1       4.488   2.627  -3.158  0.00  0.00    -0.155 OA
ATOM     30  C   UNL     1       6.889   2.220  -2.083  0.00  0.00    +0.218 C 
ENDBRANCH  19  27
ENDBRANCH  17  19
ENDBRANCH   2  17
TORSDOF 7
