REMARK  Name = ZINC63804973
REMARK  8 active torsions:
REMARK  status: ('A' for Active; 'I' for Inactive)
REMARK    1  A    between atoms: C_1  and  C_2
REMARK    2  A    between atoms: C_5  and  C_8
REMARK    3  A    between atoms: C_8  and  S_9
REMARK    4  A    between atoms: S_9  and  C_10
REMARK    5  A    between atoms: C_14  and  C_17
REMARK    6  A    between atoms: C_17  and  C_19
REMARK    7  A    between atoms: C_17  and  N_29
REMARK    8  A    between atoms: C_19  and  C_20
REMARK                            x       y       z     vdW  Elec       q    Type
REMARK                         _______ _______ _______ _____ _____    ______ ____
ROOT
ATOM      1  C   UNL     1       1.628  -6.666  -0.043  0.00  0.00    +0.262 C 
ATOM      2  N   UNL     1       0.836  -7.125   1.122  0.00  0.00    -0.218 NA
ATOM      3  N   UNL     1       0.024  -8.242   0.637  0.00  0.00    -0.228 NA
ATOM      4  C   UNL     1       0.366  -8.399  -0.795  0.00  0.00    +0.188 C 
ATOM      5  O   UNL     1       0.871  -7.103  -1.194  0.00  0.00    -0.334 OA
ATOM      6  H   UNL     1       0.254  -6.382   1.479  0.00  0.00    +0.144 HD
ATOM      7  H   UNL     1      -0.960  -8.051   0.755  0.00  0.00    +0.143 HD
ENDROOT
BRANCH   1   8
ATOM      8  S   UNL     1       1.777  -4.858  -0.034  0.00  0.00    -0.108 S 
BRANCH   8   9
ATOM      9  C   UNL     1       0.059  -4.275  -0.021  0.00  0.00    +0.108 C 
BRANCH   9  14
ATOM     10  C   UNL     1      -0.018   1.503   0.010  0.00  0.00    +0.044 C 
ATOM     11  C   UNL     1       0.002  -0.004   0.002  0.00  0.00    -0.050 A 
ATOM     12  C   UNL     1       0.006  -0.689  -1.199  0.00  0.00    +0.003 A 
ATOM     13  C   UNL     1       0.025  -2.071  -1.206  0.00  0.00    +0.005 A 
ATOM     14  C   UNL     1       0.040  -2.768  -0.013  0.00  0.00    -0.037 A 
ATOM     15  C   UNL     1       0.037  -2.084   1.188  0.00  0.00    +0.005 A 
ATOM     16  C   UNL     1       0.023  -0.702   1.195  0.00  0.00    +0.003 A 
ENDBRANCH   9  14
ENDBRANCH   8   9
ENDBRANCH   1   8
BRANCH   4  17
ATOM     17  C   UNL     1      -0.879  -8.764  -1.605  0.00  0.00    -0.025 C 
BRANCH  17  18
ATOM     18  N   UNL     1      -1.833  -7.647  -1.566  0.00  0.00    +0.383 N 
ATOM     19  H   UNL     1      -2.655  -7.887  -2.100  0.00  0.00    -0.089 HD
ATOM     20  H   UNL     1      -2.096  -7.463  -0.609  0.00  0.00    -0.089 HD
ATOM     21  H   UNL     1      -1.404  -6.824  -1.961  0.00  0.00    -0.089 HD
ENDBRANCH  17  18
BRANCH  17  22
ATOM     22  C   UNL     1      -0.481  -9.043  -3.056  0.00  0.00    +0.021 C 
BRANCH  22  23
ATOM     23  C   UNL     1      -1.685  -9.520  -3.825  0.00  0.00    -0.043 C 
ATOM     24  C   UNL     1      -2.516  -8.769  -4.583  0.00  0.00    -0.001 A 
ATOM     25  C   UNL     1      -2.547  -7.337  -4.905  0.00  0.00    +0.010 A 
ATOM     26  C   UNL     1      -3.526  -6.866  -5.710  0.00  0.00    +0.001 A 
ATOM     27  C   UNL     1      -4.511  -7.709  -6.244  0.00  0.00    +0.002 A 
ATOM     28  C   UNL     1      -4.549  -9.035  -5.993  0.00  0.00    +0.026 A 
ATOM     29  C   UNL     1      -3.567  -9.638  -5.159  0.00  0.00    +0.043 A 
ATOM     30  N   UNL     1      -3.393 -10.878  -4.772  0.00  0.00    -0.380 N 
ATOM     31  C   UNL     1      -2.206 -10.937  -3.911  0.00  0.00    +0.144 C 
ATOM     32  H   UNL     1      -3.952 -11.632  -5.018  0.00  0.00    +0.160 HD
ENDBRANCH  22  23
ENDBRANCH  17  22
ENDBRANCH   4  17
TORSDOF 7
