REMARK  Name = ZINC18052377
REMARK  11 active torsions:
REMARK  status: ('A' for Active; 'I' for Inactive)
REMARK    1  A    between atoms: C_1  and  C_2
REMARK    2  A    between atoms: C_4  and  C_14
REMARK    3  A    between atoms: C_6  and  S_9
REMARK    4  A    between atoms: C_7  and  C_8
REMARK    5  A    between atoms: S_9  and  N_12
REMARK    6  A    between atoms: N_12  and  C_13
REMARK    7  A    between atoms: N_16  and  N_17
REMARK    8  A    between atoms: C_18  and  C_20
REMARK    9  A    between atoms: C_20  and  C_22
REMARK   10  A    between atoms: C_20  and  O_23
REMARK   11  A    between atoms: O_23  and  C_24
REMARK                            x       y       z     vdW  Elec       q    Type
REMARK                         _______ _______ _______ _____ _____    ______ ____
ROOT
ATOM      1  C   UNL     1       0.971   3.915   0.084  0.00  0.00    +0.260 C 
ATOM      2  O   UNL     1      -0.108   4.474   0.085  0.00  0.00    -0.269 OA
ATOM      3  N   UNL     1       2.106   4.642   0.074  0.00  0.00    -0.230 N 
ATOM      4  H   UNL     1       2.968   4.196   0.072  0.00  0.00    +0.173 HD
ENDROOT
BRANCH   1   8
ATOM      5  C   UNL     1       3.669  -0.283   0.100  0.00  0.00    +0.044 C 
ATOM      6  C   UNL     1       2.334   0.415   0.101  0.00  0.00    -0.045 A 
ATOM      7  C   UNL     1       2.277   1.793   0.092  0.00  0.00    +0.016 A 
ATOM      8  C   UNL     1       1.040   2.438   0.093  0.00  0.00    +0.040 A 
ATOM      9  C   UNL     1      -0.134   1.682   0.104  0.00  0.00    +0.042 A 
ATOM     10  C   UNL     1      -0.064   0.305   0.113  0.00  0.00    +0.109 A 
ATOM     11  C   UNL     1       1.167  -0.328   0.111  0.00  0.00    -0.021 A 
ATOM     12  C   UNL     1       1.236  -1.834   0.122  0.00  0.00    +0.046 C 
BRANCH  10  13
ATOM     13  S   UNL     1      -1.544  -0.651   0.125  0.00  0.00    +0.058 S 
ATOM     14  O   UNL     1      -2.623   0.272   0.160  0.00  0.00    -0.153 OA
ATOM     15  O   UNL     1      -1.407  -1.625  -0.900  0.00  0.00    -0.153 OA
BRANCH  13  16
ATOM     16  N   UNL     1      -1.581  -1.477   1.560  0.00  0.00    -0.193 NA
ATOM     17  C   UNL     1      -1.674  -0.744   2.825  0.00  0.00    +0.127 C 
ATOM     18  H   UNL     1      -1.542  -2.446   1.563  0.00  0.00    +0.148 HD
ENDBRANCH  13  16
ENDBRANCH  10  13
ENDBRANCH   1   8
BRANCH   3  19
ATOM     19  N   UNL     1       2.042   6.041   0.065  0.00  0.00    -0.231 N 
ATOM     20  C   UNL     1       3.177   6.768   0.055  0.00  0.00    +0.270 C 
ATOM     21  O   UNL     1       4.254   6.210   0.053  0.00  0.00    -0.270 OA
ATOM     22  H   UNL     1       1.181   6.487   0.066  0.00  0.00    +0.173 HD
BRANCH  20  23
ATOM     23  C   UNL     1       3.108   8.273   0.045  0.00  0.00    +0.257 C 
ATOM     24  C   UNL     1       2.482   8.763   1.353  0.00  0.00    +0.062 C 
BRANCH  23  25
ATOM     25  O   UNL     1       4.426   8.810  -0.082  0.00  0.00    -0.480 OA
BRANCH  25  26
ATOM     26  C   UNL     1       4.536  10.055  -0.615  0.00  0.00    +0.122 A 
ATOM     27  C   UNL     1       3.380  10.790  -0.896  0.00  0.00    +0.046 A 
ATOM     28  C   UNL     1       3.458  12.039  -1.429  0.00  0.00    +0.012 A 
ATOM     29  C   UNL     1       4.717  12.602  -1.704  0.00  0.00    -0.018 A 
ATOM     30  C   UNL     1       4.834  13.890  -2.255  0.00  0.00    +0.008 A 
ATOM     31  C   UNL     1       6.068  14.405  -2.507  0.00  0.00    +0.001 A 
ATOM     32  C   UNL     1       7.222  13.674  -2.228  0.00  0.00    +0.001 A 
ATOM     33  C   UNL     1       7.147  12.424  -1.695  0.00  0.00    +0.008 A 
ATOM     34  C   UNL     1       5.890  11.859  -1.420  0.00  0.00    -0.014 A 
ATOM     35  C   UNL     1       5.775  10.574  -0.864  0.00  0.00    +0.054 A 
ENDBRANCH  25  26
ENDBRANCH  23  25
ENDBRANCH  20  23
ENDBRANCH   3  19
TORSDOF 7
