REMARK  Name = ZINC37264082
REMARK  12 active torsions:
REMARK  status: ('A' for Active; 'I' for Inactive)
REMARK    1  A    between atoms: C_1  and  C_2
REMARK    2  A    between atoms: C_2  and  C_3
REMARK    3  A    between atoms: C_2  and  C_4
REMARK    4  A    between atoms: C_4  and  N_5
REMARK    5  A    between atoms: C_6  and  C_8
REMARK    6  A    between atoms: C_8  and  N_9
REMARK    7  A    between atoms: C_12  and  C_22
REMARK    8  A    between atoms: N_14  and  C_15
REMARK    9  A    between atoms: C_22  and  C_23
REMARK   10  A    between atoms: C_22  and  C_24
REMARK   11  A    between atoms: C_22  and  C_25
REMARK   12  A    between atoms: C_26  and  C_32
REMARK                            x       y       z     vdW  Elec       q    Type
REMARK                         _______ _______ _______ _____ _____    ______ ____
ROOT
ATOM      1  N   UNL     1      -9.010  -3.115  -1.288  0.00  0.00    -0.246 N 
ATOM      2  C   UNL     1      -8.169  -3.523  -0.241  0.00  0.00    +0.136 A 
ATOM      3  C   UNL     1      -8.617  -3.946   0.964  0.00  0.00    +0.034 A 
ATOM      4  C   UNL     1      -7.507  -4.273   1.744  0.00  0.00    +0.075 A 
ATOM      5  N   UNL     1      -6.427  -4.051   1.033  0.00  0.00    -0.169 NA
ATOM      6  N   UNL     1      -6.816  -3.574  -0.228  0.00  0.00    -0.218 N 
ATOM      7  C   UNL     1     -10.069  -4.029   1.361  0.00  0.00    +0.118 C 
ATOM      8  S   UNL     1     -10.829  -5.452   0.498  0.00  0.00    -0.138 S 
ATOM      9  C   UNL     1     -10.084  -5.325  -1.162  0.00  0.00    +0.166 C 
ATOM     10  C   UNL     1     -10.045  -3.895  -1.614  0.00  0.00    +0.231 C 
ATOM     11  O   UNL     1     -10.954  -3.446  -2.281  0.00  0.00    -0.274 OA
ENDROOT
BRANCH   6  12
ATOM     12  C   UNL     1      -5.962  -3.216  -1.281  0.00  0.00    +0.068 A 
ATOM     13  C   UNL     1      -6.343  -3.450  -2.595  0.00  0.00    +0.030 A 
ATOM     14  C   UNL     1      -5.500  -3.096  -3.631  0.00  0.00    +0.040 A 
ATOM     15  C   UNL     1      -4.275  -2.510  -3.358  0.00  0.00    +0.124 A 
ATOM     16  C   UNL     1      -3.893  -2.276  -2.048  0.00  0.00    +0.040 A 
ATOM     17  C   UNL     1      -4.736  -2.623  -1.010  0.00  0.00    +0.030 A 
ATOM     18  F   UNL     1      -3.452  -2.165  -4.372  0.00  0.00    -0.205 F 
ENDBRANCH   6  12
BRANCH   7  19
ATOM     19  C   UNL     1     -10.175  -4.222   2.852  0.00  0.00    +0.007 A 
ATOM     20  C   UNL     1     -10.269  -5.374   3.559  0.00  0.00    +0.012 A 
ATOM     21  C   UNL     1     -10.357  -5.310   4.938  0.00  0.00    +0.008 A 
ATOM     22  C   UNL     1     -10.346  -4.096   5.541  0.00  0.00    +0.045 A 
ATOM     23  S   UNL     1     -10.202  -2.991   4.146  0.00  0.00    -0.100 S 
ENDBRANCH   7  19
BRANCH   4  24
ATOM     24  C   UNL     1      -7.543  -4.790   3.159  0.00  0.00    +0.007 C 
ATOM     25  C   UNL     1      -8.560  -5.929   3.260  0.00  0.00    +0.017 C 
ATOM     26  C   UNL     1      -6.157  -5.308   3.548  0.00  0.00    +0.017 C 
ATOM     27  C   UNL     1      -7.949  -3.659   4.105  0.00  0.00    +0.017 C 
ENDBRANCH   4  24
BRANCH   1  28
ATOM     28  C   UNL     1      -8.761  -1.861  -2.003  0.00  0.00    +0.210 C 
BRANCH  28  30
ATOM     29  N   UNL     1      -9.409   0.517  -1.801  0.00  0.00    -0.314 N 
ATOM     30  C   UNL     1      -9.492  -0.738  -1.316  0.00  0.00    +0.231 C 
ATOM     31  O   UNL     1     -10.156  -0.962  -0.325  0.00  0.00    -0.274 OA
ATOM     32  H   UNL     1      -8.879   0.697  -2.593  0.00  0.00    +0.149 HD
BRANCH  29  33
ATOM     33  C   UNL     1     -10.120   1.610  -1.133  0.00  0.00    +0.107 C 
BRANCH  33  35
ATOM     34  C   UNL     1     -10.701   4.037  -1.257  0.00  0.00    +0.009 C 
ATOM     35  C   UNL     1      -9.861   2.920  -1.880  0.00  0.00    -0.000 C 
ATOM     36  C   UNL     1      -8.377   3.280  -1.778  0.00  0.00    +0.009 C 
ENDBRANCH  33  35
ENDBRANCH  29  33
ENDBRANCH  28  30
ENDBRANCH   1  28
TORSDOF 7
