REMARK  Name = ZINC12466433
REMARK  8 active torsions:
REMARK  status: ('A' for Active; 'I' for Inactive)
REMARK    1  A    between atoms: C_1  and  C_2
REMARK    2  A    between atoms: C_2  and  C_3
REMARK    3  A    between atoms: C_3  and  C_4
REMARK    4  A    between atoms: C_4  and  N_5
REMARK    5  A    between atoms: C_9  and  N_18
REMARK    6  A    between atoms: C_19  and  C_21
REMARK    7  A    between atoms: N_26  and  S_27
REMARK    8  A    between atoms: S_27  and  C_30
REMARK                            x       y       z     vdW  Elec       q    Type
REMARK                         _______ _______ _______ _____ _____    ______ ____
ROOT
ATOM      1  N   UNL     1      -4.725   6.079  -0.797  0.00  0.00    -0.284 N 
ATOM      2  C   UNL     1      -5.483   5.859   0.295  0.00  0.00    +0.236 C 
ATOM      3  O   UNL     1      -5.225   4.934   1.036  0.00  0.00    -0.274 OA
ATOM      4  H   UNL     1      -4.881   6.864  -1.346  0.00  0.00    +0.155 HD
ENDROOT
BRANCH   1   9
ATOM      5  N   UNL     1      -0.567   2.670  -2.322  0.00  0.00    -0.267 N 
ATOM      6  C   UNL     1      -1.696   3.293  -1.802  0.00  0.00    +0.045 A 
ATOM      7  C   UNL     1      -2.741   2.947  -0.962  0.00  0.00    +0.026 A 
ATOM      8  C   UNL     1      -3.725   3.882  -0.650  0.00  0.00    +0.026 A 
ATOM      9  C   UNL     1      -3.716   5.178  -1.139  0.00  0.00    +0.041 A 
ATOM     10  C   UNL     1      -2.660   5.563  -1.993  0.00  0.00    +0.006 A 
ATOM     11  C   UNL     1      -1.695   4.597  -2.281  0.00  0.00    +0.017 A 
ATOM     12  C   UNL     1      -0.583   4.817  -3.111  0.00  0.00    +0.047 A 
ATOM     13  C   UNL     1      -0.459   6.080  -3.664  0.00  0.00    +0.014 A 
ATOM     14  C   UNL     1      -1.415   7.054  -3.384  0.00  0.00    +0.001 A 
ATOM     15  C   UNL     1      -2.497   6.829  -2.574  0.00  0.00    +0.010 A 
ATOM     16  C   UNL     1       0.127   3.534  -3.110  0.00  0.00    +0.251 C 
ATOM     17  O   UNL     1       1.157   3.286  -3.709  0.00  0.00    -0.270 OA
BRANCH   5  18
ATOM     18  C   UNL     1      -0.183   1.280  -2.063  0.00  0.00    +0.114 C 
BRANCH  18  19
ATOM     19  C   UNL     1       0.720   1.222  -0.829  0.00  0.00    +0.019 C 
BRANCH  19  21
ATOM     20  C   UNL     1       2.023  -0.288   0.675  0.00  0.00    +0.004 C 
ATOM     21  C   UNL     1       1.121  -0.230  -0.559  0.00  0.00    -0.002 C 
ENDBRANCH  19  21
ENDBRANCH  18  19
ENDBRANCH   5  18
ENDBRANCH   1   9
BRANCH   2  22
ATOM     22  C   UNL     1      -6.652   6.762   0.595  0.00  0.00    +0.166 C 
ATOM     23  C   UNL     1      -6.193   7.973   1.445  0.00  0.00    +0.031 C 
ATOM     24  C   UNL     1      -7.516   8.379   2.148  0.00  0.00    +0.019 C 
ATOM     25  C   UNL     1      -8.206   7.021   2.396  0.00  0.00    +0.110 C 
ATOM     26  N   UNL     1      -7.639   6.060   1.435  0.00  0.00    -0.164 NA
BRANCH  26  27
ATOM     27  S   UNL     1      -8.042   4.458   1.318  0.00  0.00    +0.068 S 
ATOM     28  O   UNL     1      -9.431   4.366   1.605  0.00  0.00    -0.152 OA
ATOM     29  O   UNL     1      -7.483   3.987   0.100  0.00  0.00    -0.152 OA
BRANCH  27  30
ATOM     30  C   UNL     1      -7.203   3.614   2.617  0.00  0.00    +0.144 A 
ATOM     31  C   UNL     1      -7.563   3.472   3.916  0.00  0.00    +0.038 A 
ATOM     32  C   UNL     1      -6.739   2.759   4.766  0.00  0.00    +0.030 A 
ATOM     33  C   UNL     1      -5.595   2.221   4.275  0.00  0.00    +0.080 A 
ATOM     34  S   UNL     1      -5.660   2.716   2.561  0.00  0.00    -0.057 S 
ATOM     35 CL   UNL     1      -4.383   1.289   5.098  0.00  0.00    -0.076 Cl
ENDBRANCH  27  30
ENDBRANCH  26  27
ENDBRANCH   2  22
TORSDOF 7
