REMARK  Name = ZINC08442072
REMARK  13 active torsions:
REMARK  status: ('A' for Active; 'I' for Inactive)
REMARK    1  A    between atoms: C_1  and  C_2
REMARK    2  A    between atoms: C_2  and  C_3
REMARK    3  A    between atoms: C_3  and  O_4
REMARK    4  A    between atoms: O_4  and  C_5
REMARK    5  A    between atoms: C_5  and  C_7
REMARK    6  A    between atoms: C_11  and  N_13
REMARK    7  A    between atoms: C_14  and  C_16
REMARK    8  A    between atoms: C_16  and  S_17
REMARK    9  A    between atoms: S_17  and  C_18
REMARK   10  A    between atoms: C_21  and  C_24
REMARK   11  A    between atoms: N_22  and  C_23
REMARK   12  A    between atoms: C_30  and  O_33
REMARK   13  A    between atoms: O_33  and  C_34
REMARK                            x       y       z     vdW  Elec       q    Type
REMARK                         _______ _______ _______ _____ _____    ______ ____
ROOT
ATOM      1  S   UNL     1      -3.901   1.897   0.118  0.00  0.00    -0.077 S 
ENDROOT
BRANCH   1   2
ATOM      2  C   UNL     1      -5.207   0.723   0.262  0.00  0.00    +0.192 A 
ATOM      3  N   UNL     1      -5.077  -0.583   0.344  0.00  0.00    -0.122 NA
ATOM      4  N   UNL     1      -6.232  -1.137   0.442  0.00  0.00    -0.125 NA
ATOM      5  C   UNL     1      -7.173  -0.220   0.419  0.00  0.00    +0.200 A 
ATOM      6  N   UNL     1      -6.544   1.001   0.303  0.00  0.00    -0.303 N 
ATOM      7  C   UNL     1      -7.177   2.320   0.236  0.00  0.00    +0.153 C 
BRANCH   5   8
ATOM      8  C   UNL     1      -8.624  -0.452   0.501  0.00  0.00    +0.173 A 
ATOM      9  C   UNL     1      -9.235  -1.651   0.321  0.00  0.00    +0.061 A 
ATOM     10  C   UNL     1     -10.667  -1.407   0.498  0.00  0.00    +0.025 A 
ATOM     11  C   UNL     1     -11.806  -2.215   0.444  0.00  0.00    +0.012 A 
ATOM     12  C   UNL     1     -13.040  -1.666   0.655  0.00  0.00    +0.004 A 
ATOM     13  C   UNL     1     -13.170  -0.311   0.922  0.00  0.00    +0.049 A 
ATOM     14  C   UNL     1     -12.056   0.507   0.982  0.00  0.00    +0.163 A 
ATOM     15  C   UNL     1     -10.789  -0.034   0.769  0.00  0.00    +0.177 A 
ATOM     16  O   UNL     1      -9.548   0.495   0.761  0.00  0.00    -0.448 OA
BRANCH  14  17
ATOM     17  O   UNL     1     -12.196   1.833   1.245  0.00  0.00    -0.491 OA
ATOM     18  C   UNL     1     -13.524   2.316   1.452  0.00  0.00    +0.277 C 
ENDBRANCH  14  17
ENDBRANCH   5   8
ENDBRANCH   1   2
BRANCH   1  19
ATOM     19  C   UNL     1      -2.475   0.782   0.133  0.00  0.00    +0.173 C 
BRANCH  19  21
ATOM     20  N   UNL     1      -0.011   0.966   0.007  0.00  0.00    -0.285 N 
ATOM     21  C   UNL     1      -1.206   1.588   0.017  0.00  0.00    +0.227 C 
ATOM     22  O   UNL     1      -1.262   2.797  -0.067  0.00  0.00    -0.275 OA
ATOM     23  H   UNL     1       0.031  -0.003   0.007  0.00  0.00    +0.155 HD
BRANCH  20  28
ATOM     24  C   UNL     1       3.463   2.017   0.653  0.00  0.00    +0.061 A 
ATOM     25  C   UNL     1       3.503   3.223  -0.051  0.00  0.00    +0.015 A 
ATOM     26  C   UNL     1       2.383   3.665  -0.724  0.00  0.00    +0.003 A 
ATOM     27  C   UNL     1       1.221   2.916  -0.710  0.00  0.00    +0.023 A 
ATOM     28  C   UNL     1       1.169   1.718  -0.008  0.00  0.00    +0.034 A 
ATOM     29  C   UNL     1       2.289   1.264   0.672  0.00  0.00    +0.038 A 
BRANCH  24  30
ATOM     30  C   UNL     1       4.661   1.541   1.375  0.00  0.00    +0.339 C 
ATOM     31  O   UNL     1       4.624   0.492   1.986  0.00  0.00    -0.245 OA
BRANCH  30  32
ATOM     32  O   UNL     1       5.794   2.270   1.355  0.00  0.00    -0.461 OA
BRANCH  32  33
ATOM     33  C   UNL     1       6.931   1.740   2.086  0.00  0.00    +0.232 C 
BRANCH  33  35
ATOM     34  C   UNL     1       9.314   2.141   2.720  0.00  0.00    +0.007 C 
ATOM     35  C   UNL     1       8.116   2.698   1.949  0.00  0.00    +0.038 C 
ENDBRANCH  33  35
ENDBRANCH  32  33
ENDBRANCH  30  32
ENDBRANCH  24  30
ENDBRANCH  20  28
ENDBRANCH  19  21
ENDBRANCH   1  19
TORSDOF 10
