REMARK  Name = ZINC09463936
REMARK  11 active torsions:
REMARK  status: ('A' for Active; 'I' for Inactive)
REMARK    1  A    between atoms: C_1  and  C_2
REMARK    2  A    between atoms: C_4  and  C_14
REMARK    3  A    between atoms: C_5  and  C_13
REMARK    4  A    between atoms: N_6  and  C_7
REMARK    5  A    between atoms: C_7  and  C_8
REMARK    6  A    between atoms: C_14  and  C_16
REMARK    7  A    between atoms: C_16  and  O_17
REMARK    8  A    between atoms: O_17  and  C_18
REMARK    9  A    between atoms: C_18  and  C_20
REMARK   10  A    between atoms: N_23  and  C_26
REMARK   11  A    between atoms: C_29  and  C_31
REMARK                            x       y       z     vdW  Elec       q    Type
REMARK                         _______ _______ _______ _____ _____    ______ ____
ROOT
ATOM      1  C   UNL     1      -5.369   3.729   7.887  0.00  0.00    +0.311 C 
ATOM      2  O   UNL     1      -5.935   4.790   7.767  0.00  0.00    -0.251 OA
ENDROOT
BRANCH   1   3
ATOM      3  C   UNL     1      -4.716   3.085   6.691  0.00  0.00    +0.101 C 
ATOM      4  C   UNL     1      -4.915   3.973   5.459  0.00  0.00    +0.033 C 
ATOM      5  C   UNL     1      -4.200   3.343   4.262  0.00  0.00    +0.107 C 
ATOM      6  N   UNL     1      -2.769   3.205   4.561  0.00  0.00    -0.317 N 
ATOM      7  C   UNL     1      -2.551   2.319   5.712  0.00  0.00    +0.107 C 
ATOM      8  C   UNL     1      -3.217   2.918   6.953  0.00  0.00    +0.033 C 
BRANCH   6   9
ATOM      9  C   UNL     1      -2.068   2.757   3.448  0.00  0.00    +0.099 A 
ATOM     10  C   UNL     1      -0.692   2.563   3.532  0.00  0.00    +0.042 A 
ATOM     11  C   UNL     1      -0.007   2.118   2.416  0.00  0.00    +0.017 A 
ATOM     12  C   UNL     1      -0.722   1.881   1.250  0.00  0.00    +0.071 A 
ATOM     13  C   UNL     1      -2.085   2.100   1.236  0.00  0.00    +0.096 A 
ATOM     14  N   UNL     1      -2.792   2.532   2.314  0.00  0.00    -0.349 N 
ATOM     15  H   UNL     1      -3.808   2.679   2.277  0.00  0.00    +0.167 HD
BRANCH  12  16
ATOM     16  C   UNL     1      -0.017   1.395   0.010  0.00  0.00    +0.419 C 
ATOM     17  F   UNL     1       0.002  -0.004   0.002  0.00  0.00    -0.166 F 
ATOM     18  F   UNL     1       1.296   1.879  -0.000  0.00  0.00    -0.166 F 
ATOM     19  F   UNL     1      -0.694   1.858  -1.124  0.00  0.00    -0.166 F 
ENDBRANCH  12  16
ENDBRANCH   6   9
ENDBRANCH   1   3
BRANCH   1  20
ATOM     20  O   UNL     1      -5.321   3.125   9.084  0.00  0.00    -0.456 OA
BRANCH  20  21
ATOM     21  C   UNL     1      -5.971   3.803  10.191  0.00  0.00    +0.311 C 
BRANCH  21  22
ATOM     22  C   UNL     1      -5.814   2.982  11.445  0.00  0.00    +0.202 C 
ATOM     23  O   UNL     1      -5.214   1.928  11.409  0.00  0.00    -0.288 OA
BRANCH  22  27
ATOM     24  C   UNL     1      -8.246   5.807  14.918  0.00  0.00    +0.063 C 
ATOM     25  C   UNL     1      -7.466   4.717  14.230  0.00  0.00    +0.017 A 
ATOM     26  C   UNL     1      -7.139   4.698  12.927  0.00  0.00    +0.034 A 
ATOM     27  C   UNL     1      -6.387   3.456  12.707  0.00  0.00    +0.042 A 
ATOM     28  C   UNL     1      -6.336   2.822  13.935  0.00  0.00    +0.027 A 
ATOM     29  N   UNL     1      -6.980   3.592  14.830  0.00  0.00    -0.340 N 
ATOM     30  C   UNL     1      -5.672   1.500  14.221  0.00  0.00    +0.064 C 
BRANCH  29  31
ATOM     31  C   UNL     1      -7.141   3.266  16.249  0.00  0.00    +0.196 C 
BRANCH  31  32
ATOM     32  C   UNL     1      -8.409   2.473  16.441  0.00  0.00    +0.124 A 
ATOM     33  C   UNL     1      -8.514   1.133  16.386  0.00  0.00    +0.046 A 
ATOM     34  C   UNL     1      -9.872   0.820  16.624  0.00  0.00    +0.041 A 
ATOM     35  C   UNL     1     -10.517   1.987  16.802  0.00  0.00    +0.195 A 
ATOM     36  O   UNL     1      -9.625   2.985  16.690  0.00  0.00    -0.466 OA
ENDBRANCH  31  32
ENDBRANCH  29  31
ENDBRANCH  22  27
ENDBRANCH  21  22
ENDBRANCH  20  21
ENDBRANCH   1  20
TORSDOF 9
