REMARK  Name = ZINC02106467
REMARK  9 active torsions:
REMARK  status: ('A' for Active; 'I' for Inactive)
REMARK    1  A    between atoms: C_1  and  C_2
REMARK    2  A    between atoms: C_5  and  C_7
REMARK    3  A    between atoms: N_14  and  C_32
REMARK    4  A    between atoms: C_15  and  S_17
REMARK    5  A    between atoms: S_17  and  C_18
REMARK    6  A    between atoms: C_18  and  C_19
REMARK    7  A    between atoms: N_21  and  C_22
REMARK    8  A    between atoms: C_23  and  C_30
REMARK    9  A    between atoms: C_32  and  C_33
REMARK                            x       y       z     vdW  Elec       q    Type
REMARK                         _______ _______ _______ _____ _____    ______ ____
ROOT
ATOM      1  C   UNL     1      -2.479   1.083   4.379  0.00  0.00    +0.039 A 
ATOM      2  C   UNL     1      -2.142   1.571   5.599  0.00  0.00    +0.059 A 
ATOM      3  S   UNL     1      -3.227   0.696   6.709  0.00  0.00    -0.076 S 
ATOM      4  C   UNL     1      -4.095  -0.302   5.526  0.00  0.00    +0.117 A 
ATOM      5  C   UNL     1      -3.527   0.069   4.295  0.00  0.00    +0.083 A 
ATOM      6  C   UNL     1      -4.049  -0.595   3.143  0.00  0.00    +0.264 A 
ATOM      7  O   UNL     1      -3.616  -0.336   2.033  0.00  0.00    -0.267 OA
ATOM      8  N   UNL     1      -5.025  -1.508   3.297  0.00  0.00    -0.283 N 
ATOM      9  C   UNL     1      -5.522  -1.810   4.532  0.00  0.00    +0.173 A 
ATOM     10  N   UNL     1      -5.058  -1.213   5.611  0.00  0.00    -0.216 NA
ENDROOT
BRANCH   1  15
ATOM     11  C   UNL     1      -0.013   1.086   0.008  0.00  0.00    +0.086 C 
ATOM     12  C   UNL     1      -0.718   1.572   1.248  0.00  0.00    +0.103 A 
ATOM     13  C   UNL     1      -0.915   2.861   1.585  0.00  0.00    +0.045 A 
ATOM     14  C   UNL     1      -1.613   2.865   2.810  0.00  0.00    +0.050 A 
ATOM     15  C   UNL     1      -1.798   1.564   3.161  0.00  0.00    +0.136 A 
ATOM     16  O   UNL     1      -1.250   0.791   2.204  0.00  0.00    -0.460 OA
ENDBRANCH   1  15
BRANCH   9  17
ATOM     17  S   UNL     1      -6.800  -3.013   4.685  0.00  0.00    -0.078 S 
BRANCH  17  18
ATOM     18  C   UNL     1      -7.040  -2.990   6.479  0.00  0.00    +0.173 C 
BRANCH  18  19
ATOM     19  C   UNL     1      -8.120  -3.972   6.854  0.00  0.00    +0.228 C 
ATOM     20  O   UNL     1      -8.673  -4.623   5.993  0.00  0.00    -0.275 OA
ATOM     21  N   UNL     1      -8.472  -4.127   8.146  0.00  0.00    -0.278 N 
ATOM     22  H   UNL     1      -8.029  -3.606   8.834  0.00  0.00    +0.155 HD
BRANCH  21  23
ATOM     23  C   UNL     1      -9.466  -5.031   8.491  0.00  0.00    +0.090 A 
ATOM     24  C   UNL     1      -9.957  -5.331   9.749  0.00  0.00    +0.084 A 
ATOM     25  C   UNL     1     -11.021  -6.329   9.842  0.00  0.00    -0.018 A 
ATOM     26  C   UNL     1     -11.406  -6.863   8.669  0.00  0.00    -0.004 A 
ATOM     27  S   UNL     1     -10.390  -6.062   7.452  0.00  0.00    -0.077 S 
ATOM     28  C   UNL     1     -12.500  -7.882   8.845  0.00  0.00    +0.043 C 
ATOM     29  C   UNL     1     -13.060  -7.610  10.258  0.00  0.00    +0.010 C 
ATOM     30  C   UNL     1     -11.848  -6.966  10.960  0.00  0.00    +0.037 C 
BRANCH  24  31
ATOM     31  C   UNL     1      -9.443  -4.684  10.919  0.00  0.00    +0.102 C 
ATOM     32  N   UNL     1      -9.035  -4.170  11.847  0.00  0.00    -0.191 NA
ENDBRANCH  24  31
ENDBRANCH  21  23
ENDBRANCH  18  19
ENDBRANCH  17  18
ENDBRANCH   9  17
BRANCH   8  33
ATOM     33  C   UNL     1      -5.564  -2.191   2.119  0.00  0.00    +0.154 C 
BRANCH  33  34
ATOM     34  C   UNL     1      -4.771  -3.445   1.858  0.00  0.00    -0.013 C 
ATOM     35  C   UNL     1      -5.382  -4.601   1.773  0.00  0.00    +0.005 C 
ENDBRANCH  33  34
ENDBRANCH   8  33
TORSDOF 8
