REMARK  Name = ZINC34912357
REMARK  4 active torsions:
REMARK  status: ('A' for Active; 'I' for Inactive)
REMARK    1  A    between atoms: C_10  and  N_12
REMARK    2  A    between atoms: C_13  and  C_15
REMARK    3  A    between atoms: N_18  and  C_21
REMARK    4  A    between atoms: C_27  and  C_29
REMARK                            x       y       z     vdW  Elec       q    Type
REMARK                         _______ _______ _______ _____ _____    ______ ____
ROOT
ATOM      1  C   UNL     1       7.004   1.819   0.416  0.00  0.00    +0.071 C 
ATOM      2  C   UNL     1       8.077   0.850  -0.088  0.00  0.00    -0.006 C 
ATOM      3  C   UNL     1       8.799   1.474  -1.285  0.00  0.00    -0.078 C 
ATOM      4  N   UNL     1       9.429   2.736  -0.877  0.00  0.00    +0.382 N 
ATOM      5  C   UNL     1       8.399   3.695  -0.461  0.00  0.00    -0.078 C 
ATOM      6  C   UNL     1       7.662   3.157   0.768  0.00  0.00    -0.006 C 
ATOM      7  H   UNL     1      10.058   2.563  -0.107  0.00  0.00    -0.081 HD
ENDROOT
BRANCH   4   8
ATOM      8  C   UNL     1      10.185   3.291  -2.008  0.00  0.00    -0.066 C 
ATOM      9  C   UNL     1      10.841   4.607  -1.585  0.00  0.00    +0.004 C 
ATOM     10  C   UNL     1      11.600   5.201  -2.776  0.00  0.00    +0.106 C 
ATOM     11  N   UNL     1      12.540   4.195  -3.287  0.00  0.00    -0.298 N 
ATOM     12  C   UNL     1      12.028   2.863  -3.638  0.00  0.00    +0.106 C 
ATOM     13  C   UNL     1      11.265   2.296  -2.437  0.00  0.00    +0.004 C 
ATOM     14  C   UNL     1      13.848   4.488  -3.430  0.00  0.00    +0.247 C 
ATOM     15  O   UNL     1      14.248   5.613  -3.202  0.00  0.00    -0.270 OA
BRANCH  14  16
ATOM     16  C   UNL     1      14.797   3.440  -3.865  0.00  0.00    +0.040 A 
ATOM     17  C   UNL     1      14.524   2.675  -5.000  0.00  0.00    +0.033 A 
ATOM     18  C   UNL     1      15.413   1.698  -5.401  0.00  0.00    +0.043 A 
ATOM     19  C   UNL     1      16.574   1.477  -4.681  0.00  0.00    +0.040 A 
ATOM     20  C   UNL     1      16.851   2.233  -3.554  0.00  0.00    +0.043 A 
ATOM     21  C   UNL     1      15.972   3.217  -3.146  0.00  0.00    +0.033 A 
ATOM     22 CL   UNL     1      18.309   1.948  -2.656  0.00  0.00    -0.083 Cl
ATOM     23 CL   UNL     1      15.075   0.745  -6.812  0.00  0.00    -0.083 Cl
ENDBRANCH  14  16
ENDBRANCH   4   8
BRANCH   1  25
ATOM     24  N   UNL     1       5.696   0.065   1.569  0.00  0.00    -0.308 N 
ATOM     25  C   UNL     1       6.342   1.245   1.642  0.00  0.00    +0.216 C 
ATOM     26  O   UNL     1       6.391   1.845   2.695  0.00  0.00    -0.276 OA
ATOM     27  H   UNL     1       5.656  -0.415   0.727  0.00  0.00    +0.149 HD
BRANCH  24  37
ATOM     28  C   UNL     1       1.184   1.292   3.140  0.00  0.00    +0.000 A 
ATOM     29  C   UNL     1       2.281   2.050   2.773  0.00  0.00    +0.000 A 
ATOM     30  C   UNL     1       3.518   1.452   2.655  0.00  0.00    +0.006 A 
ATOM     31  C   UNL     1       3.672   0.093   2.901  0.00  0.00    -0.024 A 
ATOM     32  C   UNL     1       2.579  -0.662   3.261  0.00  0.00    -0.042 A 
ATOM     33  C   UNL     1       1.335  -0.057   3.383  0.00  0.00    +0.004 A 
ATOM     34  C   UNL     1       2.669  -2.142   3.527  0.00  0.00    +0.035 C 
ATOM     35  C   UNL     1       4.118  -2.557   3.774  0.00  0.00    +0.007 C 
ATOM     36  C   UNL     1       4.979  -2.013   2.628  0.00  0.00    +0.027 C 
ATOM     37  C   UNL     1       5.052  -0.493   2.761  0.00  0.00    +0.103 C 
ENDBRANCH  24  37
ENDBRANCH   1  25
TORSDOF 4
