REMARK  Name = ZINC35705861
REMARK  10 active torsions:
REMARK  status: ('A' for Active; 'I' for Inactive)
REMARK    1  A    between atoms: C_1  and  C_2
REMARK    2  A    between atoms: C_5  and  C_8
REMARK    3  A    between atoms: C_8  and  N_9
REMARK    4  A    between atoms: N_9  and  C_10
REMARK    5  A    between atoms: N_9  and  C_20
REMARK    6  A    between atoms: C_10  and  C_11
REMARK    7  A    between atoms: C_20  and  C_21
REMARK    8  A    between atoms: C_23  and  C_26
REMARK    9  A    between atoms: N_28  and  C_29
REMARK   10  A    between atoms: C_29  and  C_30
REMARK                            x       y       z     vdW  Elec       q    Type
REMARK                         _______ _______ _______ _____ _____    ______ ____
ROOT
ATOM      1  N   UNL     1       1.500  -4.639   0.017  0.00  0.00    +0.391 N 
ATOM      2  H   UNL     1       1.987  -4.290   0.829  0.00  0.00    -0.080 HD
ENDROOT
BRANCH   1   3
ATOM      3  C   UNL     1       0.101  -4.193   0.056  0.00  0.00    -0.042 C 
BRANCH   3   8
ATOM      4  C   UNL     1      -2.282  -5.757   5.083  0.00  0.00    +0.044 C 
ATOM      5  C   UNL     1      -1.660  -5.349   3.772  0.00  0.00    -0.050 A 
ATOM      6  C   UNL     1      -0.928  -4.179   3.689  0.00  0.00    +0.003 A 
ATOM      7  C   UNL     1      -0.358  -3.806   2.486  0.00  0.00    +0.002 A 
ATOM      8  C   UNL     1      -0.520  -4.601   1.367  0.00  0.00    -0.064 A 
ATOM      9  C   UNL     1      -1.251  -5.771   1.451  0.00  0.00    +0.002 A 
ATOM     10  C   UNL     1      -1.818  -6.147   2.655  0.00  0.00    +0.003 A 
ENDBRANCH   3   8
ENDBRANCH   1   3
BRANCH   1  11
ATOM     11  C   UNL     1       2.144  -4.124  -1.199  0.00  0.00    -0.042 C 
BRANCH  11  12
ATOM     12  C   UNL     1       2.225  -2.621  -1.126  0.00  0.00    -0.060 A 
ATOM     13  C   UNL     1       1.248  -1.848  -1.726  0.00  0.00    +0.005 A 
ATOM     14  C   UNL     1       1.318  -0.469  -1.661  0.00  0.00    +0.050 A 
ATOM     15  C   UNL     1       2.369   0.142  -0.996  0.00  0.00    +0.166 A 
ATOM     16  C   UNL     1       3.353  -0.637  -0.392  0.00  0.00    +0.166 A 
ATOM     17  C   UNL     1       3.273  -2.018  -0.456  0.00  0.00    +0.051 A 
ATOM     18  O   UNL     1       4.267   0.191   0.191  0.00  0.00    -0.453 OA
ATOM     19  C   UNL     1       4.055   1.483  -0.409  0.00  0.00    +0.466 C 
ATOM     20  O   UNL     1       2.667   1.458  -0.791  0.00  0.00    -0.453 OA
ENDBRANCH  11  12
ENDBRANCH   1  11
BRANCH   1  21
ATOM     21  C   UNL     1       1.546  -6.107   0.011  0.00  0.00    +0.020 C 
BRANCH  21  22
ATOM     22  C   UNL     1       2.979  -6.565   0.095  0.00  0.00    +0.179 A 
ATOM     23  N   UNL     1       3.630  -6.805   1.194  0.00  0.00    -0.210 NA
ATOM     24  C   UNL     1       4.892  -7.197   0.872  0.00  0.00    +0.163 A 
ATOM     25  C   UNL     1       4.980  -7.185  -0.486  0.00  0.00    +0.230 A 
ATOM     26  O   UNL     1       3.783  -6.795  -0.953  0.00  0.00    -0.449 OA
BRANCH  24  27
ATOM     27  C   UNL     1       5.963  -7.565   1.816  0.00  0.00    +0.266 C 
ATOM     28  O   UNL     1       7.054  -7.901   1.397  0.00  0.00    -0.268 OA
ATOM     29  N   UNL     1       5.732  -7.531   3.143  0.00  0.00    -0.306 N 
ATOM     30  H   UNL     1       4.862  -7.264   3.477  0.00  0.00    +0.149 HD
BRANCH  29  31
ATOM     31  C   UNL     1       6.796  -7.897   4.081  0.00  0.00    +0.140 C 
BRANCH  31  32
ATOM     32  C   UNL     1       6.285  -7.776   5.493  0.00  0.00    -0.030 A 
ATOM     33  C   UNL     1       6.408  -6.578   6.172  0.00  0.00    +0.008 A 
ATOM     34  C   UNL     1       5.939  -6.465   7.467  0.00  0.00    +0.038 A 
ATOM     35  C   UNL     1       5.345  -7.553   8.085  0.00  0.00    +0.123 A 
ATOM     36  C   UNL     1       5.222  -8.752   7.404  0.00  0.00    +0.038 A 
ATOM     37  C   UNL     1       5.687  -8.861   6.107  0.00  0.00    +0.008 A 
ATOM     38  F   UNL     1       4.886  -7.444   9.351  0.00  0.00    -0.205 F 
ENDBRANCH  31  32
ENDBRANCH  29  31
ENDBRANCH  24  27
ENDBRANCH  21  22
ENDBRANCH   1  21
TORSDOF 9
