REMARK  Name = ZINC08441747
REMARK  7 active torsions:
REMARK  status: ('A' for Active; 'I' for Inactive)
REMARK    1  A    between atoms: C_1  and  C_2
REMARK    2  A    between atoms: C_2  and  O_3
REMARK    3  A    between atoms: O_3  and  C_4
REMARK    4  A    between atoms: C_14  and  C_32
REMARK    5  A    between atoms: C_16  and  C_21
REMARK    6  A    between atoms: C_17  and  O_20
REMARK    7  A    between atoms: C_21  and  C_23
REMARK                            x       y       z     vdW  Elec       q    Type
REMARK                         _______ _______ _______ _____ _____    ______ ____
ROOT
ATOM      1  C   UNL     1       2.785  10.739  -0.047  0.00  0.00    +0.122 A 
ATOM      2  C   UNL     1       1.584  10.041   0.035  0.00  0.00    +0.048 A 
ATOM      3  C   UNL     1       1.549   8.682   0.044  0.00  0.00    +0.032 A 
ATOM      4  C   UNL     1       2.740   7.924  -0.031  0.00  0.00    +0.081 A 
ATOM      5  C   UNL     1       3.945   8.659  -0.113  0.00  0.00    +0.044 A 
ATOM      6  C   UNL     1       3.976  10.031  -0.122  0.00  0.00    +0.063 A 
ATOM      7  S   UNL     1       5.169   7.373  -0.179  0.00  0.00    -0.052 S 
ATOM      8  C   UNL     1       4.043   5.987  -0.106  0.00  0.00    +0.169 A 
ATOM      9  N   UNL     1       2.874   6.579  -0.033  0.00  0.00    -0.224 NA
ATOM     10  N   UNL     1       4.331   4.633  -0.119  0.00  0.00    -0.231 N 
ATOM     11  C   UNL     1       3.352   3.541  -0.055  0.00  0.00    +0.158 C 
ATOM     12  C   UNL     1       4.149   2.259  -0.095  0.00  0.00    +0.075 C 
ATOM     13  C   UNL     1       5.453   2.612  -0.182  0.00  0.00    +0.189 C 
ATOM     14  C   UNL     1       5.557   4.085  -0.196  0.00  0.00    +0.288 C 
ATOM     15  O   UNL     1       6.597   4.710  -0.268  0.00  0.00    -0.266 OA
ENDROOT
BRANCH  11  16
ATOM     16  C   UNL     1       2.419   3.608  -1.237  0.00  0.00    +0.015 A 
ATOM     17  C   UNL     1       1.075   3.439  -1.274  0.00  0.00    +0.013 A 
ATOM     18  C   UNL     1       0.418   3.547  -2.486  0.00  0.00    +0.008 A 
ATOM     19  C   UNL     1       1.139   3.820  -3.601  0.00  0.00    +0.045 A 
ATOM     20  S   UNL     1       2.797   3.939  -2.950  0.00  0.00    -0.099 S 
ENDBRANCH  11  16
BRANCH  13  21
ATOM     21  O   UNL     1       6.497   1.752  -0.246  0.00  0.00    -0.502 OA
ATOM     22  H   UNL     1       7.351   2.269  -0.305  0.00  0.00    +0.292 HD
ENDBRANCH  13  21
BRANCH  12  23
ATOM     23  C   UNL     1       3.614   0.894  -0.054  0.00  0.00    +0.230 C 
ATOM     24  O   UNL     1       3.732   0.164  -1.022  0.00  0.00    -0.283 OA
BRANCH  23  25
ATOM     25  C   UNL     1       2.936   0.407   1.155  0.00  0.00    +0.176 A 
ATOM     26  C   UNL     1       2.313  -0.797   1.273  0.00  0.00    +0.061 A 
ATOM     27  C   UNL     1       1.788  -0.849   2.635  0.00  0.00    +0.021 A 
ATOM     28  C   UNL     1       1.064  -1.797   3.365  0.00  0.00    +0.011 A 
ATOM     29  C   UNL     1       0.717  -1.533   4.660  0.00  0.00    +0.001 A 
ATOM     30  C   UNL     1       1.077  -0.331   5.254  0.00  0.00    +0.004 A 
ATOM     31  C   UNL     1       1.795   0.614   4.554  0.00  0.00    +0.047 A 
ATOM     32  C   UNL     1       2.156   0.371   3.234  0.00  0.00    +0.136 A 
ATOM     33  O   UNL     1       2.837   1.086   2.317  0.00  0.00    -0.452 OA
ENDBRANCH  23  25
ENDBRANCH  12  23
BRANCH   1  34
ATOM     34  O   UNL     1       2.792  12.099  -0.053  0.00  0.00    -0.492 OA
BRANCH  34  36
ATOM     35  C   UNL     1       1.732  14.270   0.007  0.00  0.00    +0.048 C 
ATOM     36  C   UNL     1       1.525  12.755   0.027  0.00  0.00    +0.225 C 
ENDBRANCH  34  36
ENDBRANCH   1  34
TORSDOF 6
