REMARK  Name = ZINC15779854
REMARK  11 active torsions:
REMARK  status: ('A' for Active; 'I' for Inactive)
REMARK    1  A    between atoms: C_1  and  C_2
REMARK    2  A    between atoms: C_6  and  C_40
REMARK    3  A    between atoms: C_8  and  O_11
REMARK    4  A    between atoms: O_11  and  C_12
REMARK    5  A    between atoms: C_12  and  C_14
REMARK    6  A    between atoms: C_14  and  N_16
REMARK    7  A    between atoms: C_14  and  N_31
REMARK    8  A    between atoms: S_17  and  C_19
REMARK    9  A    between atoms: S_17  and  C_25
REMARK   10  A    between atoms: C_40  and  C_41
REMARK   11  A    between atoms: C_40  and  C_42
REMARK                            x       y       z     vdW  Elec       q    Type
REMARK                         _______ _______ _______ _____ _____    ______ ____
ROOT
ATOM      1  C   UNL     1       4.855   4.541   0.806  0.00  0.00    +0.342 C 
ENDROOT
BRANCH   1   2
ATOM      2  N   UNL     1       5.947   3.899   1.542  0.00  0.00    -0.208 N 
ATOM      3  C   UNL     1       7.283   3.925   1.220  0.00  0.00    +0.092 A 
ATOM      4  C   UNL     1       8.020   4.516   0.199  0.00  0.00    +0.030 A 
ATOM      5  C   UNL     1       9.377   4.357   0.160  0.00  0.00    +0.002 A 
ATOM      6  C   UNL     1      10.029   3.615   1.136  0.00  0.00    +0.002 A 
ATOM      7  C   UNL     1       9.330   3.030   2.151  0.00  0.00    +0.032 A 
ATOM      8  C   UNL     1       7.938   3.178   2.214  0.00  0.00    +0.113 A 
ATOM      9  N   UNL     1       7.001   2.730   3.073  0.00  0.00    -0.129 NA
ATOM     10  N   UNL     1       5.834   3.131   2.711  0.00  0.00    -0.062 NA
ENDBRANCH   1   2
BRANCH   1  11
ATOM     11  N   UNL     1       3.739   3.602   0.670  0.00  0.00    -0.189 NA
ATOM     12  S   UNL     1       3.938   2.303  -0.040  0.00  0.00    +0.108 S 
ATOM     13  O   UNL     1       4.943   1.549   0.625  0.00  0.00    -0.238 OA
BRANCH  12  14
ATOM     14  C   UNL     1       2.428   1.397  -0.041  0.00  0.00    +0.052 A 
ATOM     15  C   UNL     1       1.219   2.067  -0.033  0.00  0.00    +0.018 A 
ATOM     16  C   UNL     1       0.034   1.356  -0.033  0.00  0.00    +0.001 A 
ATOM     17  C   UNL     1       0.057  -0.026  -0.041  0.00  0.00    +0.000 A 
ATOM     18  C   UNL     1       1.266  -0.697  -0.047  0.00  0.00    +0.001 A 
ATOM     19  C   UNL     1       2.451   0.014  -0.047  0.00  0.00    +0.018 A 
ENDBRANCH  12  14
BRANCH  12  20
ATOM     20  C   UNL     1       4.439   2.613  -1.701  0.00  0.00    +0.052 A 
ATOM     21  C   UNL     1       5.256   1.711  -2.356  0.00  0.00    +0.018 A 
ATOM     22  C   UNL     1       5.645   1.952  -3.661  0.00  0.00    +0.001 A 
ATOM     23  C   UNL     1       5.224   3.099  -4.307  0.00  0.00    +0.000 A 
ATOM     24  C   UNL     1       4.412   4.004  -3.649  0.00  0.00    +0.001 A 
ATOM     25  C   UNL     1       4.019   3.761  -2.346  0.00  0.00    +0.018 A 
ENDBRANCH  12  20
ENDBRANCH   1  11
BRANCH   1  26
ATOM     26  C   UNL     1       4.394   5.764   1.557  0.00  0.00    +0.355 C 
ATOM     27  O   UNL     1       3.251   5.842   1.939  0.00  0.00    -0.246 OA
BRANCH  26  28
ATOM     28  O   UNL     1       5.254   6.766   1.801  0.00  0.00    -0.458 OA
BRANCH  28  34
ATOM     29  C   UNL     1       3.092  11.174   1.317  0.00  0.00    +0.007 C 
ATOM     30  C   UNL     1       3.646  10.147   2.307  0.00  0.00    -0.011 C 
ATOM     31  C   UNL     1       4.775  10.781   3.121  0.00  0.00    +0.004 C 
ATOM     32  C   UNL     1       5.329   9.754   4.111  0.00  0.00    +0.007 C 
ATOM     33  C   UNL     1       5.870   8.546   3.344  0.00  0.00    +0.032 C 
ATOM     34  C   UNL     1       4.740   7.912   2.529  0.00  0.00    +0.180 C 
ATOM     35  C   UNL     1       4.186   8.939   1.540  0.00  0.00    +0.048 C 
BRANCH  33  36
ATOM     36  C   UNL     1       6.424   7.519   4.333  0.00  0.00    -0.011 C 
ATOM     37  C   UNL     1       7.640   8.108   5.052  0.00  0.00    +0.007 C 
ATOM     38  C   UNL     1       5.345   7.168   5.361  0.00  0.00    +0.007 C 
ENDBRANCH  33  36
ENDBRANCH  28  34
ENDBRANCH  26  28
ENDBRANCH   1  26
TORSDOF 8
