REMARK  Name = ZINC26500021
REMARK  10 active torsions:
REMARK  status: ('A' for Active; 'I' for Inactive)
REMARK    1  A    between atoms: C_1  and  C_2
REMARK    2  A    between atoms: C_6  and  C_8
REMARK    3  A    between atoms: C_8  and  C_9
REMARK    4  A    between atoms: C_9  and  N_10
REMARK    5  A    between atoms: N_10  and  C_11
REMARK    6  A    between atoms: C_11  and  C_12
REMARK    7  A    between atoms: C_16  and  C_18
REMARK    8  A    between atoms: C_18  and  O_19
REMARK    9  A    between atoms: O_19  and  C_20
REMARK   10  A    between atoms: C_30  and  C_33
REMARK                            x       y       z     vdW  Elec       q    Type
REMARK                         _______ _______ _______ _____ _____    ______ ____
ROOT
ATOM      1  C   UNL     1      -0.151   9.373  -2.723  0.00  0.00    +0.025 A 
ATOM      2  C   UNL     1       1.036  10.075  -2.811  0.00  0.00    +0.021 A 
ATOM      3  C   UNL     1       1.006  11.460  -2.771  0.00  0.00    +0.004 A 
ATOM      4  C   UNL     1      -0.221  12.090  -2.632  0.00  0.00    +0.027 A 
ATOM      5  C   UNL     1      -1.366  11.322  -2.545  0.00  0.00    +0.079 A 
ATOM      6  N   UNL     1      -1.300  10.005  -2.591  0.00  0.00    -0.255 NA
ENDROOT
BRANCH   1   7
ATOM      7  C   UNL     1      -0.131   7.867  -2.771  0.00  0.00    -0.026 C 
BRANCH   7   8
ATOM      8  N   UNL     1      -0.111   7.333  -1.402  0.00  0.00    +0.383 N 
ATOM      9  H   UNL     1      -1.009   7.685  -0.873  0.00  0.00    -0.085 HD
ATOM     10  H   UNL     1       0.787   7.709  -0.890  0.00  0.00    -0.085 HD
BRANCH   8  11
ATOM     11  C   UNL     1      -0.091   5.864  -1.410  0.00  0.00    -0.077 C 
BRANCH  11  12
ATOM     12  C   UNL     1      -0.070   5.347   0.030  0.00  0.00    +0.016 C 
BRANCH  12  18
ATOM     13  C   UNL     1      -2.514   0.980   0.019  0.00  0.00    +0.044 C 
ATOM     14  C   UNL     1      -1.219   1.751   0.017  0.00  0.00    -0.050 A 
ATOM     15  C   UNL     1      -0.013   1.076   0.008  0.00  0.00    +0.003 A 
ATOM     16  C   UNL     1       1.175   1.783   0.000  0.00  0.00    +0.001 A 
ATOM     17  C   UNL     1       1.156   3.166   0.008  0.00  0.00    +0.003 A 
ATOM     18  C   UNL     1      -0.050   3.840   0.022  0.00  0.00    -0.049 A 
ATOM     19  C   UNL     1      -1.238   3.133   0.030  0.00  0.00    +0.007 A 
ENDBRANCH  12  18
ENDBRANCH  11  12
ENDBRANCH   8  11
ENDBRANCH   7   8
ENDBRANCH   1   7
BRANCH   5  20
ATOM     20  C   UNL     1      -2.706  11.995  -2.394  0.00  0.00    +0.286 C 
BRANCH  20  21
ATOM     21  O   UNL     1      -2.526  13.413  -2.368  0.00  0.00    -0.469 OA
BRANCH  21  22
ATOM     22  C   UNL     1      -3.641  14.173  -2.236  0.00  0.00    +0.241 A 
ATOM     23  C   UNL     1      -3.527  15.635  -2.196  0.00  0.00    +0.049 A 
ATOM     24  C   UNL     1      -2.293  16.277  -2.301  0.00  0.00    +0.014 A 
ATOM     25  C   UNL     1      -2.237  17.653  -2.265  0.00  0.00    +0.001 A 
ATOM     26  C   UNL     1      -3.395  18.407  -2.129  0.00  0.00    +0.001 A 
ATOM     27  C   UNL     1      -4.625  17.795  -2.029  0.00  0.00    +0.012 A 
ATOM     28  C   UNL     1      -4.705  16.404  -2.064  0.00  0.00    +0.033 A 
ATOM     29  C   UNL     1      -5.985  15.696  -1.961  0.00  0.00    +0.186 A 
ATOM     30  N   UNL     1      -7.236  16.087  -1.827  0.00  0.00    -0.127 NA
ATOM     31  N   UNL     1      -8.005  15.056  -1.784  0.00  0.00    -0.123 NA
ATOM     32  C   UNL     1      -7.295  13.960  -1.887  0.00  0.00    +0.258 A 
ATOM     33  N   UNL     1      -5.991  14.326  -2.002  0.00  0.00    -0.185 N 
ATOM     34  N   UNL     1      -4.809  13.600  -2.140  0.00  0.00    -0.125 NA
BRANCH  32  35
ATOM     35  C   UNL     1      -7.828  12.551  -1.878  0.00  0.00    +0.454 C 
ATOM     36  F   UNL     1      -9.211  12.573  -2.086  0.00  0.00    -0.163 F 
ATOM     37  F   UNL     1      -7.215  11.815  -2.898  0.00  0.00    -0.163 F 
ATOM     38  F   UNL     1      -7.551  11.955  -0.643  0.00  0.00    -0.163 F 
ENDBRANCH  32  35
ENDBRANCH  21  22
ENDBRANCH  20  21
ENDBRANCH   5  20
TORSDOF 9
