REMARK  Name = ZINC39608505
REMARK  7 active torsions:
REMARK  status: ('A' for Active; 'I' for Inactive)
REMARK    1  A    between atoms: C_4  and  C_7
REMARK    2  A    between atoms: C_7  and  N_8
REMARK    3  A    between atoms: C_11  and  N_14
REMARK    4  A    between atoms: C_15  and  C_17
REMARK    5  A    between atoms: C_28  and  C_30
REMARK    6  A    between atoms: C_33  and  O_36
REMARK    7  A    between atoms: O_36  and  C_37
REMARK                            x       y       z     vdW  Elec       q    Type
REMARK                         _______ _______ _______ _____ _____    ______ ____
ROOT
ATOM      1  C   UNL     1       9.554  -2.873   4.502  0.00  0.00    +0.100 C 
ATOM      2  C   UNL     1       9.684  -4.055   3.515  0.00  0.00    +0.121 C 
ATOM      3  N   UNL     1      10.969  -3.819   2.815  0.00  0.00    -0.296 N 
ATOM      4  C   UNL     1      11.878  -3.318   3.873  0.00  0.00    +0.115 C 
ATOM      5  C   UNL     1      10.996  -2.395   4.738  0.00  0.00    -0.004 C 
ATOM      6  C   UNL     1      11.367  -2.538   6.211  0.00  0.00    -0.010 C 
ATOM      7  C   UNL     1      12.784  -2.001   6.430  0.00  0.00    -0.082 C 
ATOM      8  N   UNL     1      12.845  -0.592   6.024  0.00  0.00    +0.379 N 
ATOM      9  C   UNL     1      12.578  -0.473   4.586  0.00  0.00    -0.082 C 
ATOM     10  C   UNL     1      11.152  -0.945   4.288  0.00  0.00    -0.010 C 
ATOM     11  C   UNL     1      11.247  -4.015   1.511  0.00  0.00    +0.247 C 
ATOM     12  O   UNL     1      10.358  -4.313   0.738  0.00  0.00    -0.270 OA
ATOM     13  H   UNL     1      12.153  -0.066   6.538  0.00  0.00    -0.086 HD
ATOM     14  H   UNL     1      13.762  -0.224   6.227  0.00  0.00    -0.086 HD
ENDROOT
BRANCH  11  15
ATOM     15  C   UNL     1      12.632  -3.868   1.022  0.00  0.00    +0.037 A 
ATOM     16  C   UNL     1      13.704  -3.964   1.914  0.00  0.00    +0.016 A 
ATOM     17  C   UNL     1      14.994  -3.827   1.453  0.00  0.00    +0.047 A 
ATOM     18  C   UNL     1      15.232  -3.592   0.104  0.00  0.00    +0.130 A 
ATOM     19  C   UNL     1      14.168  -3.496  -0.786  0.00  0.00    +0.047 A 
ATOM     20  C   UNL     1      12.875  -3.638  -0.334  0.00  0.00    +0.016 A 
BRANCH  18  21
ATOM     21  O   UNL     1      16.505  -3.457  -0.345  0.00  0.00    -0.406 OA
BRANCH  21  22
ATOM     22  C   UNL     1      16.677  -3.217  -1.744  0.00  0.00    +0.575 C 
ATOM     23  F   UNL     1      16.026  -2.031  -2.097  0.00  0.00    -0.133 F 
ATOM     24  F   UNL     1      18.041  -3.104  -2.033  0.00  0.00    -0.133 F 
ATOM     25  F   UNL     1      16.134  -4.282  -2.470  0.00  0.00    -0.133 F 
ENDBRANCH  21  22
ENDBRANCH  18  21
ENDBRANCH  11  15
BRANCH   1  27
ATOM     26  N   UNL     1       8.088  -0.890   4.689  0.00  0.00    -0.314 N 
ATOM     27  C   UNL     1       8.728  -1.770   3.893  0.00  0.00    +0.218 C 
ATOM     28  O   UNL     1       8.638  -1.674   2.688  0.00  0.00    -0.275 OA
ATOM     29  H   UNL     1       8.160  -0.966   5.653  0.00  0.00    +0.149 HD
BRANCH  26  33
ATOM     30  N   UNL     1       6.220   2.200   4.933  0.00  0.00    +0.384 N 
ATOM     31  C   UNL     1       7.133   2.567   3.830  0.00  0.00    -0.077 C 
ATOM     32  C   UNL     1       8.169   1.417   3.776  0.00  0.00    +0.002 C 
ATOM     33  C   UNL     1       7.285   0.183   4.097  0.00  0.00    +0.055 C 
ATOM     34  C   UNL     1       6.272   0.739   5.120  0.00  0.00    -0.056 C 
ATOM     35  H   UNL     1       6.512   2.662   5.781  0.00  0.00    -0.081 HD
BRANCH  30  36
ATOM     36  C   UNL     1       4.849   2.607   4.595  0.00  0.00    -0.043 C 
BRANCH  36  40
ATOM     37  C   UNL     1       4.633   6.869   4.399  0.00  0.00    +0.000 A 
ATOM     38  C   UNL     1       4.944   6.139   3.266  0.00  0.00    +0.000 A 
ATOM     39  C   UNL     1       5.014   4.760   3.330  0.00  0.00    +0.002 A 
ATOM     40  C   UNL     1       4.774   4.111   4.526  0.00  0.00    -0.064 A 
ATOM     41  C   UNL     1       4.463   4.840   5.659  0.00  0.00    +0.002 A 
ATOM     42  C   UNL     1       4.392   6.219   5.595  0.00  0.00    +0.000 A 
ENDBRANCH  36  40
ENDBRANCH  30  36
ENDBRANCH  26  33
ENDBRANCH   1  27
TORSDOF 7
