REMARK  Name = ZINC09328596
REMARK  7 active torsions:
REMARK  status: ('A' for Active; 'I' for Inactive)
REMARK    1  A    between atoms: C_1  and  O_2
REMARK    2  A    between atoms: O_2  and  C_3
REMARK    3  A    between atoms: C_3  and  C_5
REMARK    4  A    between atoms: C_6  and  N_38
REMARK    5  A    between atoms: C_10  and  C_14
REMARK    6  A    between atoms: N_27  and  C_30
REMARK    7  A    between atoms: C_30  and  C_31
REMARK                            x       y       z     vdW  Elec       q    Type
REMARK                         _______ _______ _______ _____ _____    ______ ____
ROOT
ATOM      1  C   UNL     1      -0.440  -2.091  -1.732  0.00  0.00    +0.117 C 
ATOM      2  C   UNL     1       0.275  -2.660  -2.736  0.00  0.00    +0.198 C 
ATOM      3  O   UNL     1       0.806  -3.896  -2.666  0.00  0.00    -0.424 OA
ATOM      4  C   UNL     1       0.399  -4.708  -1.658  0.00  0.00    +0.224 A 
ATOM      5  C   UNL     1      -0.311  -4.250  -0.585  0.00  0.00    +0.066 A 
ATOM      6  C   UNL     1      -0.568  -5.334   0.259  0.00  0.00    +0.101 A 
ATOM      7  N   UNL     1      -0.030  -6.409  -0.287  0.00  0.00    -0.171 NA
ATOM      8  N   UNL     1       0.582  -6.034  -1.492  0.00  0.00    -0.246 N 
ATOM      9  H   UNL     1       1.053  -6.625  -2.100  0.00  0.00    +0.192 HD
ATOM     10  C   UNL     1      -0.695  -2.804  -0.432  0.00  0.00    +0.142 C 
ATOM     11  C   UNL     1       0.041  -2.157   0.697  0.00  0.00    -0.002 A 
ATOM     12  C   UNL     1       1.387  -1.954   0.916  0.00  0.00    +0.007 A 
ATOM     13  C   UNL     1       1.744  -1.306   2.093  0.00  0.00    +0.000 A 
ATOM     14  C   UNL     1       0.792  -0.885   2.999  0.00  0.00    +0.002 A 
ATOM     15  C   UNL     1      -0.563  -1.085   2.786  0.00  0.00    +0.024 A 
ATOM     16  C   UNL     1      -0.935  -1.734   1.608  0.00  0.00    +0.041 A 
ATOM     17  N   UNL     1      -2.198  -2.058   1.144  0.00  0.00    -0.265 N 
ATOM     18  C   UNL     1      -2.154  -2.688  -0.048  0.00  0.00    +0.240 C 
ATOM     19  O   UNL     1      -3.103  -3.085  -0.691  0.00  0.00    -0.274 OA
ENDROOT
BRANCH   6  20
ATOM     20  C   UNL     1      -1.312  -5.286   1.542  0.00  0.00    +0.003 A 
ATOM     21  C   UNL     1      -2.351  -6.183   1.782  0.00  0.00    +0.010 A 
ATOM     22  C   UNL     1      -3.040  -6.133   2.977  0.00  0.00    +0.001 A 
ATOM     23  C   UNL     1      -2.700  -5.195   3.935  0.00  0.00    +0.000 A 
ATOM     24  C   UNL     1      -1.670  -4.302   3.702  0.00  0.00    +0.001 A 
ATOM     25  C   UNL     1      -0.971  -4.347   2.513  0.00  0.00    +0.010 A 
ENDBRANCH   6  20
BRANCH   2  26
ATOM     26  N   UNL     1       0.466  -1.938  -3.883  0.00  0.00    -0.329 N 
ATOM     27  H   UNL     1       0.175  -1.014  -3.929  0.00  0.00    +0.145 HD
ATOM     28  H   UNL     1       0.892  -2.351  -4.651  0.00  0.00    +0.145 HD
ENDBRANCH   2  26
BRANCH   1  29
ATOM     29  C   UNL     1      -0.950  -0.797  -1.910  0.00  0.00    +0.341 C 
ATOM     30  O   UNL     1      -0.384   0.156  -1.405  0.00  0.00    -0.245 OA
BRANCH  29  32
ATOM     31  C   UNL     1      -2.534   0.737  -2.780  0.00  0.00    +0.280 C 
ATOM     32  O   UNL     1      -2.070  -0.607  -2.640  0.00  0.00    -0.465 OA
ENDBRANCH  29  32
ENDBRANCH   1  29
BRANCH  17  33
ATOM     33  C   UNL     1      -3.437  -1.753   1.864  0.00  0.00    +0.148 C 
BRANCH  33  34
ATOM     34  C   UNL     1      -3.940  -0.395   1.446  0.00  0.00    -0.030 A 
ATOM     35  C   UNL     1      -3.530   0.734   2.131  0.00  0.00    +0.008 A 
ATOM     36  C   UNL     1      -3.990   1.980   1.748  0.00  0.00    +0.038 A 
ATOM     37  C   UNL     1      -4.861   2.097   0.678  0.00  0.00    +0.123 A 
ATOM     38  C   UNL     1      -5.271   0.966  -0.007  0.00  0.00    +0.038 A 
ATOM     39  C   UNL     1      -4.805  -0.278   0.374  0.00  0.00    +0.008 A 
ATOM     40  F   UNL     1      -5.311   3.315   0.304  0.00  0.00    -0.205 F 
ENDBRANCH  33  34
ENDBRANCH  17  33
TORSDOF 6
