REMARK  Name = ZINC09666149
REMARK  6 active torsions:
REMARK  status: ('A' for Active; 'I' for Inactive)
REMARK    1  A    between atoms: C_1  and  C_2
REMARK    2  A    between atoms: C_2  and  S_3
REMARK    3  A    between atoms: S_3  and  N_6
REMARK    4  A    between atoms: C_13  and  C_15
REMARK    5  A    between atoms: C_15  and  C_17
REMARK    6  A    between atoms: C_17  and  N_18
REMARK                            x       y       z     vdW  Elec       q    Type
REMARK                         _______ _______ _______ _____ _____    ______ ____
ROOT
ATOM      1  C   UNL     1      -2.991  -0.634  -3.172  0.00  0.00    +0.197 C 
ENDROOT
BRANCH   1   2
ATOM      2  N   UNL     1      -1.950   0.218  -2.592  0.00  0.00    -0.216 N 
ATOM      3  C   UNL     1      -2.055   0.838  -1.399  0.00  0.00    +0.251 C 
ATOM      4  O   UNL     1      -2.992   0.797  -0.631  0.00  0.00    -0.272 OA
ATOM      5  C   UNL     1      -0.758   1.595  -1.220  0.00  0.00    +0.138 C 
ATOM      6  C   UNL     1      -0.013   1.086   0.008  0.00  0.00    +0.040 C 
ATOM      7  C   UNL     1      -0.739   1.585   1.264  0.00  0.00    +0.008 C 
ATOM      8  C   UNL     1      -0.561   3.098   1.357  0.00  0.00    +0.035 C 
ATOM      9  C   UNL     1      -0.942   3.763   0.060  0.00  0.00    -0.042 A 
ATOM     10  C   UNL     1      -1.026   3.070  -1.128  0.00  0.00    -0.012 A 
ATOM     11  C   UNL     1      -1.370   3.744  -2.293  0.00  0.00    +0.006 A 
ATOM     12  C   UNL     1      -1.632   5.098  -2.268  0.00  0.00    +0.000 A 
ATOM     13  C   UNL     1      -1.552   5.792  -1.075  0.00  0.00    +0.000 A 
ATOM     14  C   UNL     1      -1.209   5.125   0.083  0.00  0.00    +0.004 A 
ATOM     15  N   UNL     1       0.001   1.290  -2.441  0.00  0.00    -0.281 N 
ATOM     16  C   UNL     1      -0.777   0.479  -3.182  0.00  0.00    +0.310 C 
ATOM     17  O   UNL     1      -0.451   0.033  -4.264  0.00  0.00    -0.252 OA
ATOM     18  H   UNL     1       0.888   1.610  -2.668  0.00  0.00    +0.152 HD
ENDBRANCH   1   2
BRANCH   1  19
ATOM     19  C   UNL     1      -2.776  -2.059  -2.732  0.00  0.00    +0.181 C 
ATOM     20  O   UNL     1      -1.844  -2.336  -2.007  0.00  0.00    -0.290 OA
BRANCH  19  28
ATOM     21  N   UNL     1      -6.173  -6.236  -4.343  0.00  0.00    -0.207 N 
ATOM     22  C   UNL     1      -5.601  -7.418  -3.695  0.00  0.00    +0.136 C 
ATOM     23  C   UNL     1      -4.378  -6.902  -2.920  0.00  0.00    +0.058 C 
ATOM     24  C   UNL     1      -4.355  -5.415  -3.200  0.00  0.00    -0.023 A 
ATOM     25  C   UNL     1      -5.427  -5.108  -4.031  0.00  0.00    +0.054 A 
ATOM     26  C   UNL     1      -5.621  -3.780  -4.436  0.00  0.00    +0.026 A 
ATOM     27  C   UNL     1      -4.774  -2.798  -4.016  0.00  0.00    +0.013 A 
ATOM     28  C   UNL     1      -3.693  -3.112  -3.183  0.00  0.00    +0.019 A 
ATOM     29  C   UNL     1      -3.498  -4.439  -2.778  0.00  0.00    +0.017 A 
BRANCH  21  30
ATOM     30  S   UNL     1      -7.519  -6.244  -5.308  0.00  0.00    +0.045 S 
ATOM     31  O   UNL     1      -7.356  -5.123  -6.167  0.00  0.00    -0.155 OA
ATOM     32  O   UNL     1      -7.577  -7.561  -5.839  0.00  0.00    -0.155 OA
BRANCH  30  34
ATOM     33  C   UNL     1     -10.217  -5.952  -4.965  0.00  0.00    +0.030 C 
ATOM     34  C   UNL     1      -8.908  -5.965  -4.174  0.00  0.00    +0.185 C 
ENDBRANCH  30  34
ENDBRANCH  21  30
ENDBRANCH  19  28
ENDBRANCH   1  19
TORSDOF 5
