REMARK  Name = ZINC09542825
REMARK  8 active torsions:
REMARK  status: ('A' for Active; 'I' for Inactive)
REMARK    1  A    between atoms: C_1  and  C_2
REMARK    2  A    between atoms: C_2  and  C_3
REMARK    3  A    between atoms: C_6  and  C_9
REMARK    4  A    between atoms: C_11  and  C_24
REMARK    5  A    between atoms: C_13  and  C_16
REMARK    6  A    between atoms: C_21  and  O_22
REMARK    7  A    between atoms: C_29  and  O_30
REMARK    8  A    between atoms: O_30  and  C_31
REMARK                            x       y       z     vdW  Elec       q    Type
REMARK                         _______ _______ _______ _____ _____    ______ ____
ROOT
ATOM      1  C   UNL     1      -1.066   3.481  -1.054  0.00  0.00    +0.040 C 
ATOM      2  N   UNL     1      -0.989   4.085   0.072  0.00  0.00    -0.298 NA
ATOM      3  C   UNL     1      -0.600   3.443   1.321  0.00  0.00    +0.084 C 
ATOM      4  C   UNL     1      -0.018   1.503   0.010  0.00  0.00    -0.028 C 
ATOM      5  C   UNL     1      -0.771   2.016  -1.221  0.00  0.00    +0.044 C 
ATOM      6  N   UNL     1      -0.722   1.981   1.216  0.00  0.00    +0.401 N 
ATOM      7  H   UNL     1      -1.715   1.726   1.155  0.00  0.00    -0.081 HD
ATOM      8  H   UNL     1      -0.308   1.544   2.048  0.00  0.00    -0.081 HD
ENDROOT
BRANCH   4   9
ATOM      9  C   UNL     1       0.002  -0.004   0.002  0.00  0.00    -0.018 A 
ATOM     10  C   UNL     1      -0.959  -0.712   0.698  0.00  0.00    +0.025 A 
ATOM     11  C   UNL     1      -0.944  -2.096   0.686  0.00  0.00    +0.041 A 
ATOM     12  C   UNL     1       0.040  -2.773  -0.013  0.00  0.00    +0.023 A 
ATOM     13  C   UNL     1       1.005  -2.068  -0.706  0.00  0.00    +0.047 A 
ATOM     14  C   UNL     1       0.989  -0.681  -0.700  0.00  0.00    +0.119 A 
ATOM     15 CL   UNL     1      -2.156  -2.983   1.555  0.00  0.00    -0.084 Cl
BRANCH  14  16
ATOM     16  O   UNL     1       1.937   0.014  -1.381  0.00  0.00    -0.507 OA
ATOM     17  H   UNL     1       2.726   0.218  -0.860  0.00  0.00    +0.292 HD
ENDBRANCH  14  16
ENDBRANCH   4   9
BRANCH   3  18
ATOM     18  C   UNL     1      -1.492   3.934   2.431  0.00  0.00    +0.002 A 
ATOM     19  C   UNL     1      -1.866   3.077   3.448  0.00  0.00    +0.022 A 
ATOM     20  C   UNL     1      -2.680   3.529   4.471  0.00  0.00    +0.018 A 
ATOM     21  C   UNL     1      -3.132   4.837   4.471  0.00  0.00    +0.019 A 
ATOM     22  C   UNL     1      -2.765   5.695   3.453  0.00  0.00    +0.047 A 
ATOM     23  C   UNL     1      -1.944   5.245   2.430  0.00  0.00    +0.123 A 
ATOM     24 BR   UNL     1      -3.183   2.356   5.866  0.00  0.00    -0.050 Br
BRANCH  23  25
ATOM     25  O   UNL     1      -1.582   6.089   1.427  0.00  0.00    -0.495 OA
ATOM     26  C   UNL     1      -2.084   7.425   1.490  0.00  0.00    +0.277 C 
ENDBRANCH  23  25
ENDBRANCH   3  18
BRANCH   1  30
ATOM     27  C   UNL     1      -2.211   5.717  -4.476  0.00  0.00    -0.048 A 
ATOM     28  C   UNL     1      -2.118   6.342  -3.245  0.00  0.00    +0.004 A 
ATOM     29  C   UNL     1      -1.746   5.621  -2.129  0.00  0.00    +0.010 A 
ATOM     30  C   UNL     1      -1.464   4.259  -2.244  0.00  0.00    -0.004 A 
ATOM     31  C   UNL     1      -1.555   3.636  -3.490  0.00  0.00    +0.010 A 
ATOM     32  C   UNL     1      -1.933   4.367  -4.597  0.00  0.00    +0.004 A 
BRANCH  27  34
ATOM     33  C   UNL     1      -1.369   7.088  -6.363  0.00  0.00    +0.009 C 
ATOM     34  C   UNL     1      -2.617   6.511  -5.691  0.00  0.00    +0.032 C 
ENDBRANCH  27  34
ENDBRANCH   1  30
TORSDOF 6
