REMARK  Name = ZINC13751019
REMARK  9 active torsions:
REMARK  status: ('A' for Active; 'I' for Inactive)
REMARK    1  A    between atoms: C_1  and  O_2
REMARK    2  A    between atoms: O_2  and  C_3
REMARK    3  A    between atoms: C_3  and  C_5
REMARK    4  A    between atoms: C_6  and  N_15
REMARK    5  A    between atoms: N_16  and  N_17
REMARK    6  A    between atoms: C_20  and  C_23
REMARK    7  A    between atoms: C_23  and  C_24
REMARK    8  A    between atoms: C_23  and  C_30
REMARK    9  A    between atoms: C_23  and  O_36
REMARK                            x       y       z     vdW  Elec       q    Type
REMARK                         _______ _______ _______ _____ _____    ______ ____
ROOT
ATOM      1  N   UNL     1      -4.928  -0.853  -2.434  0.00  0.00    -0.237 N 
ATOM      2  C   UNL     1      -5.757  -1.812  -1.690  0.00  0.00    +0.128 C 
ATOM      3  C   UNL     1      -7.230  -1.428  -1.864  0.00  0.00    +0.027 C 
ATOM      4  C   UNL     1      -7.426   0.031  -1.445  0.00  0.00    +0.033 C 
ATOM      5  C   UNL     1      -6.582   0.939  -2.341  0.00  0.00    +0.027 C 
ATOM      6  C   UNL     1      -5.098   0.582  -2.169  0.00  0.00    +0.128 C 
ENDROOT
BRANCH   1   8
ATOM      7  N   UNL     1      -3.851  -2.563  -3.596  0.00  0.00    -0.131 NA
ATOM      8  N   UNL     1      -3.990  -1.300  -3.373  0.00  0.00    -0.078 NA
BRANCH   7  10
ATOM      9  C   UNL     1      -2.002  -2.225  -5.183  0.00  0.00    +0.153 A 
ATOM     10  C   UNL     1      -2.938  -2.998  -4.511  0.00  0.00    +0.127 A 
ATOM     11  C   UNL     1      -2.750  -4.378  -4.980  0.00  0.00    +0.028 A 
ATOM     12  C   UNL     1      -3.378  -5.589  -4.681  0.00  0.00    +0.012 A 
ATOM     13  C   UNL     1      -2.969  -6.737  -5.298  0.00  0.00    +0.001 A 
ATOM     14  C   UNL     1      -1.933  -6.709  -6.222  0.00  0.00    +0.002 A 
ATOM     15  C   UNL     1      -1.300  -5.527  -6.532  0.00  0.00    +0.026 A 
ATOM     16  C   UNL     1      -1.700  -4.343  -5.915  0.00  0.00    +0.049 A 
ATOM     17  N   UNL     1      -1.270  -3.041  -6.026  0.00  0.00    -0.347 N 
ATOM     18  H   UNL     1      -0.556  -2.740  -6.609  0.00  0.00    +0.166 HD
BRANCH   9  19
ATOM     19  C   UNL     1      -1.823  -0.782  -5.030  0.00  0.00    +0.358 C 
ATOM     20  O   UNL     1      -2.471  -0.174  -4.200  0.00  0.00    -0.243 OA
BRANCH  19  22
ATOM     21  C   UNL     1      -0.815   1.283  -5.605  0.00  0.00    +0.280 C 
ATOM     22  O   UNL     1      -0.938  -0.126  -5.809  0.00  0.00    -0.463 OA
ENDBRANCH  19  22
ENDBRANCH   9  19
ENDBRANCH   7  10
ENDBRANCH   1   8
BRANCH   4  23
ATOM     23  C   UNL     1      -8.903   0.407  -1.584  0.00  0.00    +0.119 C 
BRANCH  23  24
ATOM     24  C   UNL     1      -9.741  -0.532  -0.755  0.00  0.00    -0.011 A 
ATOM     25  C   UNL     1      -9.349  -0.856   0.530  0.00  0.00    +0.007 A 
ATOM     26  C   UNL     1     -10.117  -1.717   1.291  0.00  0.00    +0.000 A 
ATOM     27  C   UNL     1     -11.278  -2.253   0.767  0.00  0.00    +0.000 A 
ATOM     28  C   UNL     1     -11.671  -1.929  -0.518  0.00  0.00    +0.000 A 
ATOM     29  C   UNL     1     -10.905  -1.064  -1.277  0.00  0.00    +0.007 A 
ENDBRANCH  23  24
BRANCH  23  30
ATOM     30  C   UNL     1      -9.108   1.821  -1.104  0.00  0.00    -0.011 A 
ATOM     31  C   UNL     1      -8.639   2.204   0.138  0.00  0.00    +0.007 A 
ATOM     32  C   UNL     1      -8.828   3.501   0.578  0.00  0.00    +0.000 A 
ATOM     33  C   UNL     1      -9.485   4.414  -0.225  0.00  0.00    +0.000 A 
ATOM     34  C   UNL     1      -9.954   4.031  -1.468  0.00  0.00    +0.000 A 
ATOM     35  C   UNL     1      -9.761   2.736  -1.909  0.00  0.00    +0.007 A 
ENDBRANCH  23  30
BRANCH  23  36
ATOM     36  O   UNL     1      -9.292   0.308  -2.955  0.00  0.00    -0.379 OA
ATOM     37  H   UNL     1      -8.793   0.886  -3.549  0.00  0.00    +0.211 HD
ENDBRANCH  23  36
ENDBRANCH   4  23
TORSDOF 8
