REMARK  Name = ZINC34756433
REMARK  7 active torsions:
REMARK  status: ('A' for Active; 'I' for Inactive)
REMARK    1  A    between atoms: C_1  and  C_2
REMARK    2  A    between atoms: C_2  and  N_3
REMARK    3  A    between atoms: N_3  and  C_4
REMARK    4  A    between atoms: N_14  and  C_17
REMARK    5  A    between atoms: C_27  and  C_29
REMARK    6  A    between atoms: C_32  and  C_38
REMARK    7  A    between atoms: C_33  and  N_35
REMARK                            x       y       z     vdW  Elec       q    Type
REMARK                         _______ _______ _______ _____ _____    ______ ____
ROOT
ATOM      1  N   UNL     1      -1.171  -1.205   0.692  0.00  0.00    -0.318 N 
ATOM      2  C   UNL     1      -1.066   0.181   0.232  0.00  0.00    +0.130 C 
ATOM      3  C   UNL     1      -1.949  -1.511   1.797  0.00  0.00    +0.131 A 
ATOM      4  C   UNL     1      -3.279  -1.920   1.635  0.00  0.00    +0.029 A 
ATOM      5  C   UNL     1      -4.017  -2.220   2.753  0.00  0.00    +0.028 A 
ATOM      6  N   UNL     1      -3.447  -2.099   3.951  0.00  0.00    -0.331 N 
ATOM      7  C   UNL     1      -2.189  -1.709   4.077  0.00  0.00    +0.198 A 
ATOM      8  N   UNL     1      -1.442  -1.426   3.021  0.00  0.00    -0.201 NA
ATOM      9  N   UNL     1      -1.640  -1.600   5.342  0.00  0.00    -0.298 N 
ATOM     10  C   UNL     1      -2.397  -2.029   6.526  0.00  0.00    +0.127 C 
ATOM     11  C   UNL     1      -1.557  -3.051   7.302  0.00  0.00    +0.124 C 
ATOM     12  N   UNL     1      -0.205  -2.504   7.486  0.00  0.00    -0.327 N 
ATOM     13  C   UNL     1       0.552  -2.076   6.302  0.00  0.00    +0.124 C 
ATOM     14  C   UNL     1      -0.286  -1.059   5.526  0.00  0.00    +0.127 C 
ATOM     15  C   UNL     1      -5.442  -2.697   2.688  0.00  0.00    +0.072 C 
ATOM     16  C   UNL     1      -6.077  -2.327   1.348  0.00  0.00    +0.114 C 
ATOM     17  N   UNL     1      -5.136  -2.702   0.279  0.00  0.00    -0.293 N 
ATOM     18  C   UNL     1      -3.844  -2.005   0.243  0.00  0.00    +0.148 C 
ATOM     19  C   UNL     1      -5.447  -3.647  -0.629  0.00  0.00    +0.247 C 
ATOM     20  O   UNL     1      -6.553  -4.153  -0.625  0.00  0.00    -0.270 OA
ATOM     21  H   UNL     1      -3.964  -2.301   4.747  0.00  0.00    +0.168 HD
ENDROOT
BRANCH  19  22
ATOM     22  C   UNL     1      -4.445  -4.069  -1.631  0.00  0.00    +0.039 A 
ATOM     23  C   UNL     1      -4.344  -5.412  -1.999  0.00  0.00    +0.013 A 
ATOM     24  C   UNL     1      -3.408  -5.798  -2.935  0.00  0.00    +0.006 A 
ATOM     25  C   UNL     1      -2.568  -4.859  -3.508  0.00  0.00    -0.020 A 
ATOM     26  C   UNL     1      -2.663  -3.527  -3.147  0.00  0.00    +0.130 A 
ATOM     27  C   UNL     1      -3.600  -3.126  -2.217  0.00  0.00    +0.046 A 
ATOM     28  C   UNL     1      -1.547  -5.289  -4.529  0.00  0.00    +0.046 C 
BRANCH  26  29
ATOM     29  N   UNL     1      -1.761  -2.529  -3.764  0.00  0.00    +0.057 N 
ATOM     30  O   UNL     1      -1.334  -1.610  -3.104  0.00  0.00    -0.126 OA
ATOM     31  O   UNL     1      -1.451  -2.632  -4.928  0.00  0.00    -0.126 OA
ENDBRANCH  26  29
ENDBRANCH  19  22
BRANCH  12  32
ATOM     32  C   UNL     1       0.349  -2.394   8.763  0.00  0.00    +0.030 A 
ATOM     33  C   UNL     1      -0.413  -2.704   9.882  0.00  0.00    +0.023 A 
ATOM     34  C   UNL     1       0.139  -2.595  11.143  0.00  0.00    +0.002 A 
ATOM     35  C   UNL     1       1.448  -2.177  11.293  0.00  0.00    +0.000 A 
ATOM     36  C   UNL     1       2.210  -1.867  10.181  0.00  0.00    +0.002 A 
ATOM     37  C   UNL     1       1.666  -1.980   8.917  0.00  0.00    +0.023 A 
ENDBRANCH  12  32
BRANCH   1  39
ATOM     38  C   UNL     1       0.939  -2.439   0.598  0.00  0.00    +0.024 C 
ATOM     39  C   UNL     1      -0.453  -2.268  -0.015  0.00  0.00    +0.103 C 
ENDBRANCH   1  39
TORSDOF 4
