REMARK  Name = ZINC39912400
REMARK  15 active torsions:
REMARK  status: ('A' for Active; 'I' for Inactive)
REMARK    1  A    between atoms: C_1  and  C_2
REMARK    2  A    between atoms: C_2  and  C_3
REMARK    3  A    between atoms: C_3  and  O_4
REMARK    4  A    between atoms: O_4  and  C_5
REMARK    5  A    between atoms: C_8  and  C_14
REMARK    6  A    between atoms: C_10  and  O_11
REMARK    7  A    between atoms: O_11  and  C_12
REMARK    8  A    between atoms: C_12  and  C_13
REMARK    9  A    between atoms: C_17  and  C_33
REMARK   10  A    between atoms: N_24  and  C_25
REMARK   11  A    between atoms: C_25  and  C_26
REMARK   12  A    between atoms: C_29  and  C_32
REMARK   13  A    between atoms: C_35  and  C_41
REMARK   14  A    between atoms: C_37  and  C_40
REMARK   15  A    between atoms: C_38  and  O_39
REMARK                            x       y       z     vdW  Elec       q    Type
REMARK                         _______ _______ _______ _____ _____    ______ ____
ROOT
ATOM      1  C   UNL     1      -6.201  -4.221   0.503  0.00  0.00    +0.142 C 
ATOM      2  C   UNL     1      -7.114  -4.444  -0.671  0.00  0.00    +0.035 A 
ATOM      3  C   UNL     1      -7.288  -5.010  -1.939  0.00  0.00    +0.102 A 
ATOM      4  N   UNL     1      -8.511  -4.719  -2.336  0.00  0.00    -0.173 NA
ATOM      5  N   UNL     1      -9.127  -4.026  -1.444  0.00  0.00    -0.272 N 
ATOM      6  H   UNL     1     -10.037  -3.701  -1.522  0.00  0.00    +0.189 HD
ATOM      7  C   UNL     1      -8.308  -3.817  -0.372  0.00  0.00    +0.126 A 
ATOM      8  C   UNL     1      -8.190  -3.200   0.954  0.00  0.00    +0.266 C 
ATOM      9  O   UNL     1      -9.071  -2.570   1.508  0.00  0.00    -0.268 OA
ATOM     10  N   UNL     1      -6.969  -3.429   1.473  0.00  0.00    -0.281 N 
ENDROOT
BRANCH   3  11
ATOM     11  C   UNL     1      -6.281  -5.792  -2.698  0.00  0.00    +0.044 A 
ATOM     12  C   UNL     1      -5.065  -6.127  -2.107  0.00  0.00    +0.017 A 
ATOM     13  C   UNL     1      -4.132  -6.854  -2.817  0.00  0.00    -0.049 A 
ATOM     14  C   UNL     1      -4.399  -7.254  -4.115  0.00  0.00    +0.010 A 
ATOM     15  C   UNL     1      -5.603  -6.927  -4.710  0.00  0.00    -0.008 A 
ATOM     16  C   UNL     1      -6.551  -6.202  -4.007  0.00  0.00    +0.129 A 
ATOM     17  C   UNL     1      -5.887  -7.365  -6.124  0.00  0.00    +0.047 C 
ATOM     18  C   UNL     1      -2.816  -7.215  -2.177  0.00  0.00    +0.044 C 
BRANCH  16  19
ATOM     19  O   UNL     1      -7.737  -5.885  -4.589  0.00  0.00    -0.506 OA
ATOM     20  H   UNL     1      -7.730  -5.043  -5.065  0.00  0.00    +0.292 HD
ENDBRANCH  16  19
ENDBRANCH   3  11
BRANCH   1  24
ATOM     21  C   UNL     1      -2.715  -2.071  -0.727  0.00  0.00    +0.162 A 
ATOM     22  C   UNL     1      -2.597  -3.353  -0.215  0.00  0.00    +0.050 A 
ATOM     23  C   UNL     1      -3.725  -4.046   0.182  0.00  0.00    +0.009 A 
ATOM     24  C   UNL     1      -4.974  -3.462   0.069  0.00  0.00    -0.019 A 
ATOM     25  C   UNL     1      -5.098  -2.183  -0.441  0.00  0.00    +0.055 A 
ATOM     26  C   UNL     1      -3.971  -1.482  -0.836  0.00  0.00    +0.162 A 
BRANCH  21  27
ATOM     27  O   UNL     1      -1.605  -1.388  -1.118  0.00  0.00    -0.488 OA
BRANCH  27  28
ATOM     28  C   UNL     1      -0.350  -2.056  -0.978  0.00  0.00    +0.229 C 
BRANCH  28  30
ATOM     29  C   UNL     1       2.117  -1.853  -1.315  0.00  0.00    +0.007 C 
ATOM     30  C   UNL     1       0.773  -1.138  -1.465  0.00  0.00    +0.038 C 
ENDBRANCH  28  30
ENDBRANCH  27  28
ENDBRANCH  21  27
BRANCH  26  31
ATOM     31  O   UNL     1      -4.091  -0.221  -1.332  0.00  0.00    -0.489 OA
BRANCH  31  32
ATOM     32  C   UNL     1      -5.407   0.334  -1.381  0.00  0.00    +0.226 C 
ATOM     33  C   UNL     1      -5.341   1.753  -1.948  0.00  0.00    +0.048 C 
ENDBRANCH  31  32
ENDBRANCH  26  31
ENDBRANCH   1  24
BRANCH  10  34
ATOM     34  C   UNL     1      -6.488  -2.969   2.778  0.00  0.00    +0.144 C 
BRANCH  34  35
ATOM     35  C   UNL     1      -5.845  -1.615   2.627  0.00  0.00    -0.030 A 
ATOM     36  C   UNL     1      -4.494  -1.519   2.348  0.00  0.00    +0.005 A 
ATOM     37  C   UNL     1      -3.904  -0.276   2.210  0.00  0.00    +0.003 A 
ATOM     38  C   UNL     1      -4.664   0.870   2.350  0.00  0.00    -0.050 A 
ATOM     39  C   UNL     1      -6.015   0.773   2.628  0.00  0.00    +0.003 A 
ATOM     40  C   UNL     1      -6.606  -0.469   2.762  0.00  0.00    +0.005 A 
ATOM     41  C   UNL     1      -4.020   2.224   2.200  0.00  0.00    +0.044 C 
ENDBRANCH  34  35
ENDBRANCH  10  34
TORSDOF 10
