REMARK  Name = ZINC33413295
REMARK  16 active torsions:
REMARK  status: ('A' for Active; 'I' for Inactive)
REMARK    1  A    between atoms: C_1  and  C_2
REMARK    2  A    between atoms: C_2  and  C_3
REMARK    3  A    between atoms: C_3  and  C_5
REMARK    4  A    between atoms: C_3  and  C_11
REMARK    5  A    between atoms: C_11  and  O_13
REMARK    6  A    between atoms: O_13  and  C_14
REMARK    7  A    between atoms: C_19  and  C_20
REMARK    8  A    between atoms: C_21  and  N_29
REMARK    9  A    between atoms: N_29  and  C_30
REMARK   10  A    between atoms: C_30  and  C_31
REMARK   11  A    between atoms: C_30  and  C_32
REMARK   12  A    between atoms: C_30  and  C_33
REMARK   13  A    between atoms: C_33  and  C_34
REMARK   14  A    between atoms: C_34  and  C_35
REMARK   15  A    between atoms: C_34  and  C_36
REMARK   16  A    between atoms: C_34  and  C_37
REMARK                            x       y       z     vdW  Elec       q    Type
REMARK                         _______ _______ _______ _____ _____    ______ ____
ROOT
ATOM      1  C   UNL     1      -1.730  -1.918  -1.389  0.00  0.00    +0.090 A 
ATOM      2  C   UNL     1      -1.373  -0.677  -0.906  0.00  0.00    +0.129 A 
ATOM      3  N   UNL     1      -2.285  -0.348   0.057  0.00  0.00    -0.289 N 
ATOM      4  C   UNL     1      -2.427   0.755   0.855  0.00  0.00    +0.094 A 
ATOM      5  C   UNL     1      -3.441   0.837   1.739  0.00  0.00    +0.018 A 
ATOM      6  C   UNL     1      -4.374  -0.210   1.850  0.00  0.00    +0.005 A 
ATOM      7  C   UNL     1      -4.251  -1.311   1.061  0.00  0.00    +0.045 A 
ATOM      8  C   UNL     1      -3.186  -1.386   0.139  0.00  0.00    +0.117 A 
ATOM      9  N   UNL     1      -2.835  -2.318  -0.732  0.00  0.00    -0.338 N 
ATOM     10  H   UNL     1      -3.291  -3.291  -0.966  0.00  0.00    +0.167 HD
ENDROOT
BRANCH   1  16
ATOM     11  C   UNL     1      -1.405  -3.991  -2.743  0.00  0.00    +0.141 A 
ATOM     12  C   UNL     1      -0.739  -4.694  -3.733  0.00  0.00    +0.047 A 
ATOM     13  C   UNL     1       0.300  -4.099  -4.424  0.00  0.00    +0.004 A 
ATOM     14  C   UNL     1       0.681  -2.801  -4.133  0.00  0.00    +0.001 A 
ATOM     15  C   UNL     1       0.022  -2.087  -3.154  0.00  0.00    +0.014 A 
ATOM     16  C   UNL     1      -1.023  -2.678  -2.446  0.00  0.00    +0.044 A 
BRANCH  11  17
ATOM     17  O   UNL     1      -2.427  -4.574  -2.062  0.00  0.00    -0.425 OA
BRANCH  17  18
ATOM     18  C   UNL     1      -2.157  -5.025  -0.827  0.00  0.00    +0.320 C 
ATOM     19  O   UNL     1      -1.071  -4.826  -0.335  0.00  0.00    -0.250 OA
BRANCH  18  20
ATOM     20  C   UNL     1      -3.207  -5.780  -0.054  0.00  0.00    +0.128 C 
BRANCH  20  21
ATOM     21  C   UNL     1      -2.655  -6.172   1.293  0.00  0.00    -0.034 A 
ATOM     22  C   UNL     1      -1.540  -6.985   1.373  0.00  0.00    +0.004 A 
ATOM     23  C   UNL     1      -1.032  -7.341   2.608  0.00  0.00    +0.000 A 
ATOM     24  C   UNL     1      -1.644  -6.892   3.763  0.00  0.00    +0.000 A 
ATOM     25  C   UNL     1      -2.762  -6.083   3.683  0.00  0.00    +0.000 A 
ATOM     26  C   UNL     1      -3.268  -5.723   2.448  0.00  0.00    +0.004 A 
ENDBRANCH  20  21
BRANCH  20  28
ATOM     27  C   UNL     1      -4.758  -7.739  -0.106  0.00  0.00    +0.005 C 
ATOM     28  C   UNL     1      -3.605  -7.038  -0.828  0.00  0.00    +0.016 C 
ENDBRANCH  20  28
ENDBRANCH  18  20
ENDBRANCH  17  18
ENDBRANCH  11  17
ENDBRANCH   1  16
BRANCH   2  29
ATOM     29  N   UNL     1      -0.284   0.094  -1.318  0.00  0.00    -0.323 N 
ATOM     30  H   UNL     1       0.523  -0.167  -2.018  0.00  0.00    +0.148 HD
BRANCH  29  31
ATOM     31  C   UNL     1      -0.303   1.416  -0.679  0.00  0.00    +0.028 C 
ATOM     32  C   UNL     1      -0.072   1.259   0.825  0.00  0.00    +0.031 C 
ATOM     33  C   UNL     1      -1.661   2.079  -0.919  0.00  0.00    +0.031 C 
BRANCH  31  34
ATOM     34  C   UNL     1       0.802   2.288  -1.277  0.00  0.00    +0.031 C 
BRANCH  34  35
ATOM     35  C   UNL     1       2.126   1.521  -1.253  0.00  0.00    -0.036 C 
ATOM     36  C   UNL     1       1.913   0.118  -1.825  0.00  0.00    +0.010 C 
ATOM     37  C   UNL     1       3.162   2.264  -2.098  0.00  0.00    +0.010 C 
ATOM     38  C   UNL     1       2.626   1.412   0.189  0.00  0.00    +0.010 C 
ENDBRANCH  34  35
ENDBRANCH  31  34
ENDBRANCH  29  31
ENDBRANCH   2  29
TORSDOF 10
