REMARK  Name = ZINC11101113
REMARK  13 active torsions:
REMARK  status: ('A' for Active; 'I' for Inactive)
REMARK    1  A    between atoms: C_1  and  C_2
REMARK    2  A    between atoms: C_3  and  N_15
REMARK    3  A    between atoms: N_6  and  C_9
REMARK    4  A    between atoms: N_7  and  C_8
REMARK    5  A    between atoms: C_16  and  C_18
REMARK    6  A    between atoms: C_18  and  C_20
REMARK    7  A    between atoms: C_18  and  N_75
REMARK    8  A    between atoms: C_21  and  C_23
REMARK    9  A    between atoms: C_21  and  C_35
REMARK   10  A    between atoms: C_21  and  N_75
REMARK   11  A    between atoms: C_26  and  C_29
REMARK   12  A    between atoms: C_35  and  C_36
REMARK   13  A    between atoms: C_35  and  C_37
REMARK                            x       y       z     vdW  Elec       q    Type
REMARK                         _______ _______ _______ _____ _____    ______ ____
ROOT
ATOM      1  C   UNL     1       0.384   4.243   3.850  0.00  0.00    +0.014 C 
ATOM      2  C   UNL     1       1.168   5.540   4.059  0.00  0.00    -0.004 C 
ENDROOT
BRANCH   1   4
ATOM      3  N   UNL     1       0.097   3.818   6.270  0.00  0.00    -0.281 N 
ATOM      4  C   UNL     1      -0.474   3.974   5.060  0.00  0.00    +0.203 C 
ATOM      5  O   UNL     1      -1.680   3.898   4.943  0.00  0.00    -0.277 OA
ATOM      6  H   UNL     1       1.063   3.805   6.353  0.00  0.00    +0.155 HD
BRANCH   3   9
ATOM      7  C   UNL     1       0.213   1.435   8.200  0.00  0.00    +0.067 C 
ATOM      8  C   UNL     1      -0.688   2.640   8.288  0.00  0.00    +0.059 A 
ATOM      9  C   UNL     1      -0.710   3.674   7.417  0.00  0.00    +0.121 A 
ATOM     10  C   UNL     1      -1.724   4.617   7.889  0.00  0.00    +0.293 A 
ATOM     11  O   UNL     1      -2.030   5.674   7.367  0.00  0.00    -0.264 OA
ATOM     12  N   UNL     1      -2.258   4.091   9.011  0.00  0.00    -0.216 N 
ATOM     13  N   UNL     1      -1.619   2.872   9.265  0.00  0.00    -0.282 N 
ATOM     14  C   UNL     1      -1.903   1.985  10.396  0.00  0.00    +0.171 C 
BRANCH  12  15
ATOM     15  C   UNL     1      -3.268   4.667   9.787  0.00  0.00    +0.067 A 
ATOM     16  C   UNL     1      -4.358   3.905  10.188  0.00  0.00    +0.028 A 
ATOM     17  C   UNL     1      -5.351   4.476  10.960  0.00  0.00    +0.002 A 
ATOM     18  C   UNL     1      -5.267   5.807  11.324  0.00  0.00    +0.000 A 
ATOM     19  C   UNL     1      -4.186   6.570  10.923  0.00  0.00    +0.002 A 
ATOM     20  C   UNL     1      -3.186   6.004  10.156  0.00  0.00    +0.028 A 
ENDBRANCH  12  15
ENDBRANCH   3   9
ENDBRANCH   1   4
BRANCH   1  21
ATOM     21  N   UNL     1      -0.480   4.376   2.663  0.00  0.00    +0.391 N 
ATOM     22  H   UNL     1      -0.822   5.342   2.599  0.00  0.00    -0.084 HD
ATOM     23  H   UNL     1      -1.278   3.736   2.751  0.00  0.00    -0.084 HD
BRANCH  21  24
ATOM     24  C   UNL     1       0.275   4.045   1.440  0.00  0.00    -0.037 C 
BRANCH  24  25
ATOM     25  C   UNL     1      -0.359   4.741   0.263  0.00  0.00    -0.061 A 
ATOM     26  C   UNL     1      -1.736   4.812   0.163  0.00  0.00    +0.002 A 
ATOM     27  C   UNL     1      -2.318   5.455  -0.914  0.00  0.00    +0.004 A 
ATOM     28  C   UNL     1      -1.524   6.016  -1.896  0.00  0.00    -0.044 A 
ATOM     29  C   UNL     1      -0.147   5.941  -1.798  0.00  0.00    +0.004 A 
ATOM     30  C   UNL     1       0.435   5.303  -0.719  0.00  0.00    +0.002 A 
BRANCH  28  31
ATOM     31  C   UNL     1      -2.158   6.711  -3.073  0.00  0.00    +0.019 C 
ATOM     32  C   UNL     1      -3.013   7.879  -2.575  0.00  0.00    +0.008 C 
ATOM     33  C   UNL     1      -3.657   8.585  -3.770  0.00  0.00    +0.001 C 
ATOM     34  C   UNL     1      -4.540   7.595  -4.532  0.00  0.00    +0.000 C 
ATOM     35  C   UNL     1      -3.686   6.427  -5.029  0.00  0.00    +0.001 C 
ATOM     36  C   UNL     1      -3.042   5.721  -3.834  0.00  0.00    +0.008 C 
ENDBRANCH  28  31
ENDBRANCH  24  25
BRANCH  24  37
ATOM     37  C   UNL     1       0.246   2.532   1.214  0.00  0.00    -0.027 C 
ATOM     38  C   UNL     1       1.125   2.179   0.013  0.00  0.00    +0.006 C 
ATOM     39  C   UNL     1      -1.192   2.085   0.944  0.00  0.00    +0.006 C 
ENDBRANCH  24  37
ENDBRANCH  21  24
ENDBRANCH   1  21
TORSDOF 8
