REMARK  Name = ZINC33763485
REMARK  9 active torsions:
REMARK  status: ('A' for Active; 'I' for Inactive)
REMARK    1  A    between atoms: C_1  and  C_2
REMARK    2  A    between atoms: C_2  and  O_3
REMARK    3  A    between atoms: O_3  and  C_4
REMARK    4  A    between atoms: C_6  and  C_11
REMARK    5  A    between atoms: C_9  and  O_10
REMARK    6  A    between atoms: C_13  and  C_14
REMARK    7  A    between atoms: C_14  and  C_15
REMARK    8  A    between atoms: C_30  and  C_37
REMARK    9  A    between atoms: C_32  and  C_36
REMARK                            x       y       z     vdW  Elec       q    Type
REMARK                         _______ _______ _______ _____ _____    ______ ____
ROOT
ATOM      1  C   UNL     1       3.784   1.114   0.755  0.00  0.00    +0.152 C 
ATOM      2  C   UNL     1       2.402   0.830   0.213  0.00  0.00    +0.077 C 
ATOM      3  C   UNL     1       2.309  -0.570   0.097  0.00  0.00    +0.250 C 
ATOM      4  O   UNL     1       1.342  -1.191  -0.304  0.00  0.00    -0.282 OA
ATOM      5  C   UNL     1       3.599  -1.158   0.550  0.00  0.00    +0.293 C 
ATOM      6  O   UNL     1       3.852  -2.345   0.574  0.00  0.00    -0.266 OA
ATOM      7  N   UNL     1       4.444  -0.183   0.925  0.00  0.00    -0.232 N 
ATOM      8  C   UNL     1       5.729  -0.374   1.401  0.00  0.00    +0.169 A 
ATOM      9  N   UNL     1       6.383  -1.499   1.579  0.00  0.00    -0.224 NA
ATOM     10  C   UNL     1       7.646  -1.537   2.055  0.00  0.00    +0.083 A 
ATOM     11  C   UNL     1       8.456  -2.671   2.292  0.00  0.00    -0.024 A 
ATOM     12  C   UNL     1       9.728  -2.533   2.782  0.00  0.00    +0.009 A 
ATOM     13  C   UNL     1      10.266  -1.285   3.063  0.00  0.00    -0.049 A 
ATOM     14  C   UNL     1       9.501  -0.154   2.844  0.00  0.00    +0.020 A 
ATOM     15  C   UNL     1       8.226  -0.282   2.353  0.00  0.00    +0.041 A 
ATOM     16  S   UNL     1       6.925   0.848   1.922  0.00  0.00    -0.052 S 
ATOM     17  C   UNL     1      11.668  -1.163   3.601  0.00  0.00    +0.044 C 
ATOM     18  C   UNL     1       7.915  -4.047   2.001  0.00  0.00    +0.046 C 
ENDROOT
BRANCH   1  21
ATOM     19  C   UNL     1       3.169   1.771   4.424  0.00  0.00    +0.162 A 
ATOM     20  C   UNL     1       3.263   1.124   3.202  0.00  0.00    +0.055 A 
ATOM     21  C   UNL     1       3.682   1.819   2.083  0.00  0.00    -0.018 A 
ATOM     22  C   UNL     1       4.013   3.158   2.181  0.00  0.00    +0.009 A 
ATOM     23  C   UNL     1       3.917   3.810   3.396  0.00  0.00    +0.049 A 
ATOM     24  C   UNL     1       3.497   3.119   4.522  0.00  0.00    +0.158 A 
BRANCH  24  25
ATOM     25  O   UNL     1       3.406   3.758   5.719  0.00  0.00    -0.503 OA
ATOM     26  H   UNL     1       3.667   4.825   5.794  0.00  0.00    +0.292 HD
ENDBRANCH  24  25
BRANCH  19  27
ATOM     27  O   UNL     1       2.757   1.089   5.526  0.00  0.00    -0.489 OA
BRANCH  27  29
ATOM     28  C   UNL     1       1.793  -0.821   6.651  0.00  0.00    +0.048 C 
ATOM     29  C   UNL     1       2.325  -0.259   5.331  0.00  0.00    +0.226 C 
ENDBRANCH  27  29
ENDBRANCH  19  27
ENDBRANCH   1  21
BRANCH   2  30
ATOM     30  C   UNL     1       1.431   1.753  -0.104  0.00  0.00    +0.195 C 
ATOM     31  O   UNL     1       0.202   1.338  -0.479  0.00  0.00    -0.287 OA
BRANCH  30  32
ATOM     32  C   UNL     1       1.733   3.196  -0.033  0.00  0.00    +0.025 A 
ATOM     33  C   UNL     1       0.868   4.082   0.623  0.00  0.00    +0.031 A 
ATOM     34  C   UNL     1       1.193   5.423   0.669  0.00  0.00    +0.111 A 
ATOM     35  N   UNL     1       2.293   5.873   0.099  0.00  0.00    -0.263 NA
ATOM     36  C   UNL     1       3.132   5.076  -0.532  0.00  0.00    +0.111 A 
ATOM     37  C   UNL     1       2.890   3.720  -0.624  0.00  0.00    +0.031 A 
ENDBRANCH  30  32
ENDBRANCH   2  30
TORSDOF 6
