REMARK  Name = ZINC02232784
REMARK  8 active torsions:
REMARK  status: ('A' for Active; 'I' for Inactive)
REMARK    1  A    between atoms: C_1  and  C_2
REMARK    2  A    between atoms: C_5  and  C_8
REMARK    3  A    between atoms: C_11  and  S_19
REMARK    4  A    between atoms: N_12  and  C_13
REMARK    5  A    between atoms: S_19  and  C_20
REMARK    6  A    between atoms: C_20  and  C_21
REMARK    7  A    between atoms: N_23  and  N_24
REMARK    8  A    between atoms: C_25  and  C_26
REMARK                            x       y       z     vdW  Elec       q    Type
REMARK                         _______ _______ _______ _____ _____    ______ ____
ROOT
ATOM      1  C   UNL     1      -2.003  -1.224  -0.981  0.00  0.00    +0.165 A 
ATOM      2  N   UNL     1      -3.281  -1.115  -0.701  0.00  0.00    -0.128 NA
ATOM      3  N   UNL     1      -3.432  -0.735   0.518  0.00  0.00    -0.122 NA
ATOM      4  C   UNL     1      -2.259  -0.584   1.092  0.00  0.00    +0.193 A 
ATOM      5  N   UNL     1      -1.310  -0.892   0.160  0.00  0.00    -0.299 N 
ENDROOT
BRANCH   1  10
ATOM      6  C   UNL     1       0.269  -2.801  -6.028  0.00  0.00    +0.044 C 
ATOM      7  C   UNL     1      -0.326  -2.388  -4.706  0.00  0.00    -0.050 A 
ATOM      8  C   UNL     1      -1.550  -2.898  -4.312  0.00  0.00    +0.004 A 
ATOM      9  C   UNL     1      -2.100  -2.524  -3.104  0.00  0.00    +0.012 A 
ATOM     10  C   UNL     1      -1.419  -1.629  -2.278  0.00  0.00    +0.019 A 
ATOM     11  C   UNL     1      -0.188  -1.113  -2.684  0.00  0.00    +0.012 A 
ATOM     12  C   UNL     1       0.354  -1.499  -3.893  0.00  0.00    +0.004 A 
ENDBRANCH   1  10
BRANCH   5  13
ATOM     13  C   UNL     1       0.144  -0.870   0.337  0.00  0.00    +0.091 C 
ATOM     14  C   UNL     1       0.606   0.568   0.582  0.00  0.00    +0.025 C 
ATOM     15  C   UNL     1       2.125   0.592   0.766  0.00  0.00    +0.002 C 
ATOM     16  C   UNL     1       2.506  -0.277   1.966  0.00  0.00    +0.000 C 
ATOM     17  C   UNL     1       2.045  -1.715   1.721  0.00  0.00    +0.002 C 
ATOM     18  C   UNL     1       0.526  -1.739   1.536  0.00  0.00    +0.025 C 
ENDBRANCH   5  13
BRANCH   4  19
ATOM     19  S   UNL     1      -1.967  -0.077   2.754  0.00  0.00    -0.077 S 
BRANCH  19  20
ATOM     20  C   UNL     1      -3.672   0.136   3.322  0.00  0.00    +0.174 C 
BRANCH  20  21
ATOM     21  C   UNL     1      -3.670   0.581   4.762  0.00  0.00    +0.242 C 
ATOM     22  O   UNL     1      -2.618   0.738   5.346  0.00  0.00    -0.273 OA
ATOM     23  N   UNL     1      -4.835   0.804   5.400  0.00  0.00    -0.206 N 
ATOM     24  H   UNL     1      -5.676   0.678   4.933  0.00  0.00    +0.177 HD
BRANCH  23  25
ATOM     25  N   UNL     1      -4.833   1.217   6.739  0.00  0.00    -0.188 NA
ATOM     26  C   UNL     1      -5.956   1.431   7.353  0.00  0.00    +0.138 C 
BRANCH  26  27
ATOM     27  C   UNL     1      -5.954   1.867   8.762  0.00  0.00    -0.005 A 
ATOM     28  C   UNL     1      -4.745   2.043   9.440  0.00  0.00    +0.011 A 
ATOM     29  C   UNL     1      -4.750   2.454  10.757  0.00  0.00    +0.020 A 
ATOM     30  C   UNL     1      -5.949   2.683  11.409  0.00  0.00    +0.041 A 
ATOM     31  C   UNL     1      -7.151   2.505  10.745  0.00  0.00    +0.020 A 
ATOM     32  C   UNL     1      -7.160   2.098   9.427  0.00  0.00    +0.011 A 
ATOM     33 CL   UNL     1      -5.947   3.195  13.068  0.00  0.00    -0.084 Cl
ENDBRANCH  26  27
ENDBRANCH  23  25
ENDBRANCH  20  21
ENDBRANCH  19  20
ENDBRANCH   4  19
TORSDOF 7
