REMARK  Name = ZINC64958228
REMARK  8 active torsions:
REMARK  status: ('A' for Active; 'I' for Inactive)
REMARK    1  A    between atoms: C_1  and  C_2
REMARK    2  A    between atoms: C_5  and  N_9
REMARK    3  A    between atoms: C_10  and  C_12
REMARK    4  A    between atoms: N_17  and  S_19
REMARK    5  A    between atoms: S_19  and  C_22
REMARK    6  A    between atoms: N_24  and  C_27
REMARK    7  A    between atoms: C_27  and  C_28
REMARK    8  A    between atoms: C_27  and  C_29
REMARK                            x       y       z     vdW  Elec       q    Type
REMARK                         _______ _______ _______ _____ _____    ______ ____
ROOT
ATOM      1  C   UNL     1      -0.136  -6.343  -1.190  0.00  0.00    +0.091 C 
ATOM      2  C   UNL     1      -1.379  -6.777  -0.410  0.00  0.00    +0.015 C 
ATOM      3  C   UNL     1      -1.458  -8.306  -0.382  0.00  0.00    +0.018 C 
ATOM      4  C   UNL     1      -1.577  -8.833  -1.816  0.00  0.00    +0.109 C 
ATOM      5  N   UNL     1      -0.462  -8.300  -2.610  0.00  0.00    -0.174 NA
ATOM      6  C   UNL     1      -0.240  -6.848  -2.632  0.00  0.00    +0.122 C 
ENDROOT
BRANCH   1   8
ATOM      7  N   UNL     1       0.057  -4.171  -0.023  0.00  0.00    -0.284 N 
ATOM      8  C   UNL     1      -0.042  -4.839  -1.189  0.00  0.00    +0.222 C 
ATOM      9  O   UNL     1      -0.055  -4.230  -2.238  0.00  0.00    -0.275 OA
ATOM     10  H   UNL     1       0.149  -4.660   0.810  0.00  0.00    +0.155 HD
BRANCH   7  15
ATOM     11  C   UNL     1      -0.064   1.502   0.016  0.00  0.00    +0.044 C 
ATOM     12  C   UNL     1      -0.031  -0.005   0.006  0.00  0.00    -0.049 A 
ATOM     13  C   UNL     1      -0.622  -0.701  -1.033  0.00  0.00    +0.005 A 
ATOM     14  C   UNL     1      -0.594  -2.081  -1.045  0.00  0.00    +0.024 A 
ATOM     15  C   UNL     1       0.028  -2.771  -0.013  0.00  0.00    +0.047 A 
ATOM     16  C   UNL     1       0.621  -2.070   1.029  0.00  0.00    +0.039 A 
ATOM     17  C   UNL     1       0.595  -0.688   1.032  0.00  0.00    +0.020 A 
ATOM     18 BR   UNL     1       1.470  -3.004   2.437  0.00  0.00    -0.048 Br
ENDBRANCH   7  15
ENDBRANCH   1   8
BRANCH   5  19
ATOM     19  S   UNL     1       0.527  -9.318  -3.465  0.00  0.00    +0.080 S 
ATOM     20  O   UNL     1       1.760  -8.633  -3.639  0.00  0.00    -0.151 OA
ATOM     21  O   UNL     1       0.443 -10.589  -2.835  0.00  0.00    -0.151 OA
BRANCH  19  22
ATOM     22  C   UNL     1      -0.178  -9.503  -5.069  0.00  0.00    +0.211 A 
ATOM     23  C   UNL     1      -1.074 -10.438  -5.436  0.00  0.00    +0.136 A 
ATOM     24  N   UNL     1      -1.353 -10.223  -6.759  0.00  0.00    -0.332 N 
ATOM     25  C   UNL     1      -0.616  -9.162  -7.154  0.00  0.00    +0.201 A 
ATOM     26  N   UNL     1       0.080  -8.734  -6.137  0.00  0.00    -0.216 NA
BRANCH  24  27
ATOM     27  C   UNL     1      -2.277 -10.998  -7.590  0.00  0.00    +0.082 C 
ATOM     28  C   UNL     1      -3.378 -10.078  -8.123  0.00  0.00    +0.030 C 
ATOM     29  C   UNL     1      -1.513 -11.612  -8.765  0.00  0.00    +0.030 C 
ENDBRANCH  24  27
ENDBRANCH  19  22
ENDBRANCH   5  19
TORSDOF 5
