REMARK  Name = ZINC21733940
REMARK  8 active torsions:
REMARK  status: ('A' for Active; 'I' for Inactive)
REMARK    1  A    between atoms: C_1  and  C_2
REMARK    2  A    between atoms: C_5  and  C_8
REMARK    3  A    between atoms: C_8  and  C_10
REMARK    4  A    between atoms: C_8  and  N_15
REMARK    5  A    between atoms: C_16  and  C_18
REMARK    6  A    between atoms: C_18  and  N_19
REMARK    7  A    between atoms: C_22  and  C_26
REMARK    8  A    between atoms: C_22  and  C_27
REMARK                            x       y       z     vdW  Elec       q    Type
REMARK                         _______ _______ _______ _____ _____    ______ ____
ROOT
ATOM      1  N   UNL     1       2.291   5.022   1.672  0.00  0.00    -0.303 N 
ATOM      2  C   UNL     1       1.886   3.761   1.424  0.00  0.00    +0.232 C 
ATOM      3  O   UNL     1       1.655   3.006   2.344  0.00  0.00    -0.274 OA
ATOM      4  H   UNL     1       2.501   5.707   0.837  0.00  0.00    +0.150 HD
ENDROOT
BRANCH   1   5
ATOM      5  C   UNL     1       2.453   5.481   3.054  0.00  0.00    +0.140 C 
BRANCH   5  10
ATOM      6  C   UNL     1       1.873  11.227   3.256  0.00  0.00    +0.044 C 
ATOM      7  C   UNL     1       2.025   9.729   3.204  0.00  0.00    -0.050 A 
ATOM      8  C   UNL     1       1.476   8.943   4.200  0.00  0.00    +0.004 A 
ATOM      9  C   UNL     1       1.615   7.569   4.152  0.00  0.00    +0.006 A 
ATOM     10  C   UNL     1       2.301   6.979   3.107  0.00  0.00    -0.022 A 
ATOM     11  C   UNL     1       2.854   7.765   2.113  0.00  0.00    +0.006 A 
ATOM     12  C   UNL     1       2.711   9.139   2.159  0.00  0.00    +0.004 A 
ENDBRANCH   5  10
BRANCH   5  13
ATOM     13  C   UNL     1       3.821   5.096   3.554  0.00  0.00    +0.014 A 
ATOM     14  C   UNL     1       4.184   4.630   4.774  0.00  0.00    +0.013 A 
ATOM     15  C   UNL     1       5.514   4.339   5.012  0.00  0.00    +0.008 A 
ATOM     16  C   UNL     1       6.416   4.527   4.018  0.00  0.00    +0.045 A 
ATOM     17  S   UNL     1       5.384   5.128   2.692  0.00  0.00    -0.099 S 
ENDBRANCH   5  13
ENDBRANCH   1   5
BRANCH   2  18
ATOM     18  C   UNL     1       1.720   3.289   0.002  0.00  0.00    +0.213 C 
BRANCH  18  19
ATOM     19  N   UNL     1       1.274   1.894   0.000  0.00  0.00    -0.215 N 
ATOM     20  C   UNL     1      -0.018   1.512   0.010  0.00  0.00    +0.251 C 
ATOM     21  O   UNL     1      -0.995   2.231   0.019  0.00  0.00    -0.272 OA
ATOM     22  C   UNL     1       0.002  -0.004   0.002  0.00  0.00    +0.135 C 
ATOM     23  N   UNL     1       1.438  -0.331  -0.013  0.00  0.00    -0.281 N 
ATOM     24  C   UNL     1       2.099   0.841  -0.013  0.00  0.00    +0.310 C 
ATOM     25  O   UNL     1       3.311   0.933  -0.025  0.00  0.00    -0.252 OA
ATOM     26  C   UNL     1      -0.686  -0.545  -1.253  0.00  0.00    +0.047 C 
ATOM     27  H   UNL     1       1.763  -1.382  -0.022  0.00  0.00    +0.152 HD
BRANCH  22  28
ATOM     28  C   UNL     1      -0.652  -0.550   1.245  0.00  0.00    -0.015 A 
ATOM     29  C   UNL     1      -1.662   0.163   1.864  0.00  0.00    +0.009 A 
ATOM     30  C   UNL     1      -2.266  -0.339   3.001  0.00  0.00    +0.039 A 
ATOM     31  C   UNL     1      -1.853  -1.552   3.526  0.00  0.00    +0.123 A 
ATOM     32  C   UNL     1      -0.839  -2.263   2.908  0.00  0.00    +0.039 A 
ATOM     33  C   UNL     1      -0.239  -1.761   1.768  0.00  0.00    +0.009 A 
ATOM     34  F   UNL     1      -2.440  -2.041   4.640  0.00  0.00    -0.205 F 
ENDBRANCH  22  28
ENDBRANCH  18  19
ENDBRANCH   2  18
TORSDOF 6
