REMARK  Name = ZINC06193585
REMARK  10 active torsions:
REMARK  status: ('A' for Active; 'I' for Inactive)
REMARK    1  A    between atoms: C_1  and  C_2
REMARK    2  A    between atoms: C_2  and  N_69
REMARK    3  A    between atoms: C_3  and  C_4
REMARK    4  A    between atoms: C_3  and  N_69
REMARK    5  A    between atoms: C_10  and  C_12
REMARK    6  A    between atoms: C_10  and  C_26
REMARK    7  A    between atoms: C_10  and  N_69
REMARK    8  A    between atoms: C_16  and  C_25
REMARK    9  A    between atoms: C_17  and  C_24
REMARK   10  A    between atoms: N_30  and  C_31
REMARK                            x       y       z     vdW  Elec       q    Type
REMARK                         _______ _______ _______ _____ _____    ______ ____
ROOT
ATOM      1  C   UNL     1       3.673   1.323  -0.099  0.00  0.00    +0.039 C 
ENDROOT
BRANCH   1   2
ATOM      2  C   UNL     1       3.859   2.283   1.048  0.00  0.00    +0.011 A 
ATOM      3  C   UNL     1       4.767   2.009   2.018  0.00  0.00    +0.017 A 
ATOM      4  C   UNL     1       4.927   2.964   3.115  0.00  0.00    -0.001 A 
ATOM      5  C   UNL     1       5.850   2.739   4.142  0.00  0.00    +0.013 A 
ATOM      6  C   UNL     1       5.973   3.648   5.154  0.00  0.00    -0.047 A 
ATOM      7  C   UNL     1       5.188   4.793   5.174  0.00  0.00    -0.046 A 
ATOM      8  C   UNL     1       4.271   5.035   4.174  0.00  0.00    +0.030 A 
ATOM      9  C   UNL     1       4.129   4.124   3.132  0.00  0.00    +0.049 A 
ATOM     10  N   UNL     1       3.220   4.341   2.119  0.00  0.00    -0.322 N 
ATOM     11  H   UNL     1       2.654   5.165   2.132  0.00  0.00    +0.169 HD
ATOM     12  C   UNL     1       3.084   3.460   1.112  0.00  0.00    +0.251 A 
ATOM     13  O   UNL     1       2.271   3.685   0.232  0.00  0.00    -0.268 OA
ATOM     14  C   UNL     1       5.340   5.782   6.301  0.00  0.00    +0.044 C 
ATOM     15  C   UNL     1       6.968   3.406   6.259  0.00  0.00    +0.044 C 
ENDBRANCH   1   2
BRANCH   1  16
ATOM     16  C   UNL     1       2.308   0.690  -0.008  0.00  0.00    +0.143 A 
ATOM     17  N   UNL     1       1.167   1.241  -0.342  0.00  0.00    -0.115 NA
ATOM     18  N   UNL     1       0.231   0.384  -0.119  0.00  0.00    -0.023 NA
ATOM     19  N   UNL     1       0.746  -0.699   0.349  0.00  0.00    -0.044 NA
ATOM     20  N   UNL     1       2.025  -0.550   0.432  0.00  0.00    -0.227 N 
BRANCH  20  21
ATOM     21  C   UNL     1       2.987  -1.543   0.914  0.00  0.00    +0.111 C 
ATOM     22  C   UNL     1       2.910  -2.795   0.038  0.00  0.00    +0.027 C 
ATOM     23  C   UNL     1       3.916  -3.833   0.541  0.00  0.00    +0.002 C 
ATOM     24  C   UNL     1       3.585  -4.202   1.989  0.00  0.00    +0.000 C 
ATOM     25  C   UNL     1       3.663  -2.950   2.865  0.00  0.00    +0.002 C 
ATOM     26  C   UNL     1       2.657  -1.913   2.362  0.00  0.00    +0.027 C 
ENDBRANCH  20  21
ENDBRANCH   1  16
BRANCH   1  27
ATOM     27  N   UNL     1       3.770   2.066  -1.373  0.00  0.00    +0.392 N 
ATOM     28  H   UNL     1       2.947   2.673  -1.468  0.00  0.00    -0.080 HD
BRANCH  27  30
ATOM     29  C   UNL     1       2.376   0.639  -2.785  0.00  0.00    -0.017 C 
ATOM     30  C   UNL     1       3.802   1.120  -2.508  0.00  0.00    -0.080 C 
ENDBRANCH  27  30
BRANCH  27  31
ATOM     31  C   UNL     1       4.988   2.903  -1.378  0.00  0.00    -0.042 C 
BRANCH  31  32
ATOM     32  C   UNL     1       4.949   3.810  -2.581  0.00  0.00    -0.064 A 
ATOM     33  C   UNL     1       5.522   3.404  -3.771  0.00  0.00    +0.002 A 
ATOM     34  C   UNL     1       5.482   4.233  -4.876  0.00  0.00    +0.000 A 
ATOM     35  C   UNL     1       4.879   5.474  -4.787  0.00  0.00    +0.000 A 
ATOM     36  C   UNL     1       4.312   5.883  -3.595  0.00  0.00    +0.000 A 
ATOM     37  C   UNL     1       4.346   5.051  -2.492  0.00  0.00    +0.002 A 
ENDBRANCH  31  32
ENDBRANCH  27  31
ENDBRANCH   1  27
TORSDOF 7
