REMARK  Name = ZINC09496301
REMARK  9 active torsions:
REMARK  status: ('A' for Active; 'I' for Inactive)
REMARK    1  A    between atoms: C_1  and  O_2
REMARK    2  A    between atoms: O_2  and  C_3
REMARK    3  A    between atoms: C_3  and  C_4
REMARK    4  A    between atoms: C_5  and  C_27
REMARK    5  A    between atoms: C_6  and  C_18
REMARK    6  A    between atoms: C_23  and  O_24
REMARK    7  A    between atoms: O_24  and  C_25
REMARK    8  A    between atoms: C_27  and  O_29
REMARK    9  A    between atoms: O_29  and  C_30
REMARK                            x       y       z     vdW  Elec       q    Type
REMARK                         _______ _______ _______ _____ _____    ______ ____
ROOT
ATOM      1  C   UNL     1       2.431   4.056   0.109  0.00  0.00    +0.049 C 
ATOM      2  C   UNL     1       1.232   3.466  -0.000  0.00  0.00    +0.083 C 
ATOM      3  C   UNL     1      -0.058   4.232  -0.100  0.00  0.00    +0.163 C 
ATOM      4  N   UNL     1       0.177   5.636   0.237  0.00  0.00    -0.300 N 
ATOM      5  C   UNL     1      -0.718   6.633   0.500  0.00  0.00    +0.071 A 
ATOM      6  C   UNL     1      -2.107   6.669   0.546  0.00  0.00    +0.028 A 
ATOM      7  C   UNL     1      -2.697   7.885   0.852  0.00  0.00    +0.002 A 
ATOM      8  C   UNL     1      -1.948   9.022   1.104  0.00  0.00    +0.002 A 
ATOM      9  C   UNL     1      -0.566   9.012   1.065  0.00  0.00    +0.030 A 
ATOM     10  C   UNL     1       0.053   7.795   0.757  0.00  0.00    +0.091 A 
ATOM     11  N   UNL     1       1.350   7.450   0.641  0.00  0.00    -0.214 NA
ATOM     12  C   UNL     1       1.437   6.183   0.339  0.00  0.00    +0.202 A 
ATOM     13  N   UNL     1       2.577   5.420   0.138  0.00  0.00    -0.286 N 
ATOM     14  H   UNL     1       3.447   5.835   0.026  0.00  0.00    +0.155 HD
ENDROOT
BRANCH   3  15
ATOM     15  C   UNL     1      -0.591   4.136  -1.506  0.00  0.00    +0.023 A 
ATOM     16  C   UNL     1       0.158   4.615  -2.564  0.00  0.00    +0.025 A 
ATOM     17  C   UNL     1      -0.328   4.523  -3.855  0.00  0.00    +0.018 A 
ATOM     18  C   UNL     1      -1.571   3.961  -4.090  0.00  0.00    +0.019 A 
ATOM     19  C   UNL     1      -2.325   3.486  -3.035  0.00  0.00    +0.047 A 
ATOM     20  C   UNL     1      -1.837   3.572  -1.740  0.00  0.00    +0.126 A 
ATOM     21 BR   UNL     1       0.704   5.171  -5.301  0.00  0.00    -0.050 Br
BRANCH  20  22
ATOM     22  O   UNL     1      -2.578   3.105  -0.701  0.00  0.00    -0.495 OA
ATOM     23  C   UNL     1      -3.851   2.537  -1.015  0.00  0.00    +0.277 C 
ENDBRANCH  20  22
ENDBRANCH   3  15
BRANCH   2  24
ATOM     24  C   UNL     1       1.178   2.054  -0.016  0.00  0.00    +0.339 C 
ATOM     25  O   UNL     1       2.208   1.406  -0.044  0.00  0.00    -0.245 OA
BRANCH  24  26
ATOM     26  O   UNL     1      -0.015   1.424  -0.001  0.00  0.00    -0.465 OA
ATOM     27  C   UNL     1       0.005  -0.004  -0.019  0.00  0.00    +0.280 C 
ENDBRANCH  24  26
ENDBRANCH   2  24
BRANCH   1  28
ATOM     28  C   UNL     1       3.662   3.192   0.196  0.00  0.00    +0.210 C 
BRANCH  28  30
ATOM     29  C   UNL     1       6.036   3.290   0.510  0.00  0.00    +0.194 C 
ATOM     30  O   UNL     1       4.809   4.016   0.412  0.00  0.00    -0.377 OA
ENDBRANCH  28  30
ENDBRANCH   1  28
TORSDOF 6
