REMARK  Name = ZINC37443065
REMARK  5 active torsions:
REMARK  status: ('A' for Active; 'I' for Inactive)
REMARK    1  A    between atoms: C_1  and  C_2
REMARK    2  A    between atoms: C_8  and  N_10
REMARK    3  A    between atoms: C_11  and  C_13
REMARK    4  A    between atoms: C_13  and  C_33
REMARK    5  A    between atoms: N_25  and  C_26
REMARK                            x       y       z     vdW  Elec       q    Type
REMARK                         _______ _______ _______ _____ _____    ______ ____
ROOT
ATOM      1  C   UNL     1       0.093   0.387   4.447  0.00  0.00    +0.133 C 
ATOM      2  C   UNL     1       0.930   0.150   5.705  0.00  0.00    +0.158 C 
ATOM      3  N   UNL     1       0.587  -1.158   6.268  0.00  0.00    -0.333 N 
ATOM      4  C   UNL     1       1.377  -2.018   7.009  0.00  0.00    +0.057 A 
ATOM      5  C   UNL     1       2.687  -2.087   7.506  0.00  0.00    +0.034 A 
ATOM      6  C   UNL     1       3.085  -3.157   8.225  0.00  0.00    +0.048 A 
ATOM      7  S   UNL     1       1.619  -4.173   8.259  0.00  0.00    -0.095 S 
ATOM      8  C   UNL     1       0.556  -3.115   7.311  0.00  0.00    +0.038 A 
ATOM      9  C   UNL     1      -0.703  -2.919   6.756  0.00  0.00    +0.048 A 
ATOM     10  C   UNL     1      -0.676  -1.718   6.112  0.00  0.00    +0.107 A 
ATOM     11  C   UNL     1      -1.714  -1.025   5.339  0.00  0.00    +0.268 C 
ATOM     12  O   UNL     1      -2.869  -1.408   5.327  0.00  0.00    -0.268 OA
ATOM     13  N   UNL     1      -1.315   0.064   4.640  0.00  0.00    -0.250 N 
ATOM     14  C   UNL     1       0.212   1.859   4.047  0.00  0.00    +0.044 C 
ENDROOT
BRANCH  13  15
ATOM     15  C   UNL     1      -2.286   0.906   4.087  0.00  0.00    +0.038 A 
ATOM     16  C   UNL     1      -2.986   0.510   2.955  0.00  0.00    +0.025 A 
ATOM     17  C   UNL     1      -3.944   1.344   2.411  0.00  0.00    +0.022 A 
ATOM     18  C   UNL     1      -4.205   2.572   2.992  0.00  0.00    +0.041 A 
ATOM     19  C   UNL     1      -3.508   2.969   4.120  0.00  0.00    +0.022 A 
ATOM     20  C   UNL     1      -2.554   2.137   4.672  0.00  0.00    +0.025 A 
ATOM     21 CL   UNL     1      -5.409   3.618   2.305  0.00  0.00    -0.084 Cl
ENDBRANCH  13  15
BRANCH   1  23
ATOM     22  N   UNL     1      -0.143  -0.783   2.281  0.00  0.00    -0.310 N 
ATOM     23  C   UNL     1       0.640  -0.466   3.331  0.00  0.00    +0.239 C 
ATOM     24  O   UNL     1       1.784  -0.866   3.379  0.00  0.00    -0.273 OA
ATOM     25  H   UNL     1      -1.058  -0.463   2.243  0.00  0.00    +0.149 HD
BRANCH  22  32
ATOM     26  C   UNL     1      -0.242   0.149  -0.459  0.00  0.00    +0.009 C 
ATOM     27  C   UNL     1      -0.389  -1.328  -0.090  0.00  0.00    +0.006 C 
ATOM     28  C   UNL     1       0.166  -2.194  -1.223  0.00  0.00    +0.005 C 
ATOM     29  C   UNL     1       0.019  -3.672  -0.855  0.00  0.00    +0.000 C 
ATOM     30  C   UNL     1       0.797  -3.956   0.432  0.00  0.00    +0.002 C 
ATOM     31  C   UNL     1       0.242  -3.090   1.565  0.00  0.00    +0.022 C 
ATOM     32  C   UNL     1       0.389  -1.613   1.196  0.00  0.00    +0.076 C 
ENDBRANCH  22  32
ENDBRANCH   1  23
TORSDOF 3
