REMARK  Name = ZINC21259865
REMARK  9 active torsions:
REMARK  status: ('A' for Active; 'I' for Inactive)
REMARK    1  A    between atoms: C_1  and  C_2
REMARK    2  A    between atoms: C_2  and  C_3
REMARK    3  A    between atoms: C_2  and  O_4
REMARK    4  A    between atoms: O_4  and  C_5
REMARK    5  A    between atoms: C_8  and  C_11
REMARK    6  A    between atoms: C_16  and  C_22
REMARK    7  A    between atoms: C_25  and  O_28
REMARK    8  A    between atoms: O_28  and  C_29
REMARK    9  A    between atoms: C_29  and  C_30
REMARK                            x       y       z     vdW  Elec       q    Type
REMARK                         _______ _______ _______ _____ _____    ______ ____
ROOT
ATOM      1  C   UNL     1       2.452   4.451   4.180  0.00  0.00    +0.032 C 
ATOM      2  C   UNL     1       2.954   4.921   2.812  0.00  0.00    +0.059 C 
ATOM      3  C   UNL     1       2.018   4.432   1.734  0.00  0.00    +0.018 C 
ATOM      4  C   UNL     1       0.703   4.261   1.985  0.00  0.00    +0.020 C 
ATOM      5  C   UNL     1      -0.216   3.781   0.886  0.00  0.00    +0.063 C 
ATOM      6  C   UNL     1       0.251   4.353  -0.453  0.00  0.00    +0.109 C 
ATOM      7  C   UNL     1       1.734   4.130  -0.595  0.00  0.00    +0.218 C 
ATOM      8  O   UNL     1       2.213   3.917  -1.688  0.00  0.00    -0.275 OA
ATOM      9  N   UNL     1       2.529   4.167   0.489  0.00  0.00    -0.289 N 
ATOM     10  C   UNL     1       0.161   4.519   3.255  0.00  0.00    +0.162 C 
ATOM     11  O   UNL     1      -1.030   4.363   3.439  0.00  0.00    -0.292 OA
ATOM     12  C   UNL     1       1.032   4.987   4.390  0.00  0.00    +0.088 C 
ATOM     13  H   UNL     1       3.606   3.979   0.365  0.00  0.00    +0.155 HD
ENDROOT
BRANCH   1  17
ATOM     14  C   UNL     1       5.021   5.958   7.244  0.00  0.00    +0.121 A 
ATOM     15  C   UNL     1       4.857   4.590   7.086  0.00  0.00    +0.046 A 
ATOM     16  C   UNL     1       4.025   4.105   6.095  0.00  0.00    +0.007 A 
ATOM     17  C   UNL     1       3.358   4.982   5.261  0.00  0.00    -0.043 A 
ATOM     18  C   UNL     1       3.525   6.347   5.413  0.00  0.00    +0.007 A 
ATOM     19  C   UNL     1       4.350   6.836   6.406  0.00  0.00    +0.046 A 
BRANCH  14  20
ATOM     20  O   UNL     1       5.839   6.437   8.219  0.00  0.00    -0.489 OA
BRANCH  20  22
ATOM     21  C   UNL     1       4.921   8.521   9.030  0.00  0.00    +0.051 C 
ATOM     22  C   UNL     1       6.053   7.850   8.249  0.00  0.00    +0.167 C 
ATOM     23  C   UNL     1       7.390   8.148   8.931  0.00  0.00    +0.051 C 
ENDBRANCH  20  22
ENDBRANCH  14  20
ENDBRANCH   1  17
BRANCH   5  24
ATOM     24  C   UNL     1      -0.185   2.275   0.828  0.00  0.00    -0.039 A 
ATOM     25  C   UNL     1      -1.348   1.553   1.024  0.00  0.00    +0.008 A 
ATOM     26  C   UNL     1      -1.323   0.173   0.970  0.00  0.00    +0.046 A 
ATOM     27  C   UNL     1      -0.129  -0.488   0.720  0.00  0.00    +0.121 A 
ATOM     28  C   UNL     1       1.036   0.238   0.524  0.00  0.00    +0.046 A 
ATOM     29  C   UNL     1       1.005   1.618   0.578  0.00  0.00    +0.008 A 
BRANCH  27  30
ATOM     30  O   UNL     1      -0.102  -1.846   0.668  0.00  0.00    -0.487 OA
BRANCH  30  31
ATOM     31  C   UNL     1       1.162  -2.460   0.406  0.00  0.00    +0.264 C 
BRANCH  31  32
ATOM     32  C   UNL     1       0.998  -3.958   0.385  0.00  0.00    -0.010 A 
ATOM     33  C   UNL     1       1.153  -4.686   1.550  0.00  0.00    +0.007 A 
ATOM     34  C   UNL     1       0.997  -6.060   1.531  0.00  0.00    +0.000 A 
ATOM     35  C   UNL     1       0.699  -6.706   0.346  0.00  0.00    +0.000 A 
ATOM     36  C   UNL     1       0.550  -5.978  -0.819  0.00  0.00    +0.000 A 
ATOM     37  C   UNL     1       0.700  -4.604  -0.800  0.00  0.00    +0.007 A 
ENDBRANCH  31  32
ENDBRANCH  30  31
ENDBRANCH  27  30
ENDBRANCH   5  24
TORSDOF 7
