REMARK  Name = ZINC38847653
REMARK  8 active torsions:
REMARK  status: ('A' for Active; 'I' for Inactive)
REMARK    1  A    between atoms: C_1  and  C_2
REMARK    2  A    between atoms: C_2  and  O_3
REMARK    3  A    between atoms: O_3  and  C_4
REMARK    4  A    between atoms: N_13  and  C_14
REMARK    5  A    between atoms: C_14  and  C_15
REMARK    6  A    between atoms: C_15  and  C_16
REMARK    7  A    between atoms: C_16  and  N_17
REMARK    8  A    between atoms: C_22  and  C_24
REMARK                            x       y       z     vdW  Elec       q    Type
REMARK                         _______ _______ _______ _____ _____    ______ ____
ROOT
ATOM      1  C   UNL     1       0.999  -1.776  -1.254  0.00  0.00    +0.147 A 
ATOM      2  C   UNL     1       0.653  -2.594  -0.204  0.00  0.00    +0.048 A 
ATOM      3  C   UNL     1       1.039  -3.926  -0.168  0.00  0.00    +0.005 A 
ATOM      4  C   UNL     1       1.787  -4.444  -1.209  0.00  0.00    +0.017 A 
ATOM      5  C   UNL     1       2.137  -3.635  -2.263  0.00  0.00    +0.044 A 
ATOM      6  C   UNL     1       1.761  -2.276  -2.340  0.00  0.00    +0.122 A 
ATOM      7  N   UNL     1       2.177  -1.615  -3.442  0.00  0.00    -0.221 NA
ATOM      8  C   UNL     1       2.882  -2.191  -4.386  0.00  0.00    +0.168 A 
ATOM      9  S   UNL     1       3.057  -3.858  -3.766  0.00  0.00    -0.052 S 
ATOM     10  N   UNL     1       3.374  -1.644  -5.561  0.00  0.00    -0.250 N 
ATOM     11  C   UNL     1       3.142  -0.349  -5.850  0.00  0.00    +0.233 C 
ATOM     12  O   UNL     1       2.594   0.365  -5.037  0.00  0.00    -0.274 OA
ENDROOT
BRANCH  11  13
ATOM     13  C   UNL     1       3.563   0.213  -7.184  0.00  0.00    +0.142 C 
ATOM     14  C   UNL     1       4.657   1.225  -6.974  0.00  0.00    +0.011 A 
ATOM     15  C   UNL     1       5.948   0.788  -6.734  0.00  0.00    +0.008 A 
ATOM     16  C   UNL     1       6.966   1.702  -6.539  0.00  0.00    +0.001 A 
ATOM     17  C   UNL     1       6.698   3.058  -6.583  0.00  0.00    +0.004 A 
ATOM     18  C   UNL     1       5.412   3.499  -6.823  0.00  0.00    +0.046 A 
ATOM     19  C   UNL     1       4.385   2.582  -7.019  0.00  0.00    +0.133 A 
ATOM     20  O   UNL     1       3.130   3.034  -7.254  0.00  0.00    -0.455 OA
ATOM     21  C   UNL     1       2.220   2.229  -7.853  0.00  0.00    +0.133 A 
ATOM     22  C   UNL     1       2.376   0.852  -7.852  0.00  0.00    +0.011 A 
ATOM     23  C   UNL     1       1.433   0.051  -8.470  0.00  0.00    +0.008 A 
ATOM     24  C   UNL     1       0.336   0.619  -9.090  0.00  0.00    +0.001 A 
ATOM     25  C   UNL     1       0.178   1.993  -9.093  0.00  0.00    +0.004 A 
ATOM     26  C   UNL     1       1.115   2.798  -8.476  0.00  0.00    +0.046 A 
ENDBRANCH  11  13
BRANCH   1  27
ATOM     27  O   UNL     1       0.602  -0.475  -1.252  0.00  0.00    -0.490 OA
BRANCH  27  29
ATOM     28  C   UNL     1      -0.515   1.447  -0.305  0.00  0.00    +0.048 C 
ATOM     29  C   UNL     1      -0.163  -0.032  -0.130  0.00  0.00    +0.226 C 
ENDBRANCH  27  29
ENDBRANCH   1  27
BRANCH  10  30
ATOM     30  C   UNL     1       4.147  -2.475  -6.488  0.00  0.00    +0.117 C 
BRANCH  30  31
ATOM     31  C   UNL     1       3.204  -3.106  -7.515  0.00  0.00    +0.041 C 
BRANCH  31  32
ATOM     32  C   UNL     1       3.988  -4.080  -8.396  0.00  0.00    +0.124 C 
BRANCH  32  33
ATOM     33  N   UNL     1       3.086  -4.684  -9.379  0.00  0.00    -0.338 N 
ATOM     34  C   UNL     1       2.358  -5.832  -9.216  0.00  0.00    +0.104 A 
ATOM     35  C   UNL     1       1.669  -6.022 -10.357  0.00  0.00    +0.101 A 
ATOM     36  N   UNL     1       1.967  -5.017 -11.194  0.00  0.00    -0.352 N 
ATOM     37  C   UNL     1       2.811  -4.209 -10.613  0.00  0.00    +0.173 A 
ATOM     38  H   UNL     1       1.608  -4.906 -12.088  0.00  0.00    +0.166 HD
ENDBRANCH  32  33
ENDBRANCH  31  32
ENDBRANCH  30  31
ENDBRANCH  10  30
TORSDOF 7
