REMARK  Name = ZINC39012211
REMARK  5 active torsions:
REMARK  status: ('A' for Active; 'I' for Inactive)
REMARK    1  A    between atoms: C_4  and  O_7
REMARK    2  A    between atoms: O_7  and  C_8
REMARK    3  A    between atoms: C_12  and  C_14
REMARK    4  A    between atoms: N_15  and  N_16
REMARK    5  A    between atoms: C_17  and  C_23
REMARK                            x       y       z     vdW  Elec       q    Type
REMARK                         _______ _______ _______ _____ _____    ______ ____
ROOT
ATOM      1  C   UNL     1       5.646  -5.037  -0.044  0.00  0.00    +0.138 C 
ATOM      2  N   UNL     1       5.519  -6.328  -0.100  0.00  0.00    -0.183 NA
ENDROOT
BRANCH   2   3
ATOM      3  N   UNL     1       6.647  -7.148   0.033  0.00  0.00    -0.172 N 
ATOM      4  C   UNL     1       6.688  -8.621   0.110  0.00  0.00    +0.264 C 
ATOM      5  N   UNL     1       8.121  -8.926   0.241  0.00  0.00    -0.189 NA
ATOM      6  N   UNL     1       8.743  -7.861   0.238  0.00  0.00    -0.219 N 
ATOM      7  C   UNL     1       7.941  -6.769   0.113  0.00  0.00    +0.174 C 
ATOM      8  S   UNL     1       8.492  -5.148   0.068  0.00  0.00    -0.015 S 
ATOM      9  H   UNL     1       9.708  -7.807   0.314  0.00  0.00    +0.176 HD
BRANCH   4  10
ATOM     10  C   UNL     1       5.928  -9.108   1.316  0.00  0.00    -0.001 A 
ATOM     11  C   UNL     1       4.848  -8.387   1.791  0.00  0.00    +0.007 A 
ATOM     12  C   UNL     1       4.150  -8.834   2.897  0.00  0.00    +0.002 A 
ATOM     13  C   UNL     1       4.531 -10.002   3.529  0.00  0.00    +0.020 A 
ATOM     14  C   UNL     1       5.611 -10.725   3.055  0.00  0.00    +0.041 A 
ATOM     15  C   UNL     1       6.306 -10.280   1.944  0.00  0.00    +0.027 A 
ATOM     16 CL   UNL     1       6.090 -12.193   3.848  0.00  0.00    -0.084 Cl
ENDBRANCH   4  10
ENDBRANCH   2   3
BRANCH   1  21
ATOM     17  C   UNL     1       3.451  -1.988  -0.038  0.00  0.00    +0.129 A 
ATOM     18  C   UNL     1       2.191  -2.566  -0.124  0.00  0.00    +0.046 A 
ATOM     19  C   UNL     1       2.058  -3.941  -0.185  0.00  0.00    +0.004 A 
ATOM     20  C   UNL     1       3.176  -4.749  -0.159  0.00  0.00    +0.010 A 
ATOM     21  C   UNL     1       4.448  -4.177  -0.072  0.00  0.00    -0.002 A 
ATOM     22  C   UNL     1       4.581  -2.788  -0.017  0.00  0.00    +0.055 A 
BRANCH  17  23
ATOM     23  O   UNL     1       3.576  -0.636   0.021  0.00  0.00    -0.456 OA
BRANCH  23  27
ATOM     24  C   UNL     1       4.822   1.344  -3.377  0.00  0.00    +0.000 A 
ATOM     25  C   UNL     1       4.778  -0.038  -3.360  0.00  0.00    +0.004 A 
ATOM     26  C   UNL     1       4.361  -0.704  -2.224  0.00  0.00    +0.046 A 
ATOM     27  C   UNL     1       3.986   0.016  -1.098  0.00  0.00    +0.128 A 
ATOM     28  C   UNL     1       4.032   1.403  -1.117  0.00  0.00    +0.046 A 
ATOM     29  C   UNL     1       4.449   2.063  -2.257  0.00  0.00    +0.004 A 
ENDBRANCH  23  27
ENDBRANCH  17  23
ENDBRANCH   1  21
TORSDOF 5
