REMARK  Name = ZINC15300806
REMARK  11 active torsions:
REMARK  status: ('A' for Active; 'I' for Inactive)
REMARK    1  A    between atoms: C_1  and  C_2
REMARK    2  A    between atoms: C_2  and  N_57
REMARK    3  A    between atoms: C_3  and  C_4
REMARK    4  A    between atoms: C_3  and  N_57
REMARK    5  A    between atoms: N_6  and  C_7
REMARK    6  A    between atoms: C_7  and  C_8
REMARK    7  A    between atoms: C_8  and  C_9
REMARK    8  A    between atoms: C_15  and  C_16
REMARK    9  A    between atoms: C_15  and  N_57
REMARK   10  A    between atoms: N_18  and  C_19
REMARK   11  A    between atoms: C_24  and  C_25
REMARK                            x       y       z     vdW  Elec       q    Type
REMARK                         _______ _______ _______ _____ _____    ______ ____
ROOT
ATOM      1  N   UNL     1       1.566   1.114   0.431  0.00  0.00    +0.391 N 
ATOM      2  H   UNL     1       1.119   0.424  -0.185  0.00  0.00    -0.080 HD
ENDROOT
BRANCH   1   4
ATOM      3  C   UNL     1      -0.101   0.243   1.992  0.00  0.00    -0.017 C 
ATOM      4  C   UNL     1       1.345   0.716   1.837  0.00  0.00    -0.081 C 
ENDBRANCH   1   4
BRANCH   1   5
ATOM      5  C   UNL     1       3.014   1.154   0.138  0.00  0.00    +0.019 C 
BRANCH   5   6
ATOM      6  C   UNL     1       3.558  -0.251   0.186  0.00  0.00    +0.196 C 
ATOM      7  O   UNL     1       2.822  -1.177   0.452  0.00  0.00    -0.278 OA
ATOM      8  N   UNL     1       4.862  -0.477  -0.067  0.00  0.00    -0.317 N 
ATOM      9  H   UNL     1       5.451   0.264  -0.280  0.00  0.00    +0.149 HD
BRANCH   8  10
ATOM     10  C   UNL     1       5.391  -1.843  -0.021  0.00  0.00    +0.108 C 
BRANCH  10  11
ATOM     11  C   UNL     1       6.886  -1.822  -0.344  0.00  0.00    +0.049 C 
BRANCH  11  12
ATOM     12  C   UNL     1       7.430  -3.227  -0.295  0.00  0.00    -0.072 C 
ATOM     13  C   UNL     1       7.503  -3.888  -1.406  0.00  0.00    -0.028 C 
ATOM     14  C   UNL     1       8.012  -5.295  -1.515  0.00  0.00    +0.027 C 
ATOM     15  C   UNL     1       8.805  -5.667  -0.260  0.00  0.00    +0.004 C 
ATOM     16  C   UNL     1       7.968  -5.296   0.971  0.00  0.00    +0.005 C 
ATOM     17  C   UNL     1       7.860  -3.769   1.036  0.00  0.00    +0.030 C 
ENDBRANCH  11  12
ENDBRANCH  10  11
ENDBRANCH   8  10
ENDBRANCH   5   6
ENDBRANCH   1   5
BRANCH   1  18
ATOM     18  C   UNL     1       0.964   2.441   0.181  0.00  0.00    +0.020 C 
BRANCH  18  19
ATOM     19  C   UNL     1       0.749   2.602  -1.302  0.00  0.00    +0.201 C 
ATOM     20  O   UNL     1       0.977   1.676  -2.052  0.00  0.00    -0.278 OA
ATOM     21  N   UNL     1       0.309   3.776  -1.796  0.00  0.00    -0.287 N 
ATOM     22  H   UNL     1       0.203   4.540  -1.207  0.00  0.00    +0.155 HD
BRANCH  21  23
ATOM     23  C   UNL     1       0.006   3.894  -3.156  0.00  0.00    +0.045 A 
ATOM     24  C   UNL     1      -0.254   2.758  -3.912  0.00  0.00    +0.024 A 
ATOM     25  C   UNL     1      -0.557   2.877  -5.254  0.00  0.00    +0.002 A 
ATOM     26  C   UNL     1      -0.592   4.126  -5.848  0.00  0.00    +0.001 A 
ATOM     27  C   UNL     1      -0.328   5.258  -5.100  0.00  0.00    +0.014 A 
ATOM     28  C   UNL     1      -0.029   5.146  -3.756  0.00  0.00    +0.076 A 
BRANCH  28  29
ATOM     29  C   UNL     1       0.258   6.381  -2.941  0.00  0.00    +0.419 C 
ATOM     30  F   UNL     1       0.163   7.511  -3.759  0.00  0.00    -0.166 F 
ATOM     31  F   UNL     1      -0.670   6.479  -1.899  0.00  0.00    -0.166 F 
ATOM     32  F   UNL     1       1.550   6.298  -2.409  0.00  0.00    -0.166 F 
ENDBRANCH  28  29
ENDBRANCH  21  23
ENDBRANCH  18  19
ENDBRANCH   1  18
TORSDOF 10
