REMARK  Name = ZINC07737560
REMARK  6 active torsions:
REMARK  status: ('A' for Active; 'I' for Inactive)
REMARK    1  A    between atoms: C_1  and  N_2
REMARK    2  A    between atoms: C_3  and  N_25
REMARK    3  A    between atoms: C_4  and  S_11
REMARK    4  A    between atoms: S_11  and  C_12
REMARK    5  A    between atoms: C_15  and  C_18
REMARK    6  A    between atoms: N_16  and  C_17
REMARK                            x       y       z     vdW  Elec       q    Type
REMARK                         _______ _______ _______ _____ _____    ______ ____
ROOT
ATOM      1  S   UNL     1      -2.637   3.859  -0.500  0.00  0.00    -0.041 S 
ENDROOT
BRANCH   1   5
ATOM      2  C   UNL     1       0.814   1.094  -3.217  0.00  0.00    +0.155 C 
ATOM      3  N   UNL     1       0.452   1.766  -1.967  0.00  0.00    -0.284 N 
ATOM      4  C   UNL     1      -0.762   2.404  -1.859  0.00  0.00    +0.119 A 
ATOM      5  C   UNL     1      -1.091   3.033  -0.676  0.00  0.00    +0.118 A 
ATOM      6  C   UNL     1      -0.172   2.998   0.389  0.00  0.00    +0.270 A 
ATOM      7  O   UNL     1      -0.439   3.542   1.448  0.00  0.00    -0.266 OA
ATOM      8  N   UNL     1       1.007   2.364   0.231  0.00  0.00    -0.274 N 
ATOM      9  H   UNL     1       1.663   2.346   0.985  0.00  0.00    +0.173 HD
ATOM     10  C   UNL     1       1.310   1.756  -0.930  0.00  0.00    +0.330 A 
ATOM     11  O   UNL     1       2.378   1.187  -1.044  0.00  0.00    -0.246 OA
BRANCH   4  12
ATOM     12  N   UNL     1      -1.638   2.414  -2.919  0.00  0.00    -0.343 N 
ATOM     13  H   UNL     1      -1.371   2.040  -3.773  0.00  0.00    +0.144 HD
ATOM     14  H   UNL     1      -2.524   2.796  -2.813  0.00  0.00    +0.144 HD
ENDBRANCH   4  12
ENDBRANCH   1   5
BRANCH   1  15
ATOM     15  C   UNL     1      -2.077   5.521  -0.330  0.00  0.00    +0.197 A 
ATOM     16  N   UNL     1      -0.836   5.942  -0.440  0.00  0.00    -0.122 NA
ATOM     17  N   UNL     1      -0.784   7.213  -0.261  0.00  0.00    -0.128 NA
ATOM     18  C   UNL     1      -1.985   7.682  -0.016  0.00  0.00    +0.165 A 
ATOM     19  N   UNL     1      -2.851   6.613  -0.053  0.00  0.00    -0.305 N 
ATOM     20  C   UNL     1      -4.300   6.640   0.161  0.00  0.00    +0.153 C 
BRANCH  18  21
ATOM     21  C   UNL     1      -2.341   9.092   0.248  0.00  0.00    +0.019 A 
ATOM     22  C   UNL     1      -1.456  10.115  -0.098  0.00  0.00    +0.014 A 
ATOM     23  C   UNL     1      -1.795  11.429   0.147  0.00  0.00    +0.039 A 
ATOM     24  C   UNL     1      -3.007  11.735   0.746  0.00  0.00    +0.123 A 
ATOM     25  C   UNL     1      -3.887  10.723   1.096  0.00  0.00    +0.039 A 
ATOM     26  C   UNL     1      -3.561   9.406   0.851  0.00  0.00    +0.014 A 
ATOM     27  F   UNL     1      -3.332  13.023   0.989  0.00  0.00    -0.205 F 
ENDBRANCH  18  21
ENDBRANCH   1  15
TORSDOF 4
