REMARK  Name = ZINC16485944
REMARK  3 active torsions:
REMARK  status: ('A' for Active; 'I' for Inactive)
REMARK    1  A    between atoms: C_4  and  C_7
REMARK    2  A    between atoms: C_7  and  C_8
REMARK    3  A    between atoms: N_22  and  C_23
REMARK                            x       y       z     vdW  Elec       q    Type
REMARK                         _______ _______ _______ _____ _____    ______ ____
ROOT
ATOM      1  C   UNL     1      -3.449  -0.916  -0.070  0.00  0.00    +0.145 A 
ATOM      2  N   UNL     1      -2.367  -0.312   0.361  0.00  0.00    -0.208 NA
ATOM      3  C   UNL     1      -1.225  -0.519  -0.280  0.00  0.00    +0.181 A 
ATOM      4  S   UNL     1      -1.726  -1.605  -1.538  0.00  0.00    +0.049 S 
ATOM      5  N   UNL     1      -3.382  -1.705  -1.115  0.00  0.00    -0.192 NA
ATOM      6  N   UNL     1       0.031  -0.002  -0.020  0.00  0.00    -0.307 N 
ATOM      7  C   UNL     1       0.634  -0.651   1.144  0.00  0.00    +0.108 C 
ATOM      8  C   UNL     1       2.126  -0.774   0.924  0.00  0.00    +0.038 C 
ATOM      9  C   UNL     1       2.839   0.450   1.523  0.00  0.00    +0.111 C 
ATOM     10  N   UNL     1       2.080   1.691   1.266  0.00  0.00    -0.284 N 
ATOM     11  C   UNL     1       1.449   1.968  -0.008  0.00  0.00    +0.128 C 
ATOM     12  C   UNL     1       0.005   1.412  -0.006  0.00  0.00    +0.126 C 
ATOM     13  C   UNL     1       1.972   2.600   2.256  0.00  0.00    +0.307 C 
ATOM     14  O   UNL     1       2.493   2.390   3.334  0.00  0.00    -0.252 OA
ATOM     15  N   UNL     1       1.285   3.741   2.049  0.00  0.00    -0.268 N 
ATOM     16  H   UNL     1       0.924   3.938   1.171  0.00  0.00    +0.156 HD
ENDROOT
BRANCH  15  17
ATOM     17  C   UNL     1       1.093   4.642   3.103  0.00  0.00    +0.049 A 
ATOM     18  C   UNL     1       2.081   4.811   4.063  0.00  0.00    +0.024 A 
ATOM     19  C   UNL     1       1.890   5.705   5.099  0.00  0.00    +0.002 A 
ATOM     20  C   UNL     1       0.712   6.424   5.186  0.00  0.00    +0.001 A 
ATOM     21  C   UNL     1      -0.277   6.254   4.235  0.00  0.00    +0.017 A 
ATOM     22  C   UNL     1      -0.090   5.365   3.193  0.00  0.00    +0.039 A 
ATOM     23 BR   UNL     1      -1.443   5.133   1.893  0.00  0.00    -0.048 Br
ENDBRANCH  15  17
BRANCH   1  24
ATOM     24  C   UNL     1      -4.764  -0.705   0.634  0.00  0.00    +0.112 C 
BRANCH  24  28
ATOM     25  C   UNL     1      -6.795   2.624  -1.111  0.00  0.00    +0.000 A 
ATOM     26  C   UNL     1      -7.002   1.351  -1.608  0.00  0.00    +0.000 A 
ATOM     27  C   UNL     1      -6.345   0.274  -1.043  0.00  0.00    +0.004 A 
ATOM     28  C   UNL     1      -5.481   0.470   0.018  0.00  0.00    -0.040 A 
ATOM     29  C   UNL     1      -5.278   1.742   0.518  0.00  0.00    +0.004 A 
ATOM     30  C   UNL     1      -5.931   2.820  -0.050  0.00  0.00    +0.000 A 
ENDBRANCH  24  28
ENDBRANCH   1  24
TORSDOF 3
