REMARK  Name = ZINC09723361
REMARK  11 active torsions:
REMARK  status: ('A' for Active; 'I' for Inactive)
REMARK    1  A    between atoms: C_1  and  C_2
REMARK    2  A    between atoms: C_2  and  C_4
REMARK    3  A    between atoms: C_2  and  N_66
REMARK    4  A    between atoms: C_17  and  C_18
REMARK    5  A    between atoms: C_17  and  N_66
REMARK    6  A    between atoms: C_18  and  C_20
REMARK    7  A    between atoms: C_18  and  C_30
REMARK    8  A    between atoms: C_24  and  O_28
REMARK    9  A    between atoms: C_25  and  O_26
REMARK   10  A    between atoms: O_26  and  C_27
REMARK   11  A    between atoms: O_28  and  C_29
REMARK                            x       y       z     vdW  Elec       q    Type
REMARK                         _______ _______ _______ _____ _____    ______ ____
ROOT
ATOM      1  C   UNL     1       3.676   3.969  -0.012  0.00  0.00    +0.038 C 
ENDROOT
BRANCH   1   2
ATOM      2  C   UNL     1       2.186   4.197   0.004  0.00  0.00    -0.017 A 
ATOM      3  C   UNL     1       1.560   5.385   0.016  0.00  0.00    +0.087 A 
ATOM      4  N   UNL     1       0.205   5.198   0.028  0.00  0.00    -0.360 N 
ATOM      5  H   UNL     1      -0.455   5.909   0.038  0.00  0.00    +0.165 HD
ATOM      6  C   UNL     1      -0.082   3.852   0.024  0.00  0.00    +0.047 A 
ATOM      7  C   UNL     1       1.147   3.166   0.008  0.00  0.00    +0.003 A 
ATOM      8  C   UNL     1       1.165   1.770   0.000  0.00  0.00    +0.010 A 
ATOM      9  C   UNL     1      -0.013   1.076   0.008  0.00  0.00    +0.001 A 
ATOM     10  C   UNL     1      -1.227   1.748   0.017  0.00  0.00    +0.002 A 
ATOM     11  C   UNL     1      -1.268   3.125   0.031  0.00  0.00    +0.026 A 
ENDBRANCH   1   2
BRANCH   1  12
ATOM     12  C   UNL     1       4.292   4.588   1.216  0.00  0.00    +0.004 A 
ATOM     13  C   UNL     1       4.169   5.947   1.441  0.00  0.00    +0.008 A 
ATOM     14  C   UNL     1       4.729   6.518   2.568  0.00  0.00    +0.004 A 
ATOM     15  C   UNL     1       5.423   5.733   3.471  0.00  0.00    +0.049 A 
ATOM     16  C   UNL     1       5.554   4.372   3.249  0.00  0.00    +0.162 A 
ATOM     17  C   UNL     1       4.986   3.797   2.116  0.00  0.00    +0.165 A 
BRANCH  17  18
ATOM     18  O   UNL     1       5.112   2.462   1.894  0.00  0.00    -0.491 OA
ATOM     19  C   UNL     1       6.250   2.034   1.142  0.00  0.00    +0.277 C 
ENDBRANCH  17  18
BRANCH  16  20
ATOM     20  O   UNL     1       6.236   3.600   4.137  0.00  0.00    -0.491 OA
ATOM     21  C   UNL     1       6.793   4.258   5.277  0.00  0.00    +0.277 C 
ENDBRANCH  16  20
ENDBRANCH   1  12
BRANCH   1  22
ATOM     22  C   UNL     1       4.277   4.612  -1.264  0.00  0.00    -0.069 C 
BRANCH  22  23
ATOM     23  N   UNL     1       5.713   4.282  -1.334  0.00  0.00    +0.387 N 
ATOM     24  H   UNL     1       6.185   4.642  -0.497  0.00  0.00    -0.085 HD
ATOM     25  H   UNL     1       5.824   3.262  -1.378  0.00  0.00    -0.085 HD
BRANCH  23  27
ATOM     26  C   UNL     1       6.730   6.331  -2.224  0.00  0.00    -0.004 C 
ATOM     27  C   UNL     1       6.319   4.890  -2.534  0.00  0.00    +0.013 C 
BRANCH  27  28
ATOM     28  C   UNL     1       7.537   4.095  -2.929  0.00  0.00    +0.206 C 
ATOM     29  O   UNL     1       7.863   3.123  -2.281  0.00  0.00    -0.277 OA
ATOM     30  N   UNL     1       8.264   4.464  -4.002  0.00  0.00    -0.262 N 
ATOM     31  C   UNL     1       7.890   5.639  -4.804  0.00  0.00    +0.209 C 
ATOM     32  C   UNL     1       8.054   5.309  -6.266  0.00  0.00    +0.235 C 
ATOM     33  O   UNL     1       7.353   5.861  -7.087  0.00  0.00    -0.274 OA
ATOM     34  N   UNL     1       8.970   4.408  -6.671  0.00  0.00    -0.283 N 
ATOM     35  C   UNL     1       9.756   3.720  -5.741  0.00  0.00    +0.055 A 
ATOM     36  C   UNL     1       9.405   3.744  -4.387  0.00  0.00    +0.058 A 
ATOM     37  C   UNL     1      10.167   3.059  -3.461  0.00  0.00    +0.025 A 
ATOM     38  C   UNL     1      11.287   2.358  -3.874  0.00  0.00    +0.002 A 
ATOM     39  C   UNL     1      11.641   2.340  -5.210  0.00  0.00    +0.002 A 
ATOM     40  C   UNL     1      10.880   3.018  -6.145  0.00  0.00    +0.025 A 
ATOM     41  H   UNL     1       9.085   4.235  -7.618  0.00  0.00    +0.155 HD
ENDBRANCH  27  28
ENDBRANCH  23  27
ENDBRANCH  22  23
ENDBRANCH   1  22
TORSDOF 8
