REMARK  Name = ZINC22363127
REMARK  12 active torsions:
REMARK  status: ('A' for Active; 'I' for Inactive)
REMARK    1  A    between atoms: C_1  and  C_2
REMARK    2  A    between atoms: C_5  and  C_9
REMARK    3  A    between atoms: C_6  and  C_8
REMARK    4  A    between atoms: C_9  and  C_11
REMARK    5  A    between atoms: C_9  and  N_12
REMARK    6  A    between atoms: C_13  and  C_15
REMARK    7  A    between atoms: C_15  and  N_16
REMARK    8  A    between atoms: N_16  and  C_17
REMARK    9  A    between atoms: N_16  and  S_25
REMARK   10  A    between atoms: C_20  and  C_24
REMARK   11  A    between atoms: C_21  and  C_23
REMARK   12  A    between atoms: S_25  and  C_28
REMARK                            x       y       z     vdW  Elec       q    Type
REMARK                         _______ _______ _______ _____ _____    ______ ____
ROOT
ATOM      1  N   UNL     1      -1.283  -0.874  -0.521  0.00  0.00    -0.194 N 
ENDROOT
BRANCH   1   2
ATOM      2  C   UNL     1      -0.070  -0.185  -0.462  0.00  0.00    +0.052 A 
ATOM      3  C   UNL     1       0.960  -0.513  -1.335  0.00  0.00    +0.025 A 
ATOM      4  C   UNL     1       2.158   0.172  -1.274  0.00  0.00    +0.005 A 
ATOM      5  C   UNL     1       2.333   1.182  -0.347  0.00  0.00    -0.047 A 
ATOM      6  C   UNL     1       1.310   1.511   0.523  0.00  0.00    -0.046 A 
ATOM      7  C   UNL     1       0.109   0.831   0.468  0.00  0.00    +0.028 A 
ATOM      8  C   UNL     1       1.505   2.614   1.532  0.00  0.00    +0.044 C 
ATOM      9  C   UNL     1       3.642   1.927  -0.284  0.00  0.00    +0.044 C 
ENDBRANCH   1   2
BRANCH   1  10
ATOM     10  S   UNL     1      -1.317  -2.512  -0.275  0.00  0.00    +0.075 S 
ATOM     11  O   UNL     1      -2.416  -3.012  -1.024  0.00  0.00    -0.150 OA
ATOM     12  O   UNL     1       0.011  -2.979  -0.467  0.00  0.00    -0.150 OA
BRANCH  10  13
ATOM     13  C   UNL     1      -1.704  -2.776   1.423  0.00  0.00    +0.109 A 
ATOM     14  C   UNL     1      -0.689  -2.869   2.357  0.00  0.00    +0.030 A 
ATOM     15  C   UNL     1      -0.992  -3.070   3.690  0.00  0.00    +0.022 A 
ATOM     16  C   UNL     1      -2.311  -3.190   4.089  0.00  0.00    +0.041 A 
ATOM     17  C   UNL     1      -3.327  -3.102   3.154  0.00  0.00    +0.022 A 
ATOM     18  C   UNL     1      -3.023  -2.895   1.821  0.00  0.00    +0.030 A 
ATOM     19 CL   UNL     1      -2.692  -3.449   5.763  0.00  0.00    -0.084 Cl
ENDBRANCH  10  13
ENDBRANCH   1  10
BRANCH   1  20
ATOM     20  C   UNL     1      -2.525  -0.149  -0.800  0.00  0.00    +0.227 C 
BRANCH  20  22
ATOM     21  N   UNL     1      -3.780   0.631  -2.784  0.00  0.00    -0.307 N 
ATOM     22  C   UNL     1      -2.700  -0.007  -2.290  0.00  0.00    +0.233 C 
ATOM     23  O   UNL     1      -1.869  -0.466  -3.044  0.00  0.00    -0.274 OA
ATOM     24  H   UNL     1      -4.534   1.047  -2.099  0.00  0.00    +0.149 HD
BRANCH  21  25
ATOM     25  C   UNL     1      -3.950   0.769  -4.232  0.00  0.00    +0.100 C 
ATOM     26  C   UNL     1      -4.698  -0.449  -4.777  0.00  0.00    +0.033 C 
BRANCH  25  31
ATOM     27  C   UNL     1      -6.979   5.558  -5.367  0.00  0.00    +0.044 C 
ATOM     28  C   UNL     1      -6.189   4.309  -5.071  0.00  0.00    -0.050 A 
ATOM     29  C   UNL     1      -6.346   3.663  -3.859  0.00  0.00    +0.004 A 
ATOM     30  C   UNL     1      -5.622   2.517  -3.587  0.00  0.00    +0.006 A 
ATOM     31  C   UNL     1      -4.740   2.018  -4.528  0.00  0.00    -0.025 A 
ATOM     32  C   UNL     1      -4.579   2.667  -5.737  0.00  0.00    -0.045 A 
ATOM     33  C   UNL     1      -5.307   3.811  -6.010  0.00  0.00    +0.007 A 
ATOM     34  C   UNL     1      -3.613   2.127  -6.760  0.00  0.00    +0.044 C 
ENDBRANCH  25  31
ENDBRANCH  21  25
ENDBRANCH  20  22
ENDBRANCH   1  20
TORSDOF 7
