REMARK  Name = ZINC17988263
REMARK  7 active torsions:
REMARK  status: ('A' for Active; 'I' for Inactive)
REMARK    1  A    between atoms: C_1  and  C_2
REMARK    2  A    between atoms: C_2  and  C_4
REMARK    3  A    between atoms: C_2  and  S_18
REMARK    4  A    between atoms: C_7  and  C_9
REMARK    5  A    between atoms: C_12  and  N_15
REMARK    6  A    between atoms: S_18  and  C_19
REMARK    7  A    between atoms: C_22  and  C_25
REMARK                            x       y       z     vdW  Elec       q    Type
REMARK                         _______ _______ _______ _____ _____    ______ ____
ROOT
ATOM      1  C   UNL     1      -0.013   1.086   0.008  0.00  0.00    +0.029 C 
ATOM      2  C   UNL     1      -0.729   1.579   1.267  0.00  0.00    +0.139 C 
ENDROOT
BRANCH   2   3
ATOM      3  C   UNL     1       0.000   1.080   2.488  0.00  0.00    +0.231 A 
ATOM      4  N   UNL     1       1.133   1.534   2.947  0.00  0.00    -0.111 NA
ATOM      5  N   UNL     1       1.460   0.880   4.006  0.00  0.00    -0.107 NA
ATOM      6  C   UNL     1       0.545  -0.028   4.254  0.00  0.00    +0.248 A 
ATOM      7  O   UNL     1      -0.397   0.082   3.296  0.00  0.00    -0.419 OA
BRANCH   6   8
ATOM      8  C   UNL     1       0.548  -0.992   5.375  0.00  0.00    +0.039 A 
ATOM      9  C   UNL     1      -0.501  -1.901   5.519  0.00  0.00    +0.015 A 
ATOM     10  C   UNL     1      -0.490  -2.801   6.566  0.00  0.00    +0.033 A 
ATOM     11  C   UNL     1       0.551  -2.796   7.476  0.00  0.00    +0.126 A 
ATOM     12  C   UNL     1       1.591  -1.893   7.341  0.00  0.00    +0.033 A 
ATOM     13  C   UNL     1       1.595  -0.992   6.297  0.00  0.00    +0.015 A 
BRANCH  11  14
ATOM     14  N   UNL     1       0.553  -3.760   8.599  0.00  0.00    +0.056 N 
ATOM     15  O   UNL     1       1.469  -3.758   9.402  0.00  0.00    -0.126 OA
ATOM     16  O   UNL     1      -0.361  -4.556   8.720  0.00  0.00    -0.126 OA
ENDBRANCH  11  14
ENDBRANCH   6   8
ENDBRANCH   2   3
BRANCH   2  17
ATOM     17  S   UNL     1      -0.753   3.389   1.277  0.00  0.00    -0.075 S 
BRANCH  17  18
ATOM     18  C   UNL     1      -1.766   3.689  -0.134  0.00  0.00    +0.167 A 
ATOM     19  N   UNL     1      -2.130   4.914  -0.603  0.00  0.00    -0.333 N 
ATOM     20  H   UNL     1      -1.877   5.800  -0.215  0.00  0.00    +0.168 HD
ATOM     21  C   UNL     1      -2.918   4.698  -1.721  0.00  0.00    +0.067 A 
ATOM     22  C   UNL     1      -3.008   3.351  -1.879  0.00  0.00    +0.139 A 
ATOM     23  N   UNL     1      -2.301   2.768  -0.903  0.00  0.00    -0.230 NA
BRANCH  21  24
ATOM     24  C   UNL     1      -3.544   5.731  -2.573  0.00  0.00    -0.000 A 
ATOM     25  C   UNL     1      -3.364   7.084  -2.281  0.00  0.00    +0.011 A 
ATOM     26  C   UNL     1      -3.947   8.043  -3.083  0.00  0.00    +0.016 A 
ATOM     27  C   UNL     1      -4.717   7.666  -4.170  0.00  0.00    +0.018 A 
ATOM     28  C   UNL     1      -4.903   6.325  -4.462  0.00  0.00    +0.016 A 
ATOM     29  C   UNL     1      -4.321   5.357  -3.671  0.00  0.00    +0.011 A 
ATOM     30 BR   UNL     1      -5.519   8.987  -5.259  0.00  0.00    -0.050 Br
ENDBRANCH  21  24
ENDBRANCH  17  18
ENDBRANCH   2  17
TORSDOF 6
