REMARK  Name = ZINC59844841
REMARK  10 active torsions:
REMARK  status: ('A' for Active; 'I' for Inactive)
REMARK    1  A    between atoms: C_1  and  C_2
REMARK    2  A    between atoms: C_2  and  C_4
REMARK    3  A    between atoms: C_2  and  S_14
REMARK    4  A    between atoms: N_6  and  N_7
REMARK    5  A    between atoms: C_8  and  C_10
REMARK    6  A    between atoms: S_14  and  C_15
REMARK    7  A    between atoms: C_18  and  C_26
REMARK    8  A    between atoms: N_19  and  C_20
REMARK    9  A    between atoms: C_26  and  N_27
REMARK   10  A    between atoms: N_27  and  C_28
REMARK                            x       y       z     vdW  Elec       q    Type
REMARK                         _______ _______ _______ _____ _____    ______ ____
ROOT
ATOM      1  C   UNL     1      -2.335  -0.110   1.573  0.00  0.00    +0.197 A 
ATOM      2  N   UNL     1      -1.693   0.581   2.487  0.00  0.00    -0.122 NA
ATOM      3  N   UNL     1      -2.458   0.786   3.499  0.00  0.00    -0.132 NA
ATOM      4  C   UNL     1      -3.625   0.244   3.296  0.00  0.00    +0.156 A 
ATOM      5  N   UNL     1      -3.593  -0.342   2.059  0.00  0.00    -0.273 N 
ENDROOT
BRANCH   5   6
ATOM      6  C   UNL     1      -4.631  -1.038   1.423  0.00  0.00    +0.050 A 
ATOM      7  C   UNL     1      -5.790  -0.371   1.051  0.00  0.00    +0.026 A 
ATOM      8  C   UNL     1      -6.811  -1.059   0.425  0.00  0.00    +0.002 A 
ATOM      9  C   UNL     1      -6.679  -2.411   0.168  0.00  0.00    +0.000 A 
ATOM     10  C   UNL     1      -5.526  -3.079   0.538  0.00  0.00    +0.002 A 
ATOM     11  C   UNL     1      -4.500  -2.395   1.159  0.00  0.00    +0.026 A 
ENDBRANCH   5   6
BRANCH   1  12
ATOM     12  S   UNL     1      -1.700  -0.632   0.015  0.00  0.00    -0.073 S 
BRANCH  12  14
ATOM     13  C   UNL     1      -0.019   1.526   0.010  0.00  0.00    +0.029 C 
ATOM     14  C   UNL     1       0.002  -0.004   0.002  0.00  0.00    +0.138 C 
BRANCH  14  15
ATOM     15  C   UNL     1       0.707  -0.490  -1.238  0.00  0.00    +0.242 C 
ATOM     16  O   UNL     1       0.066  -0.782  -2.225  0.00  0.00    -0.273 OA
ATOM     17  N   UNL     1       2.051  -0.601  -1.250  0.00  0.00    -0.233 N 
ATOM     18  H   UNL     1       2.563  -0.367  -0.460  0.00  0.00    +0.173 HD
BRANCH  17  19
ATOM     19  N   UNL     1       2.706  -1.052  -2.402  0.00  0.00    -0.234 N 
ATOM     20  C   UNL     1       4.050  -1.163  -2.414  0.00  0.00    +0.232 C 
ATOM     21  O   UNL     1       4.691  -0.871  -1.426  0.00  0.00    -0.274 OA
ATOM     22  H   UNL     1       2.194  -1.286  -3.192  0.00  0.00    +0.173 HD
BRANCH  20  23
ATOM     23  C   UNL     1       4.755  -1.649  -3.654  0.00  0.00    +0.076 C 
ATOM     24  C   UNL     1       4.986  -0.548  -4.703  0.00  0.00    +0.013 C 
ATOM     25  C   UNL     1       6.319  -0.260  -3.992  0.00  0.00    +0.001 C 
ATOM     26  C   UNL     1       6.284  -1.718  -3.505  0.00  0.00    +0.013 C 
ENDBRANCH  20  23
ENDBRANCH  17  19
ENDBRANCH  14  15
ENDBRANCH  12  14
ENDBRANCH   1  12
BRANCH   4  27
ATOM     27  C   UNL     1      -4.796   0.264   4.245  0.00  0.00    +0.178 C 
BRANCH  27  28
ATOM     28  N   UNL     1      -5.621   1.444   3.977  0.00  0.00    -0.336 N 
ATOM     29  H   UNL     1      -5.370   2.063   3.274  0.00  0.00    +0.147 HD
BRANCH  28  30
ATOM     30  C   UNL     1      -6.768   1.679   4.734  0.00  0.00    +0.035 A 
ATOM     31  C   UNL     1      -7.128   0.807   5.739  0.00  0.00    +0.023 A 
ATOM     32  C   UNL     1      -8.271   1.032   6.500  0.00  0.00    +0.002 A 
ATOM     33  C   UNL     1      -9.063   2.116   6.275  0.00  0.00    +0.008 A 
ATOM     34  C   UNL     1      -8.731   3.029   5.260  0.00  0.00    -0.016 A 
ATOM     35  C   UNL     1      -7.567   2.814   4.481  0.00  0.00    +0.003 A 
ATOM     36  C   UNL     1      -7.234   3.730   3.471  0.00  0.00    +0.010 A 
ATOM     37  C   UNL     1      -8.029   4.814   3.255  0.00  0.00    +0.001 A 
ATOM     38  C   UNL     1      -9.171   5.030   4.024  0.00  0.00    +0.001 A 
ATOM     39  C   UNL     1      -9.531   4.157   5.004  0.00  0.00    +0.008 A 
ENDBRANCH  28  30
ENDBRANCH  27  28
ENDBRANCH   4  27
TORSDOF 9
