REMARK  Name = ZINC23261947
REMARK  7 active torsions:
REMARK  status: ('A' for Active; 'I' for Inactive)
REMARK    1  A    between atoms: C_1  and  C_2
REMARK    2  A    between atoms: C_2  and  C_3
REMARK    3  A    between atoms: C_3  and  C_26
REMARK    4  A    between atoms: N_6  and  C_10
REMARK    5  A    between atoms: C_10  and  C_11
REMARK    6  A    between atoms: N_13  and  C_14
REMARK    7  A    between atoms: N_13  and  C_15
REMARK                            x       y       z     vdW  Elec       q    Type
REMARK                         _______ _______ _______ _____ _____    ______ ____
ROOT
ATOM      1  C   UNL     1      -1.204   1.830   0.017  0.00  0.00    +0.138 C 
ATOM      2  C   UNL     1      -0.628   3.232   0.024  0.00  0.00    +0.251 C 
ATOM      3  O   UNL     1      -1.244   4.276   0.034  0.00  0.00    -0.272 OA
ATOM      4  N   UNL     1       0.710   3.076   0.011  0.00  0.00    -0.215 N 
ATOM      5  C   UNL     1       1.057   1.784   0.002  0.00  0.00    +0.310 C 
ATOM      6  O   UNL     1       2.207   1.393  -0.011  0.00  0.00    -0.252 OA
ATOM      7  N   UNL     1      -0.011   0.966   0.007  0.00  0.00    -0.281 N 
ATOM      8  H   UNL     1      -0.124  -0.128   0.006  0.00  0.00    +0.152 HD
ENDROOT
BRANCH   1   9
ATOM      9  C   UNL     1      -2.023   1.589   1.259  0.00  0.00    -0.015 A 
ATOM     10  C   UNL     1      -3.391   1.786   1.233  0.00  0.00    +0.007 A 
ATOM     11  C   UNL     1      -4.144   1.560   2.370  0.00  0.00    +0.020 A 
ATOM     12  C   UNL     1      -3.526   1.147   3.537  0.00  0.00    +0.041 A 
ATOM     13  C   UNL     1      -2.156   0.956   3.564  0.00  0.00    +0.020 A 
ATOM     14  C   UNL     1      -1.405   1.177   2.425  0.00  0.00    +0.007 A 
ATOM     15 CL   UNL     1      -4.470   0.870   4.968  0.00  0.00    -0.084 Cl
ENDBRANCH   1   9
BRANCH   1  17
ATOM     16  C   UNL     1      -1.173   1.781  -2.481  0.00  0.00    +0.007 C 
ATOM     17  C   UNL     1      -2.047   1.598  -1.239  0.00  0.00    +0.037 C 
ENDBRANCH   1  17
BRANCH   4  18
ATOM     18  C   UNL     1       1.668   4.185   0.007  0.00  0.00    +0.213 C 
BRANCH  18  19
ATOM     19  C   UNL     1       1.982   4.572  -1.415  0.00  0.00    +0.234 C 
ATOM     20  O   UNL     1       1.459   3.979  -2.335  0.00  0.00    -0.274 OA
ATOM     21  N   UNL     1       2.846   5.576  -1.665  0.00  0.00    -0.296 N 
ATOM     22  C   UNL     1       3.479   6.291  -0.554  0.00  0.00    +0.132 C 
BRANCH  21  23
ATOM     23  C   UNL     1       3.152   5.952  -3.048  0.00  0.00    +0.106 C 
ATOM     24  C   UNL     1       4.644   5.752  -3.305  0.00  0.00    +0.027 C 
ATOM     25  C   UNL     1       4.983   6.351  -4.675  0.00  0.00    +0.007 C 
ATOM     26  C   UNL     1       4.876   7.872  -4.575  0.00  0.00    +0.035 C 
ATOM     27  C   UNL     1       3.554   8.271  -3.974  0.00  0.00    -0.042 A 
ATOM     28  C   UNL     1       2.764   7.390  -3.269  0.00  0.00    -0.024 A 
ATOM     29  C   UNL     1       1.559   7.825  -2.733  0.00  0.00    +0.006 A 
ATOM     30  C   UNL     1       1.145   9.130  -2.905  0.00  0.00    +0.000 A 
ATOM     31  C   UNL     1       1.936  10.012  -3.617  0.00  0.00    +0.000 A 
ATOM     32  C   UNL     1       3.135   9.583  -4.148  0.00  0.00    +0.004 A 
ENDBRANCH  21  23
ENDBRANCH  18  19
ENDBRANCH   4  18
TORSDOF 5
