REMARK  Name = ZINC40027370
REMARK  12 active torsions:
REMARK  status: ('A' for Active; 'I' for Inactive)
REMARK    1  A    between atoms: C_1  and  C_2
REMARK    2  A    between atoms: C_2  and  C_3
REMARK    3  A    between atoms: C_3  and  O_4
REMARK    4  A    between atoms: O_4  and  C_5
REMARK    5  A    between atoms: C_8  and  C_12
REMARK    6  A    between atoms: C_10  and  C_11
REMARK    7  A    between atoms: C_12  and  C_14
REMARK    8  A    between atoms: N_18  and  C_30
REMARK    9  A    between atoms: C_19  and  C_21
REMARK   10  A    between atoms: C_26  and  O_27
REMARK   11  A    between atoms: O_27  and  C_28
REMARK   12  A    between atoms: C_30  and  C_31
REMARK                            x       y       z     vdW  Elec       q    Type
REMARK                         _______ _______ _______ _____ _____    ______ ____
ROOT
ATOM      1  C   UNL     1       4.138  -3.909   6.934  0.00  0.00    +0.076 C 
ATOM      2  C   UNL     1       4.878  -4.069   8.056  0.00  0.00    +0.249 C 
ATOM      3  C   UNL     1       5.270  -2.741   8.572  0.00  0.00    +0.288 C 
ATOM      4  O   UNL     1       5.939  -2.550   9.568  0.00  0.00    -0.266 OA
ATOM      5  N   UNL     1       4.777  -1.775   7.776  0.00  0.00    -0.280 N 
ATOM      6  C   UNL     1       4.037  -2.422   6.687  0.00  0.00    +0.149 C 
ATOM      7  O   UNL     1       5.207  -5.256   8.616  0.00  0.00    -0.282 OA
ENDROOT
BRANCH   6   8
ATOM      8  C   UNL     1       2.593  -1.989   6.716  0.00  0.00    +0.020 A 
ATOM      9  C   UNL     1       2.025  -1.558   7.900  0.00  0.00    +0.024 A 
ATOM     10  C   UNL     1       0.701  -1.161   7.928  0.00  0.00    +0.018 A 
ATOM     11  C   UNL     1      -0.058  -1.194   6.771  0.00  0.00    +0.019 A 
ATOM     12  C   UNL     1       0.506  -1.624   5.586  0.00  0.00    +0.047 A 
ATOM     13  C   UNL     1       1.836  -2.018   5.555  0.00  0.00    +0.125 A 
ATOM     14 BR   UNL     1      -0.075  -0.572   9.549  0.00  0.00    -0.050 Br
BRANCH  13  15
ATOM     15  O   UNL     1       2.395  -2.437   4.388  0.00  0.00    -0.495 OA
ATOM     16  C   UNL     1       1.589  -2.341   3.212  0.00  0.00    +0.277 C 
ENDBRANCH  13  15
ENDBRANCH   6   8
BRANCH   1  17
ATOM     17  C   UNL     1       3.553  -4.974   6.113  0.00  0.00    +0.195 C 
ATOM     18  O   UNL     1       2.697  -5.702   6.580  0.00  0.00    -0.287 OA
BRANCH  17  22
ATOM     19  C   UNL     1       4.848  -5.519   2.105  0.00  0.00    +0.123 A 
ATOM     20  C   UNL     1       5.448  -4.550   2.902  0.00  0.00    +0.046 A 
ATOM     21  C   UNL     1       5.032  -4.370   4.201  0.00  0.00    +0.015 A 
ATOM     22  C   UNL     1       4.003  -5.163   4.720  0.00  0.00    +0.023 A 
ATOM     23  C   UNL     1       3.402  -6.136   3.915  0.00  0.00    +0.018 A 
ATOM     24  C   UNL     1       3.821  -6.306   2.615  0.00  0.00    -0.008 A 
ATOM     25  C   UNL     1       3.171  -7.350   1.745  0.00  0.00    +0.047 C 
BRANCH  19  26
ATOM     26  O   UNL     1       5.261  -5.693   0.824  0.00  0.00    -0.492 OA
BRANCH  26  27
ATOM     27  C   UNL     1       6.391  -4.930   0.398  0.00  0.00    +0.229 C 
BRANCH  27  29
ATOM     28  C   UNL     1       7.992  -4.528  -1.478  0.00  0.00    +0.007 C 
ATOM     29  C   UNL     1       6.782  -5.346  -1.022  0.00  0.00    +0.038 C 
ENDBRANCH  27  29
ENDBRANCH  26  27
ENDBRANCH  19  26
ENDBRANCH  17  22
ENDBRANCH   1  17
BRANCH   5  30
ATOM     30  C   UNL     1       4.953  -0.332   7.961  0.00  0.00    +0.136 C 
BRANCH  30  31
ATOM     31  C   UNL     1       6.195   0.119   7.238  0.00  0.00    -0.016 C 
ATOM     32  C   UNL     1       6.126   1.085   6.356  0.00  0.00    +0.005 C 
ENDBRANCH  30  31
ENDBRANCH   5  30
TORSDOF 9
