REMARK  Name = ZINC36597843
REMARK  18 active torsions:
REMARK  status: ('A' for Active; 'I' for Inactive)
REMARK    1  A    between atoms: C_1  and  C_2
REMARK    2  A    between atoms: C_5  and  C_8
REMARK    3  A    between atoms: C_8  and  C_10
REMARK    4  A    between atoms: C_8  and  N_21
REMARK    5  A    between atoms: N_12  and  C_13
REMARK    6  A    between atoms: C_13  and  C_14
REMARK    7  A    between atoms: C_13  and  C_15
REMARK    8  A    between atoms: C_13  and  C_16
REMARK    9  A    between atoms: C_16  and  C_17
REMARK   10  A    between atoms: C_17  and  C_18
REMARK   11  A    between atoms: C_17  and  C_19
REMARK   12  A    between atoms: C_17  and  C_20
REMARK   13  A    between atoms: N_21  and  C_22
REMARK   14  A    between atoms: C_22  and  C_23
REMARK   15  A    between atoms: C_26  and  C_28
REMARK   16  A    between atoms: C_29  and  C_31
REMARK   17  A    between atoms: C_35  and  O_38
REMARK   18  A    between atoms: C_36  and  O_37
REMARK                            x       y       z     vdW  Elec       q    Type
REMARK                         _______ _______ _______ _____ _____    ______ ____
ROOT
ATOM      1  C   UNL     1      -0.782  -5.762  -1.185  0.00  0.00    +0.193 C 
ENDROOT
BRANCH   1   6
ATOM      2  C   UNL     1      -1.738  -0.101  -0.529  0.00  0.00    +0.044 C 
ATOM      3  C   UNL     1      -1.488  -1.578  -0.700  0.00  0.00    -0.050 A 
ATOM      4  C   UNL     1      -1.617  -2.160  -1.947  0.00  0.00    +0.004 A 
ATOM      5  C   UNL     1      -1.389  -3.514  -2.104  0.00  0.00    +0.006 A 
ATOM      6  C   UNL     1      -1.030  -4.286  -1.014  0.00  0.00    -0.018 A 
ATOM      7  C   UNL     1      -0.900  -3.703   0.232  0.00  0.00    +0.006 A 
ATOM      8  C   UNL     1      -1.125  -2.348   0.389  0.00  0.00    +0.004 A 
ENDBRANCH   1   6
BRANCH   1   9
ATOM      9  C   UNL     1      -2.066  -6.518  -0.957  0.00  0.00    +0.239 C 
ATOM     10  O   UNL     1      -2.143  -7.320  -0.051  0.00  0.00    -0.273 OA
ATOM     11  N   UNL     1      -3.127  -6.301  -1.758  0.00  0.00    -0.308 N 
ATOM     12  H   UNL     1      -3.064  -5.659  -2.483  0.00  0.00    +0.149 HD
BRANCH  11  13
ATOM     13  C   UNL     1      -4.375  -7.035  -1.536  0.00  0.00    +0.030 C 
ATOM     14  C   UNL     1      -4.215  -8.474  -2.031  0.00  0.00    +0.031 C 
ATOM     15  C   UNL     1      -4.702  -7.044  -0.041  0.00  0.00    +0.031 C 
BRANCH  13  16
ATOM     16  C   UNL     1      -5.511  -6.355  -2.303  0.00  0.00    +0.031 C 
BRANCH  16  17
ATOM     17  C   UNL     1      -5.385  -4.837  -2.159  0.00  0.00    -0.036 C 
ATOM     18  C   UNL     1      -4.076  -4.371  -2.799  0.00  0.00    +0.010 C 
ATOM     19  C   UNL     1      -6.565  -4.160  -2.859  0.00  0.00    +0.010 C 
ATOM     20  C   UNL     1      -5.389  -4.463  -0.676  0.00  0.00    +0.010 C 
ENDBRANCH  16  17
ENDBRANCH  13  16
ENDBRANCH  11  13
ENDBRANCH   1   9
BRANCH   1  21
ATOM     21  N   UNL     1       0.224  -6.204  -0.216  0.00  0.00    -0.275 N 
ATOM     22  C   UNL     1       1.488  -5.742  -0.299  0.00  0.00    +0.252 C 
ATOM     23  O   UNL     1       2.313  -6.080   0.528  0.00  0.00    -0.270 OA
BRANCH  22  24
ATOM     24  C   UNL     1       1.869  -4.828  -1.392  0.00  0.00    +0.082 A 
ATOM     25  C   UNL     1       0.915  -4.413  -2.326  0.00  0.00    +0.017 A 
ATOM     26  C   UNL     1       1.275  -3.559  -3.345  0.00  0.00    +0.005 A 
ATOM     27  C   UNL     1       2.580  -3.107  -3.451  0.00  0.00    +0.049 A 
ATOM     28  C   UNL     1       3.536  -3.509  -2.535  0.00  0.00    +0.159 A 
ATOM     29  C   UNL     1       3.187  -4.367  -1.496  0.00  0.00    +0.171 A 
BRANCH  29  30
ATOM     30  O   UNL     1       4.120  -4.760  -0.592  0.00  0.00    -0.503 OA
ATOM     31  H   UNL     1       4.593  -5.566  -0.839  0.00  0.00    +0.292 HD
ENDBRANCH  29  30
BRANCH  28  32
ATOM     32  O   UNL     1       4.816  -3.062  -2.646  0.00  0.00    -0.503 OA
ATOM     33  H   UNL     1       4.988  -2.239  -2.167  0.00  0.00    +0.292 HD
ENDBRANCH  28  32
ENDBRANCH  22  24
BRANCH  21  34
ATOM     34  C   UNL     1      -0.143  -7.147   0.843  0.00  0.00    +0.183 C 
BRANCH  34  35
ATOM     35  C   UNL     1      -0.003  -8.557   0.331  0.00  0.00    +0.122 A 
ATOM     36  C   UNL     1       1.073  -9.349   0.491  0.00  0.00    +0.046 A 
ATOM     37  C   UNL     1       0.775 -10.577  -0.143  0.00  0.00    +0.045 A 
ATOM     38  C   UNL     1      -0.464 -10.462  -0.653  0.00  0.00    +0.102 A 
ATOM     39  O   UNL     1      -0.933  -9.239  -0.358  0.00  0.00    -0.463 OA
ATOM     40  C   UNL     1      -1.204 -11.528  -1.421  0.00  0.00    +0.086 C 
ENDBRANCH  34  35
ENDBRANCH  21  34
ENDBRANCH   1  21
TORSDOF 11
