REMARK  Name = ZINC10903889
REMARK  12 active torsions:
REMARK  status: ('A' for Active; 'I' for Inactive)
REMARK    1  A    between atoms: C_1  and  C_2
REMARK    2  A    between atoms: C_2  and  C_3
REMARK    3  A    between atoms: C_6  and  C_9
REMARK    4  A    between atoms: C_9  and  C_11
REMARK    5  A    between atoms: C_9  and  N_56
REMARK    6  A    between atoms: C_11  and  C_12
REMARK    7  A    between atoms: C_11  and  C_13
REMARK    8  A    between atoms: C_14  and  C_15
REMARK    9  A    between atoms: C_14  and  N_56
REMARK   10  A    between atoms: N_17  and  C_18
REMARK   11  A    between atoms: C_21  and  C_27
REMARK   12  A    between atoms: C_28  and  C_30
REMARK                            x       y       z     vdW  Elec       q    Type
REMARK                         _______ _______ _______ _____ _____    ______ ____
ROOT
ATOM      1  C   UNL     1       3.739   1.778   1.705  0.00  0.00    +0.202 C 
ATOM      2  O   UNL     1       3.851   2.768   2.397  0.00  0.00    -0.277 OA
ATOM      3  N   UNL     1       4.809   1.294   1.044  0.00  0.00    -0.257 N 
ATOM      4  H   UNL     1       4.720   0.503   0.491  0.00  0.00    +0.158 HD
ENDROOT
BRANCH   3   5
ATOM      5  C   UNL     1       6.036   1.927   1.155  0.00  0.00    +0.206 A 
ATOM      6  C   UNL     1       7.201   1.540   0.538  0.00  0.00    +0.110 A 
ATOM      7  C   UNL     1       8.224   2.526   0.965  0.00  0.00    +0.053 A 
ATOM      8  C   UNL     1       9.587   2.360   0.452  0.00  0.00    +0.070 A 
ATOM      9  N   UNL     1       9.857   1.373  -0.346  0.00  0.00    -0.175 NA
ATOM     10  N   UNL     1       8.915   0.435  -0.760  0.00  0.00    -0.242 N 
ATOM     11  H   UNL     1       9.196  -0.274  -1.358  0.00  0.00    +0.192 HD
ATOM     12  C   UNL     1       7.625   0.473  -0.362  0.00  0.00    +0.277 A 
ATOM     13  O   UNL     1       6.832  -0.366  -0.748  0.00  0.00    -0.266 OA
ATOM     14  C   UNL     1      10.670   3.329   0.850  0.00  0.00    +0.068 C 
ATOM     15  C   UNL     1       7.583   3.390   1.780  0.00  0.00    +0.114 A 
ATOM     16  O   UNL     1       6.291   3.028   1.879  0.00  0.00    -0.445 OA
ATOM     17  C   UNL     1       8.213   4.576   2.465  0.00  0.00    +0.087 C 
ENDBRANCH   3   5
BRANCH   1  18
ATOM     18  C   UNL     1       2.404   1.090   1.585  0.00  0.00    +0.016 C 
BRANCH  18  19
ATOM     19  N   UNL     1       1.411   1.815   2.399  0.00  0.00    +0.389 N 
ATOM     20  H   UNL     1       1.757   1.897   3.362  0.00  0.00    -0.084 HD
ATOM     21  H   UNL     1       1.269   2.752   2.005  0.00  0.00    -0.084 HD
BRANCH  19  22
ATOM     22  C   UNL     1       0.126   1.091   2.404  0.00  0.00    -0.038 C 
BRANCH  22  26
ATOM     23  C   UNL     1      -2.007   2.047   5.979  0.00  0.00    -0.048 A 
ATOM     24  C   UNL     1      -2.016   0.752   5.495  0.00  0.00    +0.004 A 
ATOM     25  C   UNL     1      -1.326   0.443   4.338  0.00  0.00    +0.002 A 
ATOM     26  C   UNL     1      -0.627   1.428   3.665  0.00  0.00    -0.061 A 
ATOM     27  C   UNL     1      -0.614   2.721   4.153  0.00  0.00    +0.002 A 
ATOM     28  C   UNL     1      -1.308   3.032   5.307  0.00  0.00    +0.004 A 
BRANCH  23  30
ATOM     29  C   UNL     1      -1.839   2.198   8.449  0.00  0.00    +0.009 C 
ATOM     30  C   UNL     1      -2.759   2.384   7.241  0.00  0.00    +0.032 C 
ENDBRANCH  23  30
ENDBRANCH  22  26
BRANCH  22  31
ATOM     31  C   UNL     1      -0.702   1.510   1.188  0.00  0.00    -0.027 C 
ATOM     32  C   UNL     1      -1.080   2.988   1.314  0.00  0.00    +0.006 C 
ATOM     33  C   UNL     1      -1.974   0.663   1.120  0.00  0.00    +0.006 C 
ENDBRANCH  22  31
ENDBRANCH  19  22
ENDBRANCH  18  19
ENDBRANCH   1  18
TORSDOF 7
