REMARK  Name = ZINC16932194
REMARK  10 active torsions:
REMARK  status: ('A' for Active; 'I' for Inactive)
REMARK    1  A    between atoms: C_1  and  C_2
REMARK    2  A    between atoms: C_2  and  C_3
REMARK    3  A    between atoms: C_3  and  C_5
REMARK    4  A    between atoms: C_3  and  O_8
REMARK    5  A    between atoms: O_8  and  C_9
REMARK    6  A    between atoms: C_12  and  C_15
REMARK    7  A    between atoms: N_19  and  C_32
REMARK    8  A    between atoms: N_21  and  C_22
REMARK    9  A    between atoms: C_25  and  C_28
REMARK   10  A    between atoms: C_32  and  C_33
REMARK                            x       y       z     vdW  Elec       q    Type
REMARK                         _______ _______ _______ _____ _____    ______ ____
ROOT
ATOM      1  C   UNL     1       4.553   0.418  -6.211  0.00  0.00    +0.028 C 
ATOM      2  C   UNL     1       5.897   0.592  -6.291  0.00  0.00    +0.078 C 
ATOM      3  C   UNL     1       6.764   0.656  -7.483  0.00  0.00    +0.259 C 
ATOM      4  O   UNL     1       6.309   0.550  -8.607  0.00  0.00    -0.269 OA
ATOM      5  N   UNL     1       8.057   0.836  -7.275  0.00  0.00    -0.246 N 
ATOM      6  C   UNL     1       8.553   0.954  -5.997  0.00  0.00    +0.168 C 
ATOM      7  N   UNL     1       9.802   1.133  -5.616  0.00  0.00    -0.225 NA
ATOM      8  S   UNL     1       7.092   0.812  -4.980  0.00  0.00    -0.049 S 
ENDROOT
BRANCH   1  12
ATOM      9  C   UNL     1       2.719  -0.223  -2.442  0.00  0.00    +0.122 A 
ATOM     10  C   UNL     1       1.931  -0.015  -3.569  0.00  0.00    +0.046 A 
ATOM     11  C   UNL     1       2.522   0.194  -4.795  0.00  0.00    +0.011 A 
ATOM     12  C   UNL     1       3.918   0.196  -4.906  0.00  0.00    -0.024 A 
ATOM     13  C   UNL     1       4.706  -0.015  -3.767  0.00  0.00    +0.011 A 
ATOM     14  C   UNL     1       4.105  -0.217  -2.545  0.00  0.00    +0.046 A 
BRANCH   9  15
ATOM     15  O   UNL     1       2.131  -0.428  -1.235  0.00  0.00    -0.477 OA
BRANCH  15  16
ATOM     16  C   UNL     1       0.709  -0.302  -1.176  0.00  0.00    +0.285 C 
BRANCH  16  17
ATOM     17  C   UNL     1       0.073  -1.633  -1.486  0.00  0.00    +0.396 C 
ATOM     18  O   UNL     1      -1.139  -1.723  -1.578  0.00  0.00    -0.242 OA
ATOM     19  O   UNL     1       0.772  -2.620  -1.645  0.00  0.00    -0.242 OA
ENDBRANCH  16  17
BRANCH  16  21
ATOM     20  C   UNL     1       0.837   1.552   0.493  0.00  0.00    +0.008 C 
ATOM     21  C   UNL     1       0.294   0.146   0.226  0.00  0.00    +0.053 C 
ENDBRANCH  16  21
ENDBRANCH  15  16
ENDBRANCH   9  15
ENDBRANCH   1  12
BRANCH   7  22
ATOM     22  C   UNL     1      10.102   1.228  -4.292  0.00  0.00    +0.067 A 
ATOM     23  C   UNL     1       9.313   2.021  -3.449  0.00  0.00    +0.028 A 
ATOM     24  C   UNL     1       9.614   2.116  -2.123  0.00  0.00    +0.017 A 
ATOM     25  C   UNL     1      10.714   1.420  -1.603  0.00  0.00    +0.063 A 
ATOM     26  C   UNL     1      11.503   0.626  -2.446  0.00  0.00    +0.017 A 
ATOM     27  C   UNL     1      11.198   0.527  -3.771  0.00  0.00    +0.028 A 
BRANCH  25  28
ATOM     28  C   UNL     1      11.039   1.522  -0.174  0.00  0.00    +0.387 C 
ATOM     29  O   UNL     1      10.350   2.215   0.563  0.00  0.00    -0.241 OA
ATOM     30  O   UNL     1      11.999   0.914   0.281  0.00  0.00    -0.241 OA
ENDBRANCH  25  28
ENDBRANCH   7  22
BRANCH   5  31
ATOM     31  C   UNL     1       8.972   0.909  -8.417  0.00  0.00    +0.112 C 
ATOM     32  C   UNL     1       9.102   2.363  -8.873  0.00  0.00    +0.025 C 
ENDBRANCH   5  31
TORSDOF 8
