REMARK  Name = ZINC43741390
REMARK  11 active torsions:
REMARK  status: ('A' for Active; 'I' for Inactive)
REMARK    1  A    between atoms: C_1  and  C_2
REMARK    2  A    between atoms: C_13  and  O_15
REMARK    3  A    between atoms: N_21  and  O_22
REMARK    4  A    between atoms: O_22  and  C_23
REMARK    5  A    between atoms: C_23  and  C_24
REMARK    6  A    between atoms: N_26  and  C_27
REMARK    7  A    between atoms: C_27  and  C_29
REMARK    8  A    between atoms: C_27  and  C_38
REMARK    9  A    between atoms: C_29  and  C_31
REMARK   10  A    between atoms: C_29  and  O_37
REMARK   11  A    between atoms: C_43  and  C_44
REMARK                            x       y       z     vdW  Elec       q    Type
REMARK                         _______ _______ _______ _____ _____    ______ ____
ROOT
ATOM      1  C   UNK A   0      -0.016   1.538   0.034  0.00  0.00    +0.014 C 
ATOM      2  C   UNK A   0       0.004  -0.003   0.024  0.00  0.00    -0.003 C 
ATOM      3  C   UNK A   0       0.627  -0.436  -1.278  0.00  0.00    +0.010 C 
ATOM      4  C   UNK A   0       1.106  -1.872  -1.317  0.00  0.00    +0.005 C 
ATOM      5  C   UNK A   0       1.896  -2.296  -0.089  0.00  0.00    +0.002 C 
ATOM      6  C   UNK A   0       1.161  -1.934   1.185  0.00  0.00    -0.003 C 
ATOM      7  C   UNK A   0       0.761  -0.467   1.276  0.00  0.00    +0.001 C 
ATOM      8  C   UNK A   0      -0.321  -0.357   2.390  0.00  0.00    +0.007 C 
ATOM      9  C   UNK A   0      -1.644  -0.738   1.695  0.00  0.00    +0.032 C 
ATOM     10  C   UNK A   0      -1.442  -0.483   0.190  0.00  0.00    +0.121 C 
ATOM     11  C   UNK A   0       1.920  -2.358   2.440  0.00  0.00    +0.008 C 
ATOM     12  C   UNK A   0       3.334  -1.767   2.442  0.00  0.00    +0.031 C 
ATOM     13  C   UNK A   0       4.015  -2.266   1.178  0.00  0.00    -0.062 C 
ATOM     14  C   UNK A   0       5.142  -2.945   1.292  0.00  0.00    +0.026 C 
ATOM     15  C   UNK A   0       5.786  -3.490   0.082  0.00  0.00    +0.080 C 
ATOM     16  N   UNK A   0       7.046  -3.776   0.031  0.00  0.00    -0.089 NA
ATOM     17  C   UNK A   0       4.857  -3.736  -1.093  0.00  0.00    +0.059 C 
ATOM     18  C   UNK A   0       4.064  -2.461  -1.353  0.00  0.00    +0.017 C 
ATOM     19  C   UNK A   0       3.360  -1.916  -0.128  0.00  0.00    -0.007 C 
ATOM     20  C   UNK A   0       3.498  -0.396  -0.249  0.00  0.00    +0.016 C 
ENDROOT
BRANCH  10  21
ATOM     21  O   UNK A   0      -1.677  -1.679  -0.552  0.00  0.00    -0.391 OA
ATOM     22  H   UNK A   0      -2.580  -2.018  -0.476  0.00  0.00    +0.210 HD
ENDBRANCH  10  21
BRANCH  16  23
ATOM     23  O   UNK A   0       7.606  -4.297  -1.161  0.00  0.00    -0.384 OA
BRANCH  23  24
ATOM     24  C   UNK A   0       9.007  -4.566  -1.075  0.00  0.00    +0.358 C 
BRANCH  24  25
ATOM     25  C   UNK A   0       9.494  -5.114  -2.392  0.00  0.00    +0.254 C 
ATOM     26  O   UNK A   0       8.719  -5.259  -3.313  0.00  0.00    -0.272 OA
ATOM     27  N   UNK A   1      10.792  -5.442  -2.546  0.00  0.00    -0.297 N 
ATOM     28  H   UNK A   1      11.413  -5.325  -1.810  0.00  0.00    +0.150 HD
BRANCH  27  29
ATOM     29  C   UNK A   1      11.266  -5.974  -3.826  0.00  0.00    +0.220 C 
BRANCH  29  30
ATOM     30  C   UNK A   1      11.034  -7.463  -3.868  0.00  0.00    +0.379 C 
ATOM     31  O   UNK A   1      10.826  -8.018  -4.933  0.00  0.00    -0.244 OA
ATOM     32  O   UNK A   1      11.055  -8.112  -2.836  0.00  0.00    -0.244 OA
ENDBRANCH  29  30
BRANCH  29  33
ATOM     33  C   UNK A   1      12.761  -5.687  -3.976  0.00  0.00    +0.176 C 
BRANCH  33  34
ATOM     34  C   UNK A   1      13.008  -4.209  -3.812  0.00  0.00    -0.017 A 
ATOM     35  C   UNK A   1      13.171  -3.672  -2.549  0.00  0.00    +0.006 A 
ATOM     36  C   UNK A   1      13.397  -2.317  -2.398  0.00  0.00    +0.000 A 
ATOM     37  C   UNK A   1      13.460  -1.498  -3.511  0.00  0.00    +0.000 A 
ATOM     38  C   UNK A   1      13.297  -2.036  -4.774  0.00  0.00    +0.000 A 
ATOM     39  C   UNK A   1      13.075  -3.392  -4.925  0.00  0.00    +0.006 A 
ENDBRANCH  33  34
BRANCH  33  40
ATOM     40  O   UNK A   1      13.487  -6.405  -2.976  0.00  0.00    -0.385 OA
ATOM     41  H   UNK A   1      13.242  -6.173  -2.070  0.00  0.00    +0.210 HD
ENDBRANCH  33  40
ENDBRANCH  29  33
ENDBRANCH  27  29
ENDBRANCH  24  25
ENDBRANCH  23  24
ENDBRANCH  16  23
TORSDOF 9
