REMARK  Name = ZINC09520499
REMARK  13 active torsions:
REMARK  status: ('A' for Active; 'I' for Inactive)
REMARK    1  A    between atoms: C_1  and  C_2
REMARK    2  A    between atoms: C_2  and  O_3
REMARK    3  A    between atoms: O_3  and  C_4
REMARK    4  A    between atoms: C_4  and  C_6
REMARK    5  A    between atoms: C_7  and  C_36
REMARK    6  A    between atoms: C_8  and  C_31
REMARK    7  A    between atoms: C_10  and  N_11
REMARK    8  A    between atoms: C_12  and  C_14
REMARK    9  A    between atoms: C_14  and  S_15
REMARK   10  A    between atoms: S_15  and  C_16
REMARK   11  A    between atoms: C_31  and  O_33
REMARK   12  A    between atoms: O_33  and  C_34
REMARK   13  A    between atoms: C_34  and  C_35
REMARK                            x       y       z     vdW  Elec       q    Type
REMARK                         _______ _______ _______ _____ _____    ______ ____
ROOT
ATOM      1  N   UNL     1       0.002  -0.004   0.002  0.00  0.00    -0.279 N 
ATOM      2  C   UNL     1      -1.156  -0.694   0.009  0.00  0.00    +0.228 C 
ATOM      3  O   UNL     1      -2.214  -0.102   0.023  0.00  0.00    -0.275 OA
ATOM      4  H   UNL     1       0.849  -0.478  -0.009  0.00  0.00    +0.155 HD
ENDROOT
BRANCH   1   9
ATOM      5  C   UNL     1       1.066   2.264   0.004  0.00  0.00    +0.091 A 
ATOM      6  C   UNL     1       0.787   3.621   0.014  0.00  0.00    -0.014 A 
ATOM      7  C   UNL     1      -0.528   4.000   0.029  0.00  0.00    +0.102 A 
ATOM      8  S   UNL     1      -1.387   2.438   0.021  0.00  0.00    -0.066 S 
ATOM      9  C   UNL     1      -0.017   1.377   0.010  0.00  0.00    +0.087 A 
ATOM     10  C   UNL     1       1.894   4.644   0.009  0.00  0.00    +0.046 C 
BRANCH   5  11
ATOM     11  C   UNL     1       2.449   1.773  -0.011  0.00  0.00    +0.342 C 
ATOM     12  O   UNL     1       3.012   1.575  -1.071  0.00  0.00    -0.245 OA
BRANCH  11  13
ATOM     13  O   UNL     1       3.095   1.541   1.149  0.00  0.00    -0.461 OA
BRANCH  13  15
ATOM     14  C   UNL     1       5.024   0.853   2.466  0.00  0.00    +0.048 C 
ATOM     15  C   UNL     1       4.460   1.056   1.058  0.00  0.00    +0.229 C 
ENDBRANCH  13  15
ENDBRANCH  11  13
ENDBRANCH   5  11
BRANCH   7  16
ATOM     16  C   UNL     1      -1.089   5.351   0.041  0.00  0.00    +0.346 C 
ATOM     17  O   UNL     1      -0.350   6.317   0.039  0.00  0.00    -0.244 OA
BRANCH  16  18
ATOM     18  O   UNL     1      -2.427   5.526   0.055  0.00  0.00    -0.461 OA
BRANCH  18  19
ATOM     19  C   UNL     1      -2.906   6.872   0.066  0.00  0.00    +0.229 C 
ATOM     20  C   UNL     1      -4.436   6.869   0.081  0.00  0.00    +0.048 C 
ENDBRANCH  18  19
ENDBRANCH  16  18
ENDBRANCH   7  16
ENDBRANCH   1   9
BRANCH   2  21
ATOM     21  C   UNL     1      -1.135  -2.201   0.001  0.00  0.00    +0.173 C 
BRANCH  21  22
ATOM     22  S   UNL     1      -2.837  -2.829   0.014  0.00  0.00    -0.076 S 
BRANCH  22  23
ATOM     23  C   UNL     1      -2.645  -4.580   0.003  0.00  0.00    +0.198 A 
ATOM     24  N   UNL     1      -1.508  -5.231  -0.011  0.00  0.00    -0.120 NA
ATOM     25  N   UNL     1      -1.791  -6.603  -0.015  0.00  0.00    -0.109 NA
ATOM     26  C   UNL     1      -3.094  -6.748  -0.002  0.00  0.00    +0.237 A 
ATOM     27  N   UNL     1      -3.659  -5.502   0.013  0.00  0.00    -0.260 N 
ATOM     28  C   UNL     1      -5.033  -5.346   0.032  0.00  0.00    +0.037 A 
ATOM     29  C   UNL     1      -5.824  -6.426   0.036  0.00  0.00    +0.037 A 
ATOM     30  C   UNL     1      -5.240  -7.725   0.028  0.00  0.00    +0.256 A 
ATOM     31  O   UNL     1      -5.956  -8.710   0.037  0.00  0.00    -0.267 OA
ATOM     32  N   UNL     1      -3.904  -7.871   0.002  0.00  0.00    -0.291 N 
ATOM     33  H   UNL     1      -3.509  -8.757  -0.003  0.00  0.00    +0.172 HD
ATOM     34  C   UNL     1      -7.328  -6.341   0.046  0.00  0.00    +0.042 C 
ATOM     35  C   UNL     1      -7.789  -4.954   0.488  0.00  0.00    +0.005 C 
ATOM     36  C   UNL     1      -7.040  -3.911  -0.351  0.00  0.00    +0.006 C 
ATOM     37  C   UNL     1      -5.569  -3.938   0.058  0.00  0.00    +0.054 C 
ENDBRANCH  22  23
ENDBRANCH  21  22
ENDBRANCH   2  21
TORSDOF 10
