REMARK  Name = ZINC09329157
REMARK  10 active torsions:
REMARK  status: ('A' for Active; 'I' for Inactive)
REMARK    1  A    between atoms: C_1  and  C_2
REMARK    2  A    between atoms: C_2  and  N_3
REMARK    3  A    between atoms: C_14  and  C_15
REMARK    4  A    between atoms: C_14  and  O_24
REMARK    5  A    between atoms: N_29  and  C_30
REMARK    6  A    between atoms: C_30  and  C_31
REMARK    7  A    between atoms: C_31  and  C_32
REMARK    8  A    between atoms: C_32  and  N_62
REMARK    9  A    between atoms: C_33  and  N_62
REMARK   10  A    between atoms: C_34  and  N_62
REMARK                            x       y       z     vdW  Elec       q    Type
REMARK                         _______ _______ _______ _____ _____    ______ ____
ROOT
ATOM      1  N   UNL     1       3.170  -0.372   0.984  0.00  0.00    -0.269 N 
ATOM      2  C   UNL     1       3.271  -0.445  -0.407  0.00  0.00    +0.042 A 
ATOM      3  C   UNL     1       3.659  -1.495  -1.237  0.00  0.00    +0.024 A 
ATOM      4  C   UNL     1       3.679  -1.325  -2.606  0.00  0.00    +0.002 A 
ATOM      5  C   UNL     1       3.315  -0.113  -3.165  0.00  0.00    +0.000 A 
ATOM      6  C   UNL     1       2.929   0.934  -2.347  0.00  0.00    +0.008 A 
ATOM      7  C   UNL     1       2.907   0.768  -0.980  0.00  0.00    +0.011 A 
ATOM      8  C   UNL     1       2.546   1.678   0.164  0.00  0.00    +0.174 C 
ATOM      9  C   UNL     1       2.753   0.838   1.400  0.00  0.00    +0.253 C 
ATOM     10  O   UNL     1       2.578   1.187   2.548  0.00  0.00    -0.272 OA
ATOM     11  C   UNL     1       1.118   2.142   0.060  0.00  0.00    +0.086 C 
ATOM     12  C   UNL     1      -0.016   1.347   0.009  0.00  0.00    +0.169 C 
ATOM     13  C   UNL     1       1.170   3.543   0.032  0.00  0.00    +0.250 C 
ATOM     14  O   UNL     1       0.212   4.292  -0.044  0.00  0.00    -0.282 OA
ATOM     15  C   UNL     1       2.597   3.956   0.109  0.00  0.00    +0.288 C 
ATOM     16  O   UNL     1       2.991   5.104   0.106  0.00  0.00    -0.266 OA
ATOM     17  N   UNL     1       3.389   2.869   0.181  0.00  0.00    -0.273 N 
ENDROOT
BRANCH  12  18
ATOM     18  C   UNL     1      -1.325   1.956  -0.224  0.00  0.00    +0.171 A 
ATOM     19  C   UNL     1      -2.454   1.697   0.495  0.00  0.00    +0.061 A 
ATOM     20  C   UNL     1      -3.486   2.495  -0.058  0.00  0.00    +0.021 A 
ATOM     21  C   UNL     1      -4.842   2.668   0.242  0.00  0.00    +0.011 A 
ATOM     22  C   UNL     1      -5.596   3.531  -0.501  0.00  0.00    +0.001 A 
ATOM     23  C   UNL     1      -5.027   4.238  -1.552  0.00  0.00    +0.004 A 
ATOM     24  C   UNL     1      -3.693   4.083  -1.863  0.00  0.00    +0.047 A 
ATOM     25  C   UNL     1      -2.906   3.211  -1.123  0.00  0.00    +0.136 A 
ATOM     26  O   UNL     1      -1.606   2.858  -1.189  0.00  0.00    -0.452 OA
ENDBRANCH  12  18
BRANCH   1  28
ATOM     27  C   UNL     1       2.220  -2.316   2.124  0.00  0.00    +0.025 C 
ATOM     28  C   UNL     1       3.481  -1.484   1.886  0.00  0.00    +0.110 C 
ENDBRANCH   1  28
BRANCH  12  29
ATOM     29  O   UNL     1       0.088   0.009   0.170  0.00  0.00    -0.503 OA
ATOM     30  H   UNL     1      -0.819  -0.406   0.105  0.00  0.00    +0.292 HD
ENDBRANCH  12  29
BRANCH  17  31
ATOM     31  C   UNL     1       4.851   2.881   0.270  0.00  0.00    +0.108 C 
BRANCH  31  32
ATOM     32  C   UNL     1       5.272   2.918   1.741  0.00  0.00    +0.000 C 
BRANCH  32  33
ATOM     33  C   UNL     1       6.799   2.931   1.833  0.00  0.00    -0.078 C 
BRANCH  33  36
ATOM     34  C   UNL     1       6.822   1.726   3.934  0.00  0.00    -0.097 C 
ATOM     35  C   UNL     1       8.646   3.217   3.373  0.00  0.00    -0.097 C 
ATOM     36  N   UNL     1       7.190   2.988   3.258  0.00  0.00    +0.376 N 
ATOM     37  H   UNL     1       6.693   3.765   3.709  0.00  0.00    -0.083 HD
ENDBRANCH  33  36
ENDBRANCH  32  33
ENDBRANCH  31  32
ENDBRANCH  17  31
TORSDOF 7
