REMARK  Name = ZINC37163311
REMARK  5 active torsions:
REMARK  status: ('A' for Active; 'I' for Inactive)
REMARK    1  A    between atoms: C_1  and  C_2
REMARK    2  A    between atoms: C_2  and  C_4
REMARK    3  A    between atoms: C_2  and  N_16
REMARK    4  A    between atoms: N_16  and  C_17
REMARK    5  A    between atoms: C_17  and  C_18
REMARK                            x       y       z     vdW  Elec       q    Type
REMARK                         _______ _______ _______ _____ _____    ______ ____
ROOT
ATOM      1  C   UNL     1      -0.019   1.526   0.010  0.00  0.00    -0.009 C 
ATOM      2  C   UNL     1       0.002  -0.004   0.002  0.00  0.00    -0.044 C 
ENDROOT
BRANCH   2   3
ATOM      3  C   UNL     1       0.731  -0.503   1.223  0.00  0.00    -0.060 A 
ATOM      4  C   UNL     1       2.115  -0.512   1.244  0.00  0.00    +0.004 A 
ATOM      5  C   UNL     1       2.792  -0.968   2.358  0.00  0.00    +0.028 A 
ATOM      6  C   UNL     1       2.082  -1.418   3.461  0.00  0.00    +0.067 A 
ATOM      7  C   UNL     1       0.686  -1.409   3.440  0.00  0.00    +0.067 A 
ATOM      8  C   UNL     1       0.015  -0.944   2.319  0.00  0.00    +0.029 A 
ATOM      9  N   UNL     1       0.262  -1.910   4.668  0.00  0.00    -0.306 N 
ATOM     10  H   UNL     1      -0.660  -2.023   4.947  0.00  0.00    +0.170 HD
ATOM     11  C   UNL     1       1.350  -2.210   5.402  0.00  0.00    +0.325 A 
ATOM     12  O   UNL     1       1.330  -2.670   6.529  0.00  0.00    -0.247 OA
ATOM     13  N   UNL     1       2.463  -1.924   4.701  0.00  0.00    -0.306 N 
ATOM     14  H   UNL     1       3.375  -2.050   5.007  0.00  0.00    +0.170 HD
ENDBRANCH   2   3
BRANCH   2  15
ATOM     15  N   UNL     1       0.690  -0.478  -1.207  0.00  0.00    +0.386 N 
ATOM     16  H   UNL     1       1.608  -0.063  -1.256  0.00  0.00    -0.085 HD
ATOM     17  H   UNL     1       0.776  -1.482  -1.172  0.00  0.00    -0.085 HD
BRANCH  15  18
ATOM     18  C   UNL     1      -0.086  -0.093  -2.394  0.00  0.00    -0.039 C 
BRANCH  18  19
ATOM     19  C   UNL     1       0.620  -0.579  -3.634  0.00  0.00    -0.026 A 
ATOM     20  C   UNL     1       0.484  -1.760  -4.286  0.00  0.00    +0.024 A 
ATOM     21  C   UNL     1       1.243  -1.992  -5.417  0.00  0.00    +0.025 A 
ATOM     22  C   UNL     1       2.102  -1.032  -5.841  0.00  0.00    +0.060 A 
ATOM     23  S   UNL     1       1.846   0.254  -4.629  0.00  0.00    -0.102 S 
ATOM     24 BR   UNL     1       1.088  -3.624  -6.360  0.00  0.00    -0.050 Br
ENDBRANCH  18  19
ENDBRANCH  15  18
ENDBRANCH   2  15
TORSDOF 4
