REMARK  Name = ZINC08754266
REMARK  7 active torsions:
REMARK  status: ('A' for Active; 'I' for Inactive)
REMARK    1  A    between atoms: C_1  and  C_2
REMARK    2  A    between atoms: C_5  and  C_29
REMARK    3  A    between atoms: C_9  and  C_10
REMARK    4  A    between atoms: C_9  and  N_53
REMARK    5  A    between atoms: C_10  and  C_12
REMARK    6  A    between atoms: C_10  and  O_28
REMARK    7  A    between atoms: C_12  and  N_13
REMARK                            x       y       z     vdW  Elec       q    Type
REMARK                         _______ _______ _______ _____ _____    ______ ____
ROOT
ATOM      1  N   UNL     1      -1.195   1.422  -3.575  0.00  0.00    -0.337 N 
ATOM      2  C   UNL     1      -2.146   0.600  -4.154  0.00  0.00    +0.050 A 
ATOM      3  C   UNL     1      -2.536  -0.710  -3.892  0.00  0.00    +0.027 A 
ATOM      4  C   UNL     1      -3.539  -1.293  -4.635  0.00  0.00    +0.017 A 
ATOM      5  C   UNL     1      -4.173  -0.584  -5.644  0.00  0.00    +0.019 A 
ATOM      6  C   UNL     1      -3.804   0.717  -5.915  0.00  0.00    +0.026 A 
ATOM      7  C   UNL     1      -2.791   1.318  -5.171  0.00  0.00    +0.009 A 
ATOM      8  C   UNL     1      -2.170   2.655  -5.199  0.00  0.00    +0.009 A 
ATOM      9  C   UNL     1      -1.193   2.660  -4.193  0.00  0.00    +0.050 A 
ATOM     10  C   UNL     1      -0.435   3.809  -3.985  0.00  0.00    +0.027 A 
ATOM     11  C   UNL     1      -0.649   4.927  -4.763  0.00  0.00    +0.017 A 
ATOM     12  C   UNL     1      -1.615   4.919  -5.758  0.00  0.00    +0.019 A 
ATOM     13  C   UNL     1      -2.376   3.790  -5.979  0.00  0.00    +0.026 A 
ATOM     14 BR   UNL     1      -1.891   6.463  -6.815  0.00  0.00    -0.050 Br
ATOM     15 BR   UNL     1      -5.548  -1.403  -6.652  0.00  0.00    -0.050 Br
ENDROOT
BRANCH   1  16
ATOM     16  C   UNL     1      -0.312   1.035  -2.472  0.00  0.00    +0.151 C 
BRANCH  16  17
ATOM     17  C   UNL     1      -0.983   1.374  -1.139  0.00  0.00    +0.118 C 
BRANCH  17  18
ATOM     18  O   UNL     1      -2.159   0.578  -0.981  0.00  0.00    -0.392 OA
ATOM     19  H   UNL     1      -1.991  -0.375  -0.981  0.00  0.00    +0.210 HD
ENDBRANCH  17  18
BRANCH  17  20
ATOM     20  C   UNL     1      -0.013   1.086   0.008  0.00  0.00    -0.045 C 
BRANCH  20  28
ATOM     21  C   UNL     1      -1.984   4.607   2.820  0.00  0.00    +0.005 C 
ATOM     22  C   UNL     1      -1.729   3.105   2.683  0.00  0.00    -0.031 C 
ATOM     23  C   UNL     1      -0.936   2.609   3.895  0.00  0.00    +0.003 C 
ATOM     24  C   UNL     1      -0.633   1.118   3.722  0.00  0.00    -0.031 C 
ATOM     25  C   UNL     1       0.139   0.907   2.417  0.00  0.00    -0.076 C 
ATOM     26  C   UNL     1      -0.925   2.837   1.409  0.00  0.00    -0.076 C 
ATOM     27  C   UNL     1       0.210   0.627   4.901  0.00  0.00    +0.005 C 
ATOM     28  N   UNL     1      -0.688   1.382   1.288  0.00  0.00    +0.382 N 
ATOM     29  H   UNL     1      -1.592   0.895   1.309  0.00  0.00    -0.082 HD
ENDBRANCH  20  28
ENDBRANCH  17  20
ENDBRANCH  16  17
ENDBRANCH   1  16
TORSDOF 5
