REMARK  Name = ZINC13246014
REMARK  8 active torsions:
REMARK  status: ('A' for Active; 'I' for Inactive)
REMARK    1  A    between atoms: C_1  and  C_2
REMARK    2  A    between atoms: C_5  and  C_8
REMARK    3  A    between atoms: C_11  and  S_16
REMARK    4  A    between atoms: N_12  and  C_13
REMARK    5  A    between atoms: C_13  and  C_14
REMARK    6  A    between atoms: S_16  and  C_17
REMARK    7  A    between atoms: C_17  and  C_18
REMARK    8  A    between atoms: C_28  and  N_30
REMARK                            x       y       z     vdW  Elec       q    Type
REMARK                         _______ _______ _______ _____ _____    ______ ____
ROOT
ATOM      1  S   UNL     1       1.157   3.832   1.535  0.00  0.00    -0.077 S 
ENDROOT
BRANCH   1   5
ATOM      2  C   UNL     1      -1.498   0.967   1.452  0.00  0.00    +0.165 A 
ATOM      3  N   UNL     1      -1.904   1.706   2.458  0.00  0.00    -0.128 NA
ATOM      4  N   UNL     1      -1.117   2.711   2.609  0.00  0.00    -0.122 NA
ATOM      5  C   UNL     1      -0.157   2.671   1.712  0.00  0.00    +0.193 A 
ATOM      6  N   UNL     1      -0.368   1.563   0.942  0.00  0.00    -0.291 N 
BRANCH   2  11
ATOM      7  C   UNL     1      -3.976  -3.862  -0.460  0.00  0.00    +0.044 C 
ATOM      8  C   UNL     1      -3.327  -2.598   0.041  0.00  0.00    -0.050 A 
ATOM      9  C   UNL     1      -3.662  -2.099   1.287  0.00  0.00    +0.004 A 
ATOM     10  C   UNL     1      -3.071  -0.942   1.751  0.00  0.00    +0.012 A 
ATOM     11  C   UNL     1      -2.134  -0.274   0.961  0.00  0.00    +0.019 A 
ATOM     12  C   UNL     1      -1.805  -0.780  -0.297  0.00  0.00    +0.012 A 
ATOM     13  C   UNL     1      -2.399  -1.941  -0.748  0.00  0.00    +0.004 A 
ENDBRANCH   2  11
BRANCH   6  14
ATOM     14  C   UNL     1       0.442   1.104  -0.189  0.00  0.00    +0.250 C 
BRANCH  14  15
ATOM     15  C   UNL     1      -0.158   1.609  -1.476  0.00  0.00    +0.375 C 
ATOM     16  O   UNL     1      -1.160   2.284  -1.451  0.00  0.00    -0.244 OA
ATOM     17  O   UNL     1       0.421   1.309  -2.649  0.00  0.00    -0.244 OA
ENDBRANCH  14  15
ENDBRANCH   6  14
ENDBRANCH   1   5
BRANCH   1  18
ATOM     18  C   UNL     1       0.755   4.969   2.885  0.00  0.00    +0.173 C 
BRANCH  18  19
ATOM     19  C   UNL     1       1.775   6.078   2.928  0.00  0.00    +0.230 C 
ATOM     20  O   UNL     1       2.630   6.149   2.071  0.00  0.00    -0.274 OA
ATOM     21  N   UNL     1       1.737   6.990   3.919  0.00  0.00    -0.270 N 
ATOM     22  C   UNL     1       0.635   6.993   4.890  0.00  0.00    +0.114 C 
ATOM     23  C   UNL     1       0.178   8.446   5.077  0.00  0.00    +0.024 C 
ATOM     24  C   UNL     1       1.331   9.252   5.675  0.00  0.00    +0.038 C 
ATOM     25  C   UNL     1       2.588   9.051   4.870  0.00  0.00    -0.024 A 
ATOM     26  C   UNL     1       2.752   7.949   4.044  0.00  0.00    +0.040 A 
ATOM     27  C   UNL     1       3.924   7.795   3.315  0.00  0.00    +0.026 A 
ATOM     28  C   UNL     1       4.931   8.734   3.418  0.00  0.00    +0.034 A 
ATOM     29  C   UNL     1       4.769   9.831   4.244  0.00  0.00    +0.127 A 
ATOM     30  C   UNL     1       3.603   9.989   4.967  0.00  0.00    +0.038 A 
BRANCH  29  31
ATOM     31  N   UNL     1       5.848  10.838   4.354  0.00  0.00    +0.056 N 
ATOM     32  O   UNL     1       5.707  11.805   5.082  0.00  0.00    -0.126 OA
ATOM     33  O   UNL     1       6.877  10.701   3.717  0.00  0.00    -0.126 OA
ENDBRANCH  29  31
ENDBRANCH  18  19
ENDBRANCH   1  18
TORSDOF 7
