REMARK  Name = ZINC59286494
REMARK  10 active torsions:
REMARK  status: ('A' for Active; 'I' for Inactive)
REMARK    1  A    between atoms: C_1  and  C_2
REMARK    2  A    between atoms: C_5  and  C_36
REMARK    3  A    between atoms: N_8  and  C_10
REMARK    4  A    between atoms: C_10  and  C_11
REMARK    5  A    between atoms: C_16  and  C_17
REMARK    6  A    between atoms: C_17  and  N_18
REMARK    7  A    between atoms: C_19  and  C_21
REMARK    8  A    between atoms: C_24  and  C_26
REMARK    9  A    between atoms: C_26  and  S_27
REMARK   10  A    between atoms: S_27  and  C_30
REMARK                            x       y       z     vdW  Elec       q    Type
REMARK                         _______ _______ _______ _____ _____    ______ ____
ROOT
ATOM      1  N   UNL     1       1.208  -2.799   4.228  0.00  0.00    -0.305 N 
ATOM      2  C   UNL     1       0.805  -4.024   3.835  0.00  0.00    +0.280 C 
ATOM      3  O   UNL     1      -0.142  -4.139   3.080  0.00  0.00    -0.267 OA
ATOM      4  H   UNL     1       1.964  -2.707   4.830  0.00  0.00    +0.149 HD
ENDROOT
BRANCH   2   5
ATOM      5  C   UNL     1       1.509  -5.217   4.316  0.00  0.00    +0.189 A 
ATOM      6  C   UNL     1       1.210  -6.510   3.993  0.00  0.00    +0.055 A 
ATOM      7  C   UNL     1       2.133  -7.319   4.673  0.00  0.00    +0.047 A 
ATOM      8  C   UNL     1       2.945  -6.496   5.372  0.00  0.00    +0.127 A 
ATOM      9  O   UNL     1       2.569  -5.230   5.151  0.00  0.00    -0.453 OA
BRANCH   8  10
ATOM     10  C   UNL     1       4.088  -6.931   6.253  0.00  0.00    +0.245 C 
BRANCH  10  11
ATOM     11  S   UNL     1       5.610  -7.018   5.269  0.00  0.00    +0.004 S 
ATOM     12  O   UNL     1       5.522  -8.076   4.325  0.00  0.00    -0.169 OA
ATOM     13  O   UNL     1       6.005  -5.715   4.863  0.00  0.00    -0.169 OA
BRANCH  11  14
ATOM     14  C   UNL     1       6.854  -7.532   6.405  0.00  0.00    +0.089 A 
ATOM     15  C   UNL     1       7.573  -6.588   7.116  0.00  0.00    +0.027 A 
ATOM     16  C   UNL     1       8.550  -6.992   8.007  0.00  0.00    +0.002 A 
ATOM     17  C   UNL     1       8.808  -8.338   8.188  0.00  0.00    +0.000 A 
ATOM     18  C   UNL     1       8.088  -9.281   7.478  0.00  0.00    +0.002 A 
ATOM     19  C   UNL     1       7.109  -8.878   6.590  0.00  0.00    +0.027 A 
ENDBRANCH  11  14
ENDBRANCH  10  11
ENDBRANCH   8  10
ENDBRANCH   2   5
BRANCH   1  20
ATOM     20  C   UNL     1       0.505  -1.607   3.748  0.00  0.00    +0.140 C 
BRANCH  20  26
ATOM     21  C   UNL     1       2.363   0.068   3.842  0.00  0.00    -0.059 A 
ATOM     22  C   UNL     1       2.950   1.201   4.373  0.00  0.00    +0.002 A 
ATOM     23  C   UNL     1       2.326   1.888   5.397  0.00  0.00    +0.000 A 
ATOM     24  C   UNL     1       1.113   1.442   5.890  0.00  0.00    +0.000 A 
ATOM     25  C   UNL     1       0.526   0.309   5.358  0.00  0.00    +0.005 A 
ATOM     26  C   UNL     1       1.149  -0.375   4.331  0.00  0.00    -0.029 A 
BRANCH  21  27
ATOM     27  C   UNL     1       3.044  -0.681   2.725  0.00  0.00    -0.043 C 
BRANCH  27  33
ATOM     28  C   UNL     1       5.750   2.540   2.398  0.00  0.00    +0.005 C 
ATOM     29  C   UNL     1       4.912   2.179   1.170  0.00  0.00    -0.031 C 
ATOM     30  C   UNL     1       5.769   1.383   0.181  0.00  0.00    +0.003 C 
ATOM     31  C   UNL     1       6.200   0.068   0.838  0.00  0.00    -0.031 C 
ATOM     32  C   UNL     1       4.957  -0.706   1.281  0.00  0.00    -0.075 C 
ATOM     33  N   UNL     1       4.194   0.097   2.244  0.00  0.00    +0.383 N 
ATOM     34  C   UNL     1       3.716   1.327   1.601  0.00  0.00    -0.075 C 
ATOM     35  C   UNL     1       6.993  -0.769  -0.168  0.00  0.00    +0.005 C 
ATOM     36  H   UNL     1       4.786   0.335   3.025  0.00  0.00    -0.081 HD
ENDBRANCH  27  33
ENDBRANCH  21  27
ENDBRANCH  20  26
ENDBRANCH   1  20
TORSDOF 8
