REMARK  Name = ZINC35062330
REMARK  11 active torsions:
REMARK  status: ('A' for Active; 'I' for Inactive)
REMARK    1  A    between atoms: C_1  and  C_2
REMARK    2  A    between atoms: C_7  and  N_8
REMARK    3  A    between atoms: C_18  and  C_19
REMARK    4  A    between atoms: C_19  and  C_21
REMARK    5  A    between atoms: C_19  and  N_22
REMARK    6  A    between atoms: N_22  and  C_23
REMARK    7  A    between atoms: C_23  and  C_24
REMARK    8  A    between atoms: C_24  and  N_25
REMARK    9  A    between atoms: N_25  and  C_26
REMARK   10  A    between atoms: N_25  and  C_27
REMARK   11  A    between atoms: C_28  and  C_30
REMARK                            x       y       z     vdW  Elec       q    Type
REMARK                         _______ _______ _______ _____ _____    ______ ____
ROOT
ATOM      1  N   UNL     1       1.526  -1.303   3.200  0.00  0.00    -0.263 N 
ATOM      2  C   UNL     1       0.444  -1.452   3.999  0.00  0.00    +0.266 A 
ATOM      3  O   UNL     1       0.349  -2.393   4.766  0.00  0.00    -0.267 OA
ATOM      4  C   UNL     1      -0.612  -0.434   3.906  0.00  0.00    +0.065 A 
ATOM      5  C   UNL     1      -1.765  -0.495   4.686  0.00  0.00    +0.015 A 
ATOM      6  C   UNL     1      -2.723   0.486   4.558  0.00  0.00    +0.001 A 
ATOM      7  C   UNL     1      -2.548   1.533   3.662  0.00  0.00    +0.002 A 
ATOM      8  C   UNL     1      -1.415   1.612   2.883  0.00  0.00    +0.028 A 
ATOM      9  C   UNL     1      -0.430   0.629   2.994  0.00  0.00    +0.078 A 
ATOM     10  N   UNL     1       0.702   0.668   2.246  0.00  0.00    -0.231 NA
ATOM     11  C   UNL     1       1.620  -0.243   2.353  0.00  0.00    +0.138 A 
ENDROOT
BRANCH   1  18
ATOM     12  C   UNL     1       1.529  -3.401   1.278  0.00  0.00    +0.046 C 
ATOM     13  C   UNL     1       2.601  -3.285   2.331  0.00  0.00    -0.025 A 
ATOM     14  C   UNL     1       3.626  -4.210   2.379  0.00  0.00    +0.025 A 
ATOM     15  C   UNL     1       4.610  -4.104   3.345  0.00  0.00    +0.041 A 
ATOM     16  C   UNL     1       4.571  -3.072   4.267  0.00  0.00    +0.022 A 
ATOM     17  C   UNL     1       3.548  -2.145   4.223  0.00  0.00    +0.028 A 
ATOM     18  C   UNL     1       2.562  -2.246   3.251  0.00  0.00    +0.054 A 
ATOM     19 CL   UNL     1       5.897  -5.268   3.403  0.00  0.00    -0.084 Cl
ENDBRANCH   1  18
BRANCH  11  20
ATOM     20  C   UNL     1       2.850  -0.123   1.491  0.00  0.00    +0.139 C 
ATOM     21  C   UNL     1       2.606   0.917   0.396  0.00  0.00    +0.036 C 
BRANCH  20  22
ATOM     22  N   UNL     1       3.987   0.293   2.316  0.00  0.00    -0.293 N 
ATOM     23  C   UNL     1       3.898   1.405   3.073  0.00  0.00    +0.219 C 
ATOM     24  O   UNL     1       2.850   2.012   3.139  0.00  0.00    -0.275 OA
BRANCH  23  25
ATOM     25  C   UNL     1       5.102   1.894   3.837  0.00  0.00    +0.075 C 
ATOM     26  C   UNL     1       5.191   1.176   5.199  0.00  0.00    +0.013 C 
ATOM     27  C   UNL     1       5.702   2.268   6.171  0.00  0.00    +0.001 C 
ATOM     28  C   UNL     1       4.966   3.538   5.676  0.00  0.00    +0.001 C 
ATOM     29  C   UNL     1       4.959   3.396   4.140  0.00  0.00    +0.013 C 
ENDBRANCH  23  25
BRANCH  22  30
ATOM     30  C   UNL     1       5.219  -0.498   2.318  0.00  0.00    +0.090 C 
BRANCH  30  31
ATOM     31  C   UNL     1       6.150   0.003   1.212  0.00  0.00    -0.060 C 
BRANCH  31  32
ATOM     32  N   UNL     1       7.386  -0.791   1.215  0.00  0.00    +0.377 N 
ATOM     33  C   UNL     1       8.228  -0.390   0.079  0.00  0.00    -0.097 C 
ATOM     34  C   UNL     1       8.114  -0.560   2.470  0.00  0.00    -0.097 C 
ATOM     35  H   UNL     1       7.157  -1.770   1.134  0.00  0.00    -0.083 HD
ENDBRANCH  31  32
ENDBRANCH  30  31
ENDBRANCH  22  30
ENDBRANCH  20  22
ENDBRANCH  11  20
TORSDOF 7
