REMARK  Name = ZINC42021323
REMARK  14 active torsions:
REMARK  status: ('A' for Active; 'I' for Inactive)
REMARK    1  A    between atoms: C_1  and  C_2
REMARK    2  A    between atoms: C_2  and  O_3
REMARK    3  A    between atoms: O_3  and  C_4
REMARK    4  A    between atoms: N_6  and  C_7
REMARK    5  A    between atoms: C_7  and  C_9
REMARK    6  A    between atoms: C_7  and  C_13
REMARK    7  A    between atoms: C_9  and  C_10
REMARK    8  A    between atoms: C_10  and  C_11
REMARK    9  A    between atoms: C_10  and  C_12
REMARK   10  A    between atoms: C_13  and  N_14
REMARK   11  A    between atoms: C_15  and  C_17
REMARK   12  A    between atoms: N_19  and  C_20
REMARK   13  A    between atoms: C_24  and  C_27
REMARK   14  A    between atoms: C_25  and  C_26
REMARK                            x       y       z     vdW  Elec       q    Type
REMARK                         _______ _______ _______ _____ _____    ______ ____
ROOT
ATOM      1  N   UNL     1      -4.400  -3.550  -1.909  0.00  0.00    -0.306 N 
ATOM      2  C   UNL     1      -5.524  -3.726  -2.631  0.00  0.00    +0.299 C 
ATOM      3  O   UNL     1      -6.440  -4.382  -2.178  0.00  0.00    -0.265 OA
ATOM      4  H   UNL     1      -3.668  -3.026  -2.271  0.00  0.00    +0.149 HD
ENDROOT
BRANCH   2   5
ATOM      5  C   UNL     1      -5.643  -3.116  -3.989  0.00  0.00    +0.303 C 
ATOM      6  O   UNL     1      -4.727  -2.461  -4.442  0.00  0.00    -0.265 OA
ATOM      7  N   UNL     1      -6.767  -3.293  -4.712  0.00  0.00    -0.278 N 
ATOM      8  H   UNL     1      -7.465  -3.881  -4.385  0.00  0.00    +0.155 HD
BRANCH   7   9
ATOM      9  C   UNL     1      -6.926  -2.628  -5.930  0.00  0.00    +0.037 A 
ATOM     10  C   UNL     1      -6.241  -1.444  -6.172  0.00  0.00    +0.023 A 
ATOM     11  C   UNL     1      -6.400  -0.790  -7.378  0.00  0.00    +0.002 A 
ATOM     12  C   UNL     1      -7.240  -1.313  -8.344  0.00  0.00    +0.004 A 
ATOM     13  C   UNL     1      -7.923  -2.491  -8.107  0.00  0.00    -0.046 A 
ATOM     14  C   UNL     1      -7.764  -3.154  -6.906  0.00  0.00    -0.026 A 
ATOM     15  C   UNL     1      -8.503  -4.442  -6.651  0.00  0.00    +0.046 C 
ATOM     16  C   UNL     1      -8.838  -3.057  -9.163  0.00  0.00    +0.044 C 
ENDBRANCH   7   9
ENDBRANCH   2   5
BRANCH   1  17
ATOM     17  C   UNL     1      -4.284  -4.149  -0.577  0.00  0.00    +0.127 C 
BRANCH  17  18
ATOM     18  C   UNL     1      -2.920  -3.798   0.022  0.00  0.00    +0.093 C 
BRANCH  18  21
ATOM     19  C   UNL     1      -1.504  -1.815   0.009  0.00  0.00    +0.401 C 
ATOM     20  O   UNL     1      -0.533  -2.545   0.003  0.00  0.00    -0.226 OA
ATOM     21  N   UNL     1      -2.744  -2.344   0.018  0.00  0.00    -0.277 N 
ATOM     22  H   UNL     1      -3.520  -1.761   0.023  0.00  0.00    +0.152 HD
BRANCH  19  23
ATOM     23  O   UNL     1      -1.343  -0.478   0.005  0.00  0.00    -0.451 OA
BRANCH  23  25
ATOM     24  C   UNL     1      -0.017   1.542  -0.009  0.00  0.00    +0.048 C 
ATOM     25  C   UNL     1      -0.001   0.013  -0.006  0.00  0.00    +0.230 C 
ENDBRANCH  23  25
ENDBRANCH  19  23
ENDBRANCH  18  21
BRANCH  18  26
ATOM     26  C   UNL     1      -2.846  -4.317   1.460  0.00  0.00    +0.027 C 
BRANCH  26  27
ATOM     27  C   UNL     1      -1.442  -4.078   2.017  0.00  0.00    -0.015 C 
ATOM     28  C   UNL     1      -1.402  -4.481   3.492  0.00  0.00    +0.007 C 
ATOM     29  C   UNL     1      -0.432  -4.917   1.232  0.00  0.00    +0.007 C 
ENDBRANCH  26  27
ENDBRANCH  18  26
ENDBRANCH  17  18
ENDBRANCH   1  17
TORSDOF 9
