REMARK  Name = ZINC09495315
REMARK  3 active torsions:
REMARK  status: ('A' for Active; 'I' for Inactive)
REMARK    1  A    between atoms: C_6  and  C_7
REMARK    2  A    between atoms: C_20  and  C_22
REMARK    3  A    between atoms: C_24  and  N_29
REMARK                            x       y       z     vdW  Elec       q    Type
REMARK                         _______ _______ _______ _____ _____    ______ ____
ROOT
ATOM      1  C   UNL     1      -3.782   0.769  -0.520  0.00  0.00    +0.139 C 
ATOM      2  C   UNL     1      -5.019   0.681  -1.359  0.00  0.00    -0.000 A 
ATOM      3  C   UNL     1      -5.147  -0.476  -2.131  0.00  0.00    +0.027 A 
ATOM      4  C   UNL     1      -6.233  -0.670  -2.956  0.00  0.00    +0.041 A 
ATOM      5  C   UNL     1      -7.214   0.304  -3.026  0.00  0.00    +0.022 A 
ATOM      6  C   UNL     1      -7.097   1.442  -2.268  0.00  0.00    +0.025 A 
ATOM      7  C   UNL     1      -6.002   1.645  -1.411  0.00  0.00    +0.039 A 
ATOM      8  N   UNL     1      -6.020   2.826  -0.708  0.00  0.00    -0.284 N 
ATOM      9  C   UNL     1      -5.396   3.332   0.316  0.00  0.00    +0.235 C 
ATOM     10  O   UNL     1      -5.929   4.269   0.871  0.00  0.00    -0.274 OA
ATOM     11  C   UNL     1      -4.087   2.876   0.875  0.00  0.00    +0.205 C 
ATOM     12  N   UNL     1      -3.961   1.435   0.742  0.00  0.00    -0.278 N 
ATOM     13  C   UNL     1      -4.014   0.683   1.859  0.00  0.00    +0.249 C 
ATOM     14  O   UNL     1      -4.287   1.198   2.926  0.00  0.00    -0.270 OA
ATOM     15 CL   UNL     1      -6.368  -2.120  -3.900  0.00  0.00    -0.084 Cl
ATOM     16  H   UNL     1      -6.672   3.446  -1.070  0.00  0.00    +0.155 HD
ENDROOT
BRANCH   1  22
ATOM     17  C   UNL     1      -2.954   2.807  -1.714  0.00  0.00    +0.008 A 
ATOM     18  C   UNL     1      -1.985   3.486  -2.428  0.00  0.00    +0.038 A 
ATOM     19  C   UNL     1      -0.788   2.862  -2.736  0.00  0.00    +0.123 A 
ATOM     20  C   UNL     1      -0.563   1.558  -2.328  0.00  0.00    +0.038 A 
ATOM     21  C   UNL     1      -1.534   0.880  -1.615  0.00  0.00    +0.008 A 
ATOM     22  C   UNL     1      -2.727   1.506  -1.303  0.00  0.00    -0.022 A 
ATOM     23  F   UNL     1       0.161   3.525  -3.433  0.00  0.00    -0.205 F 
ENDBRANCH   1  22
BRANCH  13  24
ATOM     24  C   UNL     1      -3.740  -0.767   1.788  0.00  0.00    +0.057 A 
ATOM     25  C   UNL     1      -2.745  -1.252   0.936  0.00  0.00    +0.047 A 
ATOM     26  C   UNL     1      -2.494  -2.606   0.874  0.00  0.00    +0.127 A 
ATOM     27  C   UNL     1      -3.226  -3.486   1.654  0.00  0.00    +0.034 A 
ATOM     28  C   UNL     1      -4.212  -3.014   2.500  0.00  0.00    +0.023 A 
ATOM     29  C   UNL     1      -4.471  -1.659   2.576  0.00  0.00    +0.053 A 
ATOM     30 CL   UNL     1      -5.705  -1.067   3.644  0.00  0.00    -0.083 Cl
BRANCH  26  31
ATOM     31  N   UNL     1      -1.440  -3.121  -0.028  0.00  0.00    +0.056 N 
ATOM     32  O   UNL     1      -0.858  -2.361  -0.781  0.00  0.00    -0.126 OA
ATOM     33  O   UNL     1      -1.156  -4.306  -0.019  0.00  0.00    -0.126 OA
ENDBRANCH  26  31
ENDBRANCH  13  24
TORSDOF 3
