REMARK  Name = ZINC14965354
REMARK  13 active torsions:
REMARK  status: ('A' for Active; 'I' for Inactive)
REMARK    1  A    between atoms: C_1  and  C_2
REMARK    2  A    between atoms: C_2  and  C_3
REMARK    3  A    between atoms: C_2  and  C_4
REMARK    4  A    between atoms: C_2  and  C_5
REMARK    5  A    between atoms: C_10  and  C_13
REMARK    6  A    between atoms: C_13  and  C_25
REMARK    7  A    between atoms: N_16  and  C_20
REMARK    8  A    between atoms: C_20  and  C_21
REMARK    9  A    between atoms: C_21  and  C_22
REMARK   10  A    between atoms: C_22  and  N_70
REMARK   11  A    between atoms: C_23  and  N_70
REMARK   12  A    between atoms: C_24  and  N_70
REMARK   13  A    between atoms: C_25  and  C_26
REMARK                            x       y       z     vdW  Elec       q    Type
REMARK                         _______ _______ _______ _____ _____    ______ ____
ROOT
ATOM      1  C   UNL     1      -1.290   3.415  -0.758  0.00  0.00    +0.119 C 
ATOM      2  C   UNL     1      -1.212   1.908  -0.610  0.00  0.00    +0.247 C 
ATOM      3  O   UNL     1      -1.861   1.078  -1.209  0.00  0.00    -0.273 OA
ATOM      4  N   UNL     1      -0.269   1.683   0.327  0.00  0.00    -0.224 N 
ATOM      5  C   UNL     1       0.253   2.826   0.786  0.00  0.00    +0.309 C 
ATOM      6  O   UNL     1       1.121   2.880   1.635  0.00  0.00    -0.252 OA
ATOM      7  N   UNL     1      -0.291   3.914   0.202  0.00  0.00    -0.284 N 
ATOM      8  H   UNL     1      -0.069   4.841   0.378  0.00  0.00    +0.151 HD
ENDROOT
BRANCH   1  14
ATOM      9  C   UNL     1      -4.946   6.237   2.138  0.00  0.00    +0.221 C 
ATOM     10  O   UNL     1      -5.354   5.778   3.184  0.00  0.00    -0.275 OA
ATOM     11  N   UNL     1      -4.521   5.413   1.160  0.00  0.00    -0.301 N 
ATOM     12  C   UNL     1      -4.442   3.963   1.386  0.00  0.00    +0.108 C 
ATOM     13  C   UNL     1      -3.029   3.486   1.035  0.00  0.00    +0.025 C 
ATOM     14  C   UNL     1      -2.688   3.920  -0.392  0.00  0.00    +0.025 C 
ATOM     15  C   UNL     1      -2.718   5.447  -0.484  0.00  0.00    +0.025 C 
ATOM     16  C   UNL     1      -4.128   5.946  -0.151  0.00  0.00    +0.108 C 
BRANCH   9  18
ATOM     17  C   UNL     1      -5.402   8.431   3.201  0.00  0.00    +0.020 C 
ATOM     18  C   UNL     1      -4.914   7.730   1.932  0.00  0.00    +0.039 C 
ATOM     19  C   UNL     1      -3.482   8.172   1.624  0.00  0.00    +0.020 C 
ATOM     20  C   UNL     1      -5.825   8.103   0.761  0.00  0.00    +0.020 C 
ENDBRANCH   9  18
ENDBRANCH   1  14
BRANCH   4  21
ATOM     21  C   UNL     1       0.133   0.352   0.786  0.00  0.00    +0.116 C 
BRANCH  21  22
ATOM     22  C   UNL     1       1.283  -0.162  -0.082  0.00  0.00    +0.001 C 
BRANCH  22  23
ATOM     23  C   UNL     1       1.704  -1.552   0.398  0.00  0.00    -0.078 C 
BRANCH  23  26
ATOM     24  C   UNL     1       4.015  -1.230  -0.247  0.00  0.00    -0.097 C 
ATOM     25  C   UNL     1       3.081  -3.462  -0.164  0.00  0.00    -0.097 C 
ATOM     26  N   UNL     1       2.800  -2.043  -0.464  0.00  0.00    +0.376 N 
ATOM     27  H   UNL     1       2.515  -1.959  -1.447  0.00  0.00    -0.083 HD
ENDBRANCH  23  26
ENDBRANCH  22  23
ENDBRANCH  21  22
ENDBRANCH   4  21
BRANCH   1  28
ATOM     28  C   UNL     1      -0.924   3.835  -2.183  0.00  0.00    +0.070 C 
BRANCH  28  29
ATOM     29  C   UNL     1       0.454   3.326  -2.518  0.00  0.00    -0.042 A 
ATOM     30  C   UNL     1       0.609   2.078  -3.094  0.00  0.00    +0.004 A 
ATOM     31  C   UNL     1       1.873   1.613  -3.407  0.00  0.00    +0.003 A 
ATOM     32  C   UNL     1       2.982   2.394  -3.145  0.00  0.00    +0.038 A 
ATOM     33  C   UNL     1       2.828   3.644  -2.569  0.00  0.00    +0.124 A 
ATOM     34  C   UNL     1       1.562   4.109  -2.256  0.00  0.00    +0.042 A 
ATOM     35  F   UNL     1       3.912   4.408  -2.313  0.00  0.00    -0.205 F 
ENDBRANCH  28  29
ENDBRANCH   1  28
TORSDOF 8
