REMARK  Name = ZINC00965022
REMARK  14 active torsions:
REMARK  status: ('A' for Active; 'I' for Inactive)
REMARK    1  A    between atoms: C_1  and  C_2
REMARK    2  A    between atoms: C_2  and  O_3
REMARK    3  A    between atoms: O_3  and  C_4
REMARK    4  A    between atoms: C_4  and  C_6
REMARK    5  A    between atoms: C_13  and  C_15
REMARK    6  A    between atoms: C_18  and  C_20
REMARK    7  A    between atoms: C_20  and  N_21
REMARK    8  A    between atoms: N_21  and  C_22
REMARK    9  A    between atoms: C_22  and  C_23
REMARK   10  A    between atoms: C_22  and  C_24
REMARK   11  A    between atoms: N_27  and  C_28
REMARK   12  A    between atoms: C_31  and  C_34
REMARK   13  A    between atoms: C_34  and  C_35
REMARK   14  A    between atoms: C_34  and  C_36
REMARK                            x       y       z     vdW  Elec       q    Type
REMARK                         _______ _______ _______ _____ _____    ______ ____
ROOT
ATOM      1  C   UNL     1       2.985  -0.366  -4.850  0.00  0.00    +0.133 A 
ATOM      2  C   UNL     1       1.834  -0.233  -5.583  0.00  0.00    +0.080 A 
ATOM      3  S   UNL     1       0.619  -0.426  -4.360  0.00  0.00    -0.078 S 
ATOM      4  C   UNL     1       1.670  -0.662  -3.002  0.00  0.00    +0.096 A 
ATOM      5  N   UNL     1       2.860  -0.579  -3.539  0.00  0.00    -0.238 NA
ENDROOT
BRANCH   1  12
ATOM      6  C   UNL     1       7.511  -1.759  -5.392  0.00  0.00    +0.115 C 
ATOM      7  C   UNL     1       7.509  -2.373  -3.990  0.00  0.00    +0.018 C 
ATOM      8  C   UNL     1       6.068  -2.649  -3.555  0.00  0.00    +0.020 C 
ATOM      9  C   UNL     1       5.291  -1.325  -3.504  0.00  0.00    +0.108 C 
ATOM     10  N   UNL     1       5.410  -0.663  -4.810  0.00  0.00    -0.295 N 
ATOM     11  C   UNL     1       6.751  -0.429  -5.364  0.00  0.00    +0.122 C 
ATOM     12  C   UNL     1       4.311  -0.272  -5.484  0.00  0.00    +0.265 C 
ATOM     13  O   UNL     1       4.413   0.159  -6.617  0.00  0.00    -0.268 OA
BRANCH   6  14
ATOM     14  C   UNL     1       8.932  -1.516  -5.833  0.00  0.00    +0.312 C 
ATOM     15  O   UNL     1       9.849  -1.807  -5.103  0.00  0.00    -0.250 OA
BRANCH  14  16
ATOM     16  O   UNL     1       9.178  -0.977  -7.038  0.00  0.00    -0.465 OA
BRANCH  16  18
ATOM     17  C   UNL     1      10.650  -0.154  -8.794  0.00  0.00    +0.048 C 
ATOM     18  C   UNL     1      10.570  -0.772  -7.396  0.00  0.00    +0.229 C 
ENDBRANCH  16  18
ENDBRANCH  14  16
ENDBRANCH   6  14
ENDBRANCH   1  12
BRANCH   4  19
ATOM     19  C   UNL     1       1.304  -0.899  -1.559  0.00  0.00    +0.172 C 
BRANCH  19  20
ATOM     20  N   UNL     1       1.199   0.387  -0.865  0.00  0.00    -0.277 N 
ATOM     21  C   UNL     1       0.018   1.035  -0.823  0.00  0.00    +0.307 C 
ATOM     22  O   UNL     1      -0.980   0.511  -1.281  0.00  0.00    -0.252 OA
ATOM     23  N   UNL     1      -0.058   2.264  -0.275  0.00  0.00    -0.269 N 
ATOM     24  H   UNL     1       0.725   2.658   0.141  0.00  0.00    +0.156 HD
BRANCH  23  25
ATOM     25  C   UNL     1      -1.263   2.973  -0.310  0.00  0.00    +0.035 A 
ATOM     26  C   UNL     1      -2.470   2.304  -0.154  0.00  0.00    +0.023 A 
ATOM     27  C   UNL     1      -3.658   3.007  -0.185  0.00  0.00    +0.006 A 
ATOM     28  C   UNL     1      -3.647   4.376  -0.382  0.00  0.00    -0.045 A 
ATOM     29  C   UNL     1      -2.448   5.045  -0.543  0.00  0.00    +0.006 A 
ATOM     30  C   UNL     1      -1.256   4.348  -0.508  0.00  0.00    +0.023 A 
BRANCH  28  31
ATOM     31  C   UNL     1      -4.946   5.140  -0.420  0.00  0.00    +0.013 C 
ATOM     32  C   UNL     1      -5.817   4.608  -1.560  0.00  0.00    +0.012 C 
ATOM     33  C   UNL     1      -5.682   4.962   0.909  0.00  0.00    +0.012 C 
ENDBRANCH  28  31
ENDBRANCH  23  25
BRANCH  20  34
ATOM     34  C   UNL     1       2.376   0.968  -0.216  0.00  0.00    +0.072 C 
ATOM     35  C   UNL     1       2.799   0.085   0.960  0.00  0.00    +0.028 C 
ATOM     36  C   UNL     1       3.523   1.057  -1.225  0.00  0.00    +0.028 C 
ENDBRANCH  20  34
ENDBRANCH  19  20
ENDBRANCH   4  19
TORSDOF 9
