REMARK  Name = ZINC67374949
REMARK  5 active torsions:
REMARK  status: ('A' for Active; 'I' for Inactive)
REMARK    1  A    between atoms: C_3  and  C_8
REMARK    2  A    between atoms: C_8  and  C_9
REMARK    3  A    between atoms: C_11  and  C_14
REMARK    4  A    between atoms: C_14  and  N_15
REMARK    5  A    between atoms: C_20  and  C_22
REMARK                            x       y       z     vdW  Elec       q    Type
REMARK                         _______ _______ _______ _____ _____    ______ ____
ROOT
ATOM      1  C   UNL     1       4.296   2.744   1.314  0.00  0.00    +0.176 A 
ATOM      2  N   UNL     1       3.968   3.748   2.135  0.00  0.00    -0.197 NA
ATOM      3  C   UNL     1       4.475   3.542   3.319  0.00  0.00    +0.211 A 
ATOM      4  O   UNL     1       5.150   2.386   3.291  0.00  0.00    -0.340 OA
ATOM      5  N   UNL     1       5.015   1.879   1.971  0.00  0.00    -0.061 NA
ENDROOT
BRANCH   1   6
ATOM      6  C   UNL     1       3.894   2.629  -0.134  0.00  0.00    +0.114 C 
BRANCH   6   9
ATOM      7  C   UNL     1       0.186   1.938  -0.292  0.00  0.00    +0.001 A 
ATOM      8  C   UNL     1       1.393   2.607  -0.200  0.00  0.00    +0.004 A 
ATOM      9  C   UNL     1       2.579   1.900  -0.234  0.00  0.00    -0.039 A 
ATOM     10  C   UNL     1       2.561   0.523  -0.359  0.00  0.00    +0.019 A 
ATOM     11  C   UNL     1       1.354  -0.146  -0.451  0.00  0.00    +0.018 A 
ATOM     12  C   UNL     1       0.166   0.562  -0.417  0.00  0.00    +0.015 A 
ATOM     13 BR   UNL     1       1.328  -2.029  -0.624  0.00  0.00    -0.050 Br
ENDBRANCH   6   9
ENDBRANCH   1   6
BRANCH   3  14
ATOM     14  C   UNL     1       4.325   4.448   4.514  0.00  0.00    +0.023 C 
BRANCH  14  15
ATOM     15  N   UNL     1       3.129   4.063   5.274  0.00  0.00    +0.393 N 
ATOM     16  C   UNL     1       3.320   2.721   5.836  0.00  0.00    -0.077 C 
ATOM     17  C   UNL     1       2.046   2.282   6.561  0.00  0.00    -0.019 C 
ATOM     18  C   UNL     1       1.741   3.270   7.690  0.00  0.00    -0.003 C 
ATOM     19  C   UNL     1       1.618   4.679   7.102  0.00  0.00    -0.006 C 
ATOM     20  C   UNL     1       2.908   5.029   6.357  0.00  0.00    +0.020 C 
ATOM     21  H   UNL     1       2.329   4.058   4.660  0.00  0.00    -0.080 HD
BRANCH  20  22
ATOM     22  C   UNL     1       2.791   6.415   5.777  0.00  0.00    +0.197 C 
ATOM     23  O   UNL     1       2.369   6.567   4.650  0.00  0.00    -0.278 OA
ATOM     24  N   UNL     1       3.157   7.486   6.510  0.00  0.00    -0.331 N 
ATOM     25  H   UNL     1       3.495   7.364   7.411  0.00  0.00    +0.145 HD
ATOM     26  H   UNL     1       3.082   8.378   6.136  0.00  0.00    +0.145 HD
ENDBRANCH  20  22
ENDBRANCH  14  15
ENDBRANCH   3  14
TORSDOF 5
