REMARK  Name = ZINC08690191
REMARK  3 active torsions:
REMARK  status: ('A' for Active; 'I' for Inactive)
REMARK    1  A    between atoms: C_1  and  N_2
REMARK    2  A    between atoms: C_8  and  N_12
REMARK    3  A    between atoms: N_12  and  C_13
REMARK                            x       y       z     vdW  Elec       q    Type
REMARK                         _______ _______ _______ _____ _____    ______ ____
ROOT
ATOM      1  C   UNL     1      -0.018   1.461   0.010  0.00  0.00    +0.143 C 
ATOM      2  N   UNL     1       0.002  -0.004   0.002  0.00  0.00    -0.222 N 
ATOM      3  C   UNL     1      -1.165  -0.683   0.004  0.00  0.00    +0.279 C 
ATOM      4  O   UNL     1      -2.232  -0.101   0.012  0.00  0.00    -0.268 OA
ATOM      5  C   UNL     1      -1.099  -2.168  -0.004  0.00  0.00    +0.208 C 
ATOM      6  N   UNL     1      -2.178  -2.901  -0.004  0.00  0.00    -0.022 NA
ATOM      7  O   UNL     1      -2.075  -4.314  -0.012  0.00  0.00    -0.143 OA
ATOM      8  C   UNL     1       0.255  -2.777  -0.014  0.00  0.00    +0.166 C 
ATOM      9  N   UNL     1       1.302  -1.973  -0.015  0.00  0.00    -0.144 NA
ATOM     10  C   UNL     1       1.179  -0.646  -0.013  0.00  0.00    +0.334 C 
ATOM     11  O   UNL     1       2.196   0.023  -0.019  0.00  0.00    -0.250 OA
ENDROOT
BRANCH   8  12
ATOM     12  N   UNL     1       0.413  -4.134  -0.022  0.00  0.00    -0.229 NA
BRANCH  12  13
ATOM     13  C   UNL     1       1.758  -4.715  -0.032  0.00  0.00    +0.096 C 
ATOM     14  C   UNL     1       2.506  -4.248  -1.282  0.00  0.00    +0.024 C 
ATOM     15  C   UNL     1       3.911  -4.855  -1.292  0.00  0.00    +0.002 C 
ATOM     16  C   UNL     1       3.807  -6.381  -1.300  0.00  0.00    +0.000 C 
ATOM     17  C   UNL     1       3.059  -6.848  -0.049  0.00  0.00    +0.002 C 
ATOM     18  C   UNL     1       1.655  -6.241  -0.039  0.00  0.00    +0.024 C 
ENDBRANCH  12  13
ENDBRANCH   8  12
TORSDOF 2
