REMARK  Name = ZINC01210079
REMARK  10 active torsions:
REMARK  status: ('A' for Active; 'I' for Inactive)
REMARK    1  A    between atoms: C_1  and  O_2
REMARK    2  A    between atoms: O_2  and  C_3
REMARK    3  A    between atoms: C_3  and  C_5
REMARK    4  A    between atoms: C_8  and  C_11
REMARK    5  A    between atoms: N_12  and  N_13
REMARK    6  A    between atoms: C_14  and  C_16
REMARK    7  A    between atoms: C_16  and  S_17
REMARK    8  A    between atoms: S_17  and  C_18
REMARK    9  A    between atoms: C_21  and  C_29
REMARK   10  A    between atoms: N_22  and  C_23
REMARK                            x       y       z     vdW  Elec       q    Type
REMARK                         _______ _______ _______ _____ _____    ______ ____
ROOT
ATOM      1  S   UNL     1      -7.267   9.849   0.092  0.00  0.00    -0.076 S 
ENDROOT
BRANCH   1   2
ATOM      2  C   UNL     1      -8.926  10.444   0.103  0.00  0.00    +0.197 A 
ATOM      3  N   UNL     1     -10.018   9.711   0.105  0.00  0.00    -0.122 NA
ATOM      4  N   UNL     1     -11.057  10.467   0.114  0.00  0.00    -0.128 NA
ATOM      5  C   UNL     1     -10.695  11.729   0.119  0.00  0.00    +0.169 A 
ATOM      6  N   UNL     1      -9.317  11.754   0.118  0.00  0.00    -0.270 N 
BRANCH   6   7
ATOM      7  C   UNL     1      -8.490  12.886   0.128  0.00  0.00    +0.051 A 
ATOM      8  C   UNL     1      -8.490  13.738   1.224  0.00  0.00    +0.026 A 
ATOM      9  C   UNL     1      -7.670  14.850   1.232  0.00  0.00    +0.002 A 
ATOM     10  C   UNL     1      -6.858  15.120   0.146  0.00  0.00    +0.000 A 
ATOM     11  C   UNL     1      -6.859  14.275  -0.949  0.00  0.00    +0.002 A 
ATOM     12  C   UNL     1      -7.673  13.159  -0.961  0.00  0.00    +0.026 A 
ENDBRANCH   6   7
BRANCH   5  13
ATOM     13  C   UNL     1     -11.595  12.901   0.130  0.00  0.00    +0.022 A 
ATOM     14  C   UNL     1     -11.113  14.181  -0.171  0.00  0.00    +0.031 A 
ATOM     15  C   UNL     1     -11.989  15.246  -0.154  0.00  0.00    +0.111 A 
ATOM     16  N   UNL     1     -13.261  15.072   0.150  0.00  0.00    -0.263 NA
ATOM     17  C   UNL     1     -13.755  13.884   0.444  0.00  0.00    +0.111 A 
ATOM     18  C   UNL     1     -12.952  12.764   0.446  0.00  0.00    +0.031 A 
ENDBRANCH   5  13
ENDBRANCH   1   2
BRANCH   1  19
ATOM     19  C   UNL     1      -7.574   8.065   0.084  0.00  0.00    +0.174 C 
BRANCH  19  21
ATOM     20  N   UNL     1      -6.240   5.982   0.066  0.00  0.00    -0.206 N 
ATOM     21  C   UNL     1      -6.259   7.330   0.073  0.00  0.00    +0.242 C 
ATOM     22  O   UNL     1      -5.217   7.950   0.072  0.00  0.00    -0.273 OA
ATOM     23  H   UNL     1      -7.186   5.419   0.067  0.00  0.00    +0.177 HD
BRANCH  20  25
ATOM     24  C   UNL     1      -5.000   4.000   0.048  0.00  0.00    +0.138 C 
ATOM     25  N   UNL     1      -5.018   5.298   0.056  0.00  0.00    -0.188 NA
BRANCH  24  29
ATOM     26  C   UNL     1      -1.302   1.931   0.019  0.00  0.00    +0.059 A 
ATOM     27  C   UNL     1      -1.321   3.329   0.032  0.00  0.00    +0.015 A 
ATOM     28  C   UNL     1      -2.513   3.996   0.037  0.00  0.00    +0.010 A 
ATOM     29  C   UNL     1      -3.715   3.280   0.038  0.00  0.00    -0.005 A 
ATOM     30  C   UNL     1      -3.695   1.882   0.030  0.00  0.00    +0.010 A 
ATOM     31  C   UNL     1      -2.503   1.215   0.021  0.00  0.00    +0.015 A 
BRANCH  26  32
ATOM     32  C   UNL     1      -0.014   1.211   0.009  0.00  0.00    +0.339 C 
ATOM     33  O   UNL     1       0.002  -0.004   0.002  0.00  0.00    -0.245 OA
BRANCH  32  35
ATOM     34  C   UNL     1       2.372   1.126  -0.015  0.00  0.00    +0.280 C 
ATOM     35  O   UNL     1       1.143   1.900   0.001  0.00  0.00    -0.464 OA
ENDBRANCH  32  35
ENDBRANCH  26  32
ENDBRANCH  24  29
ENDBRANCH  20  25
ENDBRANCH  19  21
ENDBRANCH   1  19
TORSDOF 9
