REMARK  Name = ZINC63804417
REMARK  11 active torsions:
REMARK  status: ('A' for Active; 'I' for Inactive)
REMARK    1  A    between atoms: C_1  and  N_2
REMARK    2  A    between atoms: N_2  and  C_3
REMARK    3  A    between atoms: N_2  and  C_4
REMARK    4  A    between atoms: C_4  and  C_5
REMARK    5  A    between atoms: C_4  and  C_21
REMARK    6  A    between atoms: C_5  and  N_6
REMARK    7  A    between atoms: C_7  and  C_9
REMARK    8  A    between atoms: C_11  and  S_17
REMARK    9  A    between atoms: C_14  and  O_15
REMARK   10  A    between atoms: O_15  and  C_16
REMARK   11  A    between atoms: S_17  and  N_20
REMARK                            x       y       z     vdW  Elec       q    Type
REMARK                         _______ _______ _______ _____ _____    ______ ____
ROOT
ATOM      1  N   UNL     1      -0.871  -2.414   1.123  0.00  0.00    -0.313 N 
ATOM      2  C   UNL     1      -0.780  -3.742   1.332  0.00  0.00    +0.248 C 
ATOM      3  O   UNL     1      -1.309  -4.517   0.558  0.00  0.00    -0.270 OA
ATOM      4  H   UNL     1      -0.449  -1.796   1.740  0.00  0.00    +0.149 HD
ENDROOT
BRANCH   2   5
ATOM      5  C   UNL     1      -0.039  -4.257   2.499  0.00  0.00    +0.080 A 
ATOM      6  C   UNL     1       0.566  -3.370   3.394  0.00  0.00    +0.045 A 
ATOM      7  C   UNL     1       1.256  -3.857   4.483  0.00  0.00    +0.106 A 
ATOM      8  C   UNL     1       1.354  -5.222   4.695  0.00  0.00    +0.032 A 
ATOM      9  C   UNL     1       0.761  -6.109   3.819  0.00  0.00    +0.048 A 
ATOM     10  C   UNL     1       0.058  -5.637   2.720  0.00  0.00    +0.132 A 
BRANCH   7  11
ATOM     11  S   UNL     1       2.018  -2.737   5.610  0.00  0.00    +0.056 S 
ATOM     12  O   UNL     1       3.067  -3.454   6.247  0.00  0.00    -0.153 OA
ATOM     13  O   UNL     1       2.246  -1.532   4.893  0.00  0.00    -0.153 OA
BRANCH  11  14
ATOM     14  N   UNL     1       0.903  -2.387   6.782  0.00  0.00    -0.204 NA
ATOM     15  H   UNL     1       1.196  -2.173   7.682  0.00  0.00    +0.144 HD
ATOM     16  H   UNL     1      -0.044  -2.397   6.570  0.00  0.00    +0.144 HD
ENDBRANCH  11  14
ENDBRANCH   7  11
BRANCH  10  17
ATOM     17  O   UNL     1      -0.529  -6.507   1.862  0.00  0.00    -0.494 OA
ATOM     18  C   UNL     1      -0.388  -7.900   2.151  0.00  0.00    +0.277 C 
ENDBRANCH  10  17
ENDBRANCH   2   5
BRANCH   1  19
ATOM     19  C   UNL     1      -1.607  -1.903  -0.036  0.00  0.00    +0.089 C 
BRANCH  19  20
ATOM     20  C   UNL     1      -1.399  -0.391  -0.146  0.00  0.00    -0.049 C 
BRANCH  20  21
ATOM     21  C   UNL     1      -2.353   0.179  -1.198  0.00  0.00    -0.023 C 
ATOM     22  C   UNL     1      -2.068   1.670  -1.390  0.00  0.00    +0.002 C 
ATOM     23  C   UNL     1      -3.021   2.240  -2.442  0.00  0.00    +0.000 C 
ATOM     24  C   UNL     1      -4.466   2.053  -1.975  0.00  0.00    +0.000 C 
ATOM     25  C   UNL     1      -4.751   0.562  -1.783  0.00  0.00    +0.000 C 
ATOM     26  C   UNL     1      -3.798  -0.008  -0.731  0.00  0.00    +0.002 C 
ENDBRANCH  20  21
BRANCH  20  28
ATOM     27  C   UNL     1       0.903  -0.659   0.470  0.00  0.00    -0.096 C 
ATOM     28  N   UNL     1      -0.012  -0.115  -0.542  0.00  0.00    +0.379 N 
ATOM     29  C   UNL     1       0.262  -0.747  -1.840  0.00  0.00    -0.096 C 
ATOM     30  H   UNL     1       0.124   0.882  -0.618  0.00  0.00    -0.082 HD
ENDBRANCH  20  28
ENDBRANCH  19  20
ENDBRANCH   1  19
TORSDOF 8
