REMARK  Name = ZINC08957793
REMARK  17 active torsions:
REMARK  status: ('A' for Active; 'I' for Inactive)
REMARK    1  A    between atoms: C_1  and  C_2
REMARK    2  A    between atoms: C_2  and  O_3
REMARK    3  A    between atoms: O_3  and  C_4
REMARK    4  A    between atoms: N_10  and  C_34
REMARK    5  A    between atoms: N_12  and  C_13
REMARK    6  A    between atoms: C_13  and  C_15
REMARK    7  A    between atoms: C_18  and  S_21
REMARK    8  A    between atoms: S_21  and  N_24
REMARK    9  A    between atoms: N_24  and  C_25
REMARK   10  A    between atoms: N_24  and  C_29
REMARK   11  A    between atoms: C_25  and  C_26
REMARK   12  A    between atoms: C_26  and  C_27
REMARK   13  A    between atoms: C_26  and  C_28
REMARK   14  A    between atoms: C_29  and  C_30
REMARK   15  A    between atoms: C_30  and  C_31
REMARK   16  A    between atoms: C_30  and  C_32
REMARK   17  A    between atoms: C_34  and  C_35
REMARK                            x       y       z     vdW  Elec       q    Type
REMARK                         _______ _______ _______ _____ _____    ______ ____
ROOT
ATOM      1  C   UNL     1      -1.578   0.729  -0.405  0.00  0.00    +0.269 C 
ATOM      2  O   UNL     1      -0.734  -0.126  -0.610  0.00  0.00    -0.268 OA
ENDROOT
BRANCH   1  11
ATOM      3  C   UNL     1      -5.823  -3.547  -0.207  0.00  0.00    +0.145 A 
ATOM      4  C   UNL     1      -5.814  -4.920  -0.342  0.00  0.00    +0.048 A 
ATOM      5  C   UNL     1      -4.636  -5.609  -0.579  0.00  0.00    +0.005 A 
ATOM      6  C   UNL     1      -3.450  -4.905  -0.681  0.00  0.00    +0.017 A 
ATOM      7  C   UNL     1      -3.455  -3.536  -0.547  0.00  0.00    +0.042 A 
ATOM      8  C   UNL     1      -4.629  -2.808  -0.307  0.00  0.00    +0.101 A 
ATOM      9  N   UNL     1      -4.454  -1.439  -0.200  0.00  0.00    -0.307 N 
ATOM     10  C   UNL     1      -3.213  -0.899  -0.327  0.00  0.00    +0.168 A 
ATOM     11  N   UNL     1      -2.859   0.380  -0.254  0.00  0.00    -0.152 NA
ATOM     12  S   UNL     1      -2.203  -2.279  -0.614  0.00  0.00    -0.052 S 
BRANCH   3  13
ATOM     13  O   UNL     1      -6.997  -2.901   0.025  0.00  0.00    -0.490 OA
BRANCH  13  15
ATOM     14  C   UNL     1      -9.386  -2.811   0.379  0.00  0.00    +0.048 C 
ATOM     15  C   UNL     1      -8.173  -3.707   0.117  0.00  0.00    +0.226 C 
ENDBRANCH  13  15
ENDBRANCH   3  13
BRANCH   9  16
ATOM     16  C   UNL     1      -5.608  -0.572   0.051  0.00  0.00    +0.212 C 
BRANCH  16  17
ATOM     17  C   UNL     1      -6.191  -0.149  -1.233  0.00  0.00    -0.084 C 
ATOM     18  C   UNL     1      -6.657   0.189  -2.257  0.00  0.00    +0.005 C 
ENDBRANCH  16  17
ENDBRANCH   9  16
ENDBRANCH   1  11
BRANCH   1  19
ATOM     19  C   UNL     1      -1.184   2.154  -0.323  0.00  0.00    +0.039 A 
ATOM     20  C   UNL     1      -2.148   3.135  -0.095  0.00  0.00    +0.015 A 
ATOM     21  C   UNL     1      -1.774   4.461  -0.015  0.00  0.00    +0.029 A 
ATOM     22  C   UNL     1      -0.447   4.819  -0.172  0.00  0.00    +0.106 A 
ATOM     23  C   UNL     1       0.513   3.851  -0.404  0.00  0.00    +0.029 A 
ATOM     24  C   UNL     1       0.152   2.521  -0.481  0.00  0.00    +0.015 A 
BRANCH  22  25
ATOM     25  S   UNL     1       0.021   6.515  -0.075  0.00  0.00    +0.061 S 
ATOM     26  O   UNL     1      -0.979   7.170   0.692  0.00  0.00    -0.153 OA
ATOM     27  O   UNL     1       1.395   6.536   0.287  0.00  0.00    -0.153 OA
BRANCH  25  28
ATOM     28  N   UNL     1      -0.073   7.137  -1.607  0.00  0.00    -0.176 NA
BRANCH  28  29
ATOM     29  C   UNL     1      -1.325   7.734  -2.079  0.00  0.00    +0.112 C 
BRANCH  29  30
ATOM     30  C   UNL     1      -1.297   9.243  -1.824  0.00  0.00    -0.001 C 
ATOM     31  C   UNL     1      -0.218   9.888  -2.695  0.00  0.00    +0.008 C 
ATOM     32  C   UNL     1      -2.660   9.844  -2.173  0.00  0.00    +0.008 C 
ENDBRANCH  29  30
ENDBRANCH  28  29
BRANCH  28  33
ATOM     33  C   UNL     1       1.095   7.089  -2.491  0.00  0.00    +0.112 C 
BRANCH  33  34
ATOM     34  C   UNL     1       1.022   5.835  -3.364  0.00  0.00    -0.001 C 
ATOM     35  C   UNL     1      -0.179   5.938  -4.306  0.00  0.00    +0.008 C 
ATOM     36  C   UNL     1       2.307   5.712  -4.187  0.00  0.00    +0.008 C 
ENDBRANCH  33  34
ENDBRANCH  28  33
ENDBRANCH  25  28
ENDBRANCH  22  25
ENDBRANCH   1  19
TORSDOF 12
