REMARK  Name = ZINC03041064
REMARK  10 active torsions:
REMARK  status: ('A' for Active; 'I' for Inactive)
REMARK    1  A    between atoms: C_1  and  C_2
REMARK    2  A    between atoms: C_4  and  C_34
REMARK    3  A    between atoms: C_5  and  C_9
REMARK    4  A    between atoms: C_6  and  C_8
REMARK    5  A    between atoms: C_9  and  C_10
REMARK    6  A    between atoms: C_11  and  C_33
REMARK    7  A    between atoms: C_14  and  C_20
REMARK    8  A    between atoms: C_18  and  C_19
REMARK    9  A    between atoms: N_22  and  C_23
REMARK   10  A    between atoms: C_23  and  C_24
REMARK                            x       y       z     vdW  Elec       q    Type
REMARK                         _______ _______ _______ _____ _____    ______ ____
ROOT
ATOM      1  C   UNL     1       0.710  -1.865  -1.266  0.00  0.00    -0.001 A 
ATOM      2  C   UNL     1      -0.378  -1.842  -2.147  0.00  0.00    +0.046 A 
ATOM      3  N   UNL     1      -0.644  -2.891  -2.893  0.00  0.00    -0.232 NA
ATOM      4  C   UNL     1       0.104  -3.992  -2.818  0.00  0.00    +0.168 A 
ATOM      5  C   UNL     1       0.042  -5.232  -3.482  0.00  0.00    +0.100 A 
ATOM      6  C   UNL     1       1.103  -6.013  -2.991  0.00  0.00    +0.150 A 
ATOM      7  N   UNL     1       1.761  -5.317  -2.102  0.00  0.00    -0.172 NA
ATOM      8  N   UNL     1       1.171  -4.056  -1.967  0.00  0.00    -0.218 N 
ATOM      9  C   UNL     1       1.476  -2.982  -1.184  0.00  0.00    +0.047 A 
ATOM     10  C   UNL     1       2.649  -3.035  -0.239  0.00  0.00    +0.066 C 
ATOM     11  C   UNL     1      -1.241  -0.610  -2.244  0.00  0.00    +0.066 C 
ENDROOT
BRANCH   5  12
ATOM     12  C   UNL     1      -0.941  -5.632  -4.493  0.00  0.00    +0.249 C 
ATOM     13  O   UNL     1      -1.815  -4.856  -4.832  0.00  0.00    -0.270 OA
ATOM     14  N   UNL     1      -0.877  -6.859  -5.047  0.00  0.00    -0.307 N 
ATOM     15  H   UNL     1      -0.087  -7.560  -4.741  0.00  0.00    +0.149 HD
BRANCH  14  16
ATOM     16  C   UNL     1      -1.860  -7.258  -6.058  0.00  0.00    +0.145 C 
BRANCH  16  17
ATOM     17  C   UNL     1      -1.569  -8.665  -6.513  0.00  0.00    +0.040 A 
ATOM     18  C   UNL     1      -0.726  -8.884  -7.589  0.00  0.00    +0.134 A 
ATOM     19  C   UNL     1      -0.455 -10.176  -8.004  0.00  0.00    +0.077 A 
ATOM     20  C   UNL     1      -1.035 -11.250  -7.350  0.00  0.00    +0.129 A 
ATOM     21  C   UNL     1      -1.882 -11.030  -6.277  0.00  0.00    +0.077 A 
ATOM     22  C   UNL     1      -2.149  -9.738  -5.859  0.00  0.00    +0.134 A 
ATOM     23  F   UNL     1      -2.976  -9.524  -4.812  0.00  0.00    -0.205 F 
ATOM     24  F   UNL     1      -0.774 -12.511  -7.758  0.00  0.00    -0.205 F 
ATOM     25  F   UNL     1      -0.164  -7.836  -8.231  0.00  0.00    -0.205 F 
ENDBRANCH  16  17
ENDBRANCH  14  16
ENDBRANCH   5  12
BRANCH   1  26
ATOM     26  C   UNL     1       1.023  -0.663  -0.412  0.00  0.00    +0.074 C 
BRANCH  26  31
ATOM     27  C   UNL     1       6.366   1.196  -1.589  0.00  0.00    +0.044 C 
ATOM     28  C   UNL     1       4.973   0.712  -1.282  0.00  0.00    -0.050 A 
ATOM     29  C   UNL     1       3.991   0.771  -2.253  0.00  0.00    +0.007 A 
ATOM     30  C   UNL     1       2.712   0.327  -1.972  0.00  0.00    -0.046 A 
ATOM     31  C   UNL     1       2.416  -0.178  -0.719  0.00  0.00    -0.037 A 
ATOM     32  C   UNL     1       3.398  -0.238   0.252  0.00  0.00    -0.046 A 
ATOM     33  C   UNL     1       4.677   0.207  -0.030  0.00  0.00    +0.007 A 
ATOM     34  C   UNL     1       3.075  -0.787   1.618  0.00  0.00    +0.044 C 
ATOM     35  C   UNL     1       1.642   0.392  -3.030  0.00  0.00    +0.044 C 
ENDBRANCH  26  31
ENDBRANCH   1  26
TORSDOF 5
