REMARK  Name = ZINC39771522
REMARK  7 active torsions:
REMARK  status: ('A' for Active; 'I' for Inactive)
REMARK    1  A    between atoms: C_1  and  C_2
REMARK    2  A    between atoms: C_4  and  C_24
REMARK    3  A    between atoms: C_6  and  N_8
REMARK    4  A    between atoms: C_9  and  C_11
REMARK    5  A    between atoms: C_12  and  C_23
REMARK    6  A    between atoms: C_17  and  C_21
REMARK    7  A    between atoms: C_17  and  C_22
REMARK                            x       y       z     vdW  Elec       q    Type
REMARK                         _______ _______ _______ _____ _____    ______ ____
ROOT
ATOM      1  C   UNL     1       0.274  -2.880   4.819  0.00  0.00    +0.193 A 
ATOM      2  C   UNL     1       0.375  -2.327   6.063  0.00  0.00    +0.011 A 
ATOM      3  C   UNL     1       0.474  -3.400   6.961  0.00  0.00    +0.062 A 
ATOM      4  C   UNL     1       0.430  -4.570   6.210  0.00  0.00    +0.117 A 
ATOM      5  O   UNL     1       0.302  -4.228   4.935  0.00  0.00    -0.454 OA
ATOM      6  C   UNL     1       0.517  -5.942   6.828  0.00  0.00    +0.082 C 
ATOM      7  C   UNL     1       1.149  -5.831   8.219  0.00  0.00    -0.021 C 
ATOM      8  C   UNL     1       0.411  -4.792   9.068  0.00  0.00    +0.086 C 
ATOM      9  C   UNL     1       0.601  -3.425   8.427  0.00  0.00    +0.167 C 
ATOM     10  O   UNL     1       0.840  -2.429   9.076  0.00  0.00    -0.292 OA
ATOM     11  C   UNL     1       2.615  -5.415   8.074  0.00  0.00    +0.012 C 
ATOM     12  C   UNL     1       1.080  -7.192   8.914  0.00  0.00    +0.012 C 
ATOM     13  C   UNL     1       0.380  -0.859   6.403  0.00  0.00    +0.048 C 
ENDROOT
BRANCH   1  15
ATOM     14  N   UNL     1       0.050  -2.797   2.392  0.00  0.00    -0.279 N 
ATOM     15  C   UNL     1       0.148  -2.134   3.561  0.00  0.00    +0.284 C 
ATOM     16  O   UNL     1       0.133  -0.918   3.574  0.00  0.00    -0.266 OA
ATOM     17  H   UNL     1      -0.015  -3.765   2.387  0.00  0.00    +0.155 HD
BRANCH  14  23
ATOM     18  C   UNL     1      -1.513  -2.363  -2.249  0.00  0.00    +0.044 C 
ATOM     19  C   UNL     1      -0.707  -1.856  -1.080  0.00  0.00    -0.048 A 
ATOM     20  C   UNL     1       0.025  -0.690  -1.201  0.00  0.00    +0.006 A 
ATOM     21  C   UNL     1       0.766  -0.221  -0.131  0.00  0.00    -0.048 A 
ATOM     22  C   UNL     1       0.776  -0.917   1.061  0.00  0.00    +0.026 A 
ATOM     23  C   UNL     1       0.041  -2.090   1.186  0.00  0.00    +0.034 A 
ATOM     24  C   UNL     1      -0.706  -2.554   0.112  0.00  0.00    +0.026 A 
ATOM     25  C   UNL     1       1.563   1.050  -0.268  0.00  0.00    +0.044 C 
ENDBRANCH  14  23
ENDBRANCH   1  15
TORSDOF 2
