REMARK  Name = ZINC64042780
REMARK  5 active torsions:
REMARK  status: ('A' for Active; 'I' for Inactive)
REMARK    1  A    between atoms: C_8  and  C_13
REMARK    2  A    between atoms: N_15  and  C_16
REMARK    3  A    between atoms: C_16  and  C_17
REMARK    4  A    between atoms: C_17  and  C_19
REMARK    5  A    between atoms: C_17  and  C_26
REMARK                            x       y       z     vdW  Elec       q    Type
REMARK                         _______ _______ _______ _____ _____    ______ ____
ROOT
ATOM      1  C   UNL     1       0.856  -7.183  -1.551  0.00  0.00    +0.066 C 
ENDROOT
BRANCH   1   2
ATOM      2  C   UNL     1       0.873  -8.654  -1.227  0.00  0.00    -0.033 C 
ATOM      3  C   UNL     1      -0.149  -9.390  -0.732  0.00  0.00    -0.000 A 
ATOM      4  C   UNL     1      -1.529  -9.052  -0.361  0.00  0.00    +0.010 A 
ATOM      5  C   UNL     1      -2.336 -10.025   0.118  0.00  0.00    +0.001 A 
ATOM      6  C   UNL     1      -1.890 -11.345   0.269  0.00  0.00    +0.002 A 
ATOM      7  C   UNL     1      -0.637 -11.732  -0.050  0.00  0.00    +0.026 A 
ATOM      8  C   UNL     1       0.297 -10.791  -0.564  0.00  0.00    +0.043 A 
ATOM      9  N   UNL     1       1.547 -10.917  -0.939  0.00  0.00    -0.380 N 
ATOM     10  C   UNL     1       2.033  -9.610  -1.395  0.00  0.00    +0.145 C 
ATOM     11  H   UNL     1       2.063 -11.738  -0.922  0.00  0.00    +0.160 HD
ENDBRANCH   1   2
BRANCH   1  12
ATOM     12  C   UNL     1       1.151  -6.987  -3.016  0.00  0.00    -0.020 A 
ATOM     13  C   UNL     1       2.346  -7.438  -3.546  0.00  0.00    +0.006 A 
ATOM     14  C   UNL     1       2.617  -7.259  -4.889  0.00  0.00    +0.000 A 
ATOM     15  C   UNL     1       1.694  -6.630  -5.704  0.00  0.00    +0.001 A 
ATOM     16  C   UNL     1       0.499  -6.179  -5.175  0.00  0.00    +0.020 A 
ATOM     17  C   UNL     1       0.225  -6.363  -3.831  0.00  0.00    +0.045 A 
ATOM     18 CL   UNL     1      -1.278  -5.803  -3.167  0.00  0.00    -0.083 Cl
ENDBRANCH   1  12
BRANCH   1  19
ATOM     19  C   UNL     1       1.919  -6.465  -0.716  0.00  0.00    +0.117 C 
BRANCH  19  22
ATOM     20  C   UNL     1       2.666  -4.182  -0.307  0.00  0.00    +0.254 C 
ATOM     21  O   UNL     1       3.504  -4.624   0.452  0.00  0.00    -0.272 OA
ATOM     22  N   UNL     1       1.823  -5.021  -0.942  0.00  0.00    -0.311 N 
ATOM     23  H   UNL     1       1.154  -4.668  -1.548  0.00  0.00    +0.149 HD
BRANCH  20  31
ATOM     24  C   UNL     1      -0.017   1.379   0.010  0.00  0.00    +0.000 A 
ATOM     25  C   UNL     1       1.166   2.098   0.002  0.00  0.00    +0.001 A 
ATOM     26  C   UNL     1       2.377   1.435  -0.014  0.00  0.00    +0.015 A 
ATOM     27  C   UNL     1       2.400   0.042  -0.023  0.00  0.00    +0.062 A 
ATOM     28  C   UNL     1       1.206  -0.680  -0.013  0.00  0.00    -0.029 A 
ATOM     29  C   UNL     1       0.002  -0.004   0.002  0.00  0.00    +0.004 A 
ATOM     30  C   UNL     1       1.227  -2.186  -0.011  0.00  0.00    +0.090 C 
ATOM     31  C   UNL     1       2.568  -2.696  -0.539  0.00  0.00    +0.266 C 
ATOM     32  O   UNL     1       3.636  -2.033   0.151  0.00  0.00    -0.448 OA
ATOM     33  C   UNL     1       3.687  -0.691  -0.045  0.00  0.00    +0.340 C 
ATOM     34  O   UNL     1       4.742  -0.117  -0.230  0.00  0.00    -0.245 OA
ENDBRANCH  20  31
ENDBRANCH  19  22
ENDBRANCH   1  19
TORSDOF 5
