REMARK  Name = ZINC26548120
REMARK  7 active torsions:
REMARK  status: ('A' for Active; 'I' for Inactive)
REMARK    1  A    between atoms: C_1  and  C_2
REMARK    2  A    between atoms: C_3  and  C_11
REMARK    3  A    between atoms: C_4  and  C_10
REMARK    4  A    between atoms: N_5  and  C_7
REMARK    5  A    between atoms: C_7  and  C_8
REMARK    6  A    between atoms: C_7  and  C_9
REMARK    7  A    between atoms: N_15  and  N_16
REMARK                            x       y       z     vdW  Elec       q    Type
REMARK                         _______ _______ _______ _____ _____    ______ ____
ROOT
ATOM      1  C   UNL     1      -0.125   2.254   1.980  0.00  0.00    +0.068 C 
ATOM      2  C   UNL     1       0.090   1.062   2.877  0.00  0.00    +0.071 A 
ATOM      3  C   UNL     1       0.150  -0.285   2.465  0.00  0.00    +0.064 A 
ATOM      4  C   UNL     1       0.350  -1.047   3.581  0.00  0.00    +0.047 A 
ATOM      5  N   UNL     1       0.421  -0.212   4.638  0.00  0.00    -0.265 N 
ATOM      6  N   UNL     1       0.253   1.098   4.173  0.00  0.00    -0.175 NA
ATOM      7  C   UNL     1       0.473  -2.549   3.624  0.00  0.00    +0.066 C 
ENDROOT
BRANCH   3   8
ATOM      8  C   UNL     1       0.014  -0.782   1.078  0.00  0.00    +0.185 A 
ATOM      9  N   UNL     1       0.794  -1.653   0.482  0.00  0.00    -0.127 NA
ATOM     10  N   UNL     1       0.387  -1.857  -0.720  0.00  0.00    -0.120 NA
ATOM     11  C   UNL     1      -0.681  -1.133  -0.963  0.00  0.00    +0.219 A 
ATOM     12  N   UNL     1      -0.954  -0.420   0.171  0.00  0.00    -0.223 N 
ATOM     13  S   UNL     1      -1.591  -1.088  -2.471  0.00  0.00    -0.008 SA
BRANCH  12  14
ATOM     14  N   UNL     1      -1.977   0.464   0.364  0.00  0.00    -0.295 N 
ATOM     15  H   UNL     1      -2.689   0.668  -0.450  0.00  0.00    +0.163 HD
ATOM     16  H   UNL     1      -2.089   0.973   1.333  0.00  0.00    +0.163 HD
ENDBRANCH  12  14
ENDBRANCH   3   8
BRANCH   5  17
ATOM     17  C   UNL     1       0.632  -0.608   6.032  0.00  0.00    +0.101 C 
ATOM     18  C   UNL     1       1.909   0.049   6.561  0.00  0.00    +0.032 C 
ATOM     19  C   UNL     1      -0.561  -0.157   6.877  0.00  0.00    +0.032 C 
ENDBRANCH   5  17
TORSDOF 3
