REMARK  Name = ZINC39711654
REMARK  12 active torsions:
REMARK  status: ('A' for Active; 'I' for Inactive)
REMARK    1  A    between atoms: C_1  and  C_2
REMARK    2  A    between atoms: C_2  and  C_3
REMARK    3  A    between atoms: C_3  and  C_4
REMARK    4  A    between atoms: C_3  and  C_5
REMARK    5  A    between atoms: C_3  and  N_6
REMARK    6  A    between atoms: C_7  and  C_12
REMARK    7  A    between atoms: C_12  and  C_14
REMARK    8  A    between atoms: C_12  and  N_29
REMARK    9  A    between atoms: N_29  and  C_30
REMARK   10  A    between atoms: N_29  and  C_37
REMARK   11  A    between atoms: C_30  and  C_31
REMARK   12  A    between atoms: C_37  and  C_38
REMARK                            x       y       z     vdW  Elec       q    Type
REMARK                         _______ _______ _______ _____ _____    ______ ____
ROOT
ATOM      1  C   UNL     1       1.254  -2.781  -4.125  0.00  0.00    -0.008 C 
ENDROOT
BRANCH   1   2
ATOM      2  C   UNL     1       0.514  -1.499  -4.513  0.00  0.00    +0.088 C 
ATOM      3  C   UNL     1      -0.572  -1.259  -3.482  0.00  0.00    -0.006 C 
ATOM      4  C   UNL     1      -1.853  -1.179  -3.931  0.00  0.00    -0.003 A 
ATOM      5  C   UNL     1      -2.959  -0.950  -3.000  0.00  0.00    +0.059 A 
ATOM      6  C   UNL     1      -4.228  -0.877  -3.480  0.00  0.00    +0.167 A 
ATOM      7  C   UNL     1      -4.497  -1.017  -4.859  0.00  0.00    +0.168 A 
ATOM      8  C   UNL     1      -3.490  -1.234  -5.777  0.00  0.00    +0.073 A 
ATOM      9  C   UNL     1      -2.154  -1.324  -5.368  0.00  0.00    +0.044 A 
ATOM     10  N   UNL     1      -1.194  -1.534  -6.272  0.00  0.00    -0.284 N 
ATOM     11  C   UNL     1       0.085  -1.631  -5.957  0.00  0.00    +0.223 C 
ATOM     12  O   UNL     1       0.914  -1.824  -6.825  0.00  0.00    -0.275 OA
ATOM     13  O   UNL     1      -5.843  -0.900  -5.044  0.00  0.00    -0.453 OA
ATOM     14  C   UNL     1      -6.433  -1.106  -3.748  0.00  0.00    +0.466 C 
ATOM     15  O   UNL     1      -5.413  -0.675  -2.829  0.00  0.00    -0.453 OA
ATOM     16  H   UNL     1      -1.448  -1.621  -7.204  0.00  0.00    +0.155 HD
ENDBRANCH   1   2
BRANCH   1  18
ATOM     17  N   UNL     1       0.974  -2.107  -1.764  0.00  0.00    -0.182 NA
ATOM     18  C   UNL     1       1.944  -2.582  -2.773  0.00  0.00    +0.205 C 
ATOM     19  N   UNL     1       2.425  -3.866  -2.247  0.00  0.00    -0.152 NA
ATOM     20  N   UNL     1       1.864  -4.092  -1.172  0.00  0.00    -0.070 NA
ATOM     21  N   UNL     1       0.973  -3.085  -0.804  0.00  0.00    -0.179 N 
ATOM     22  H   UNL     1       0.437  -3.077   0.005  0.00  0.00    +0.191 HD
BRANCH  17  23
ATOM     23  C   UNL     1       1.391  -0.816  -1.200  0.00  0.00    +0.037 C 
ATOM     24  C   UNL     1       1.621   0.185  -2.334  0.00  0.00    +0.029 C 
ATOM     25  C   UNL     1       2.688  -0.999  -0.411  0.00  0.00    +0.029 C 
BRANCH  23  27
ATOM     26  C   UNL     1       0.731   1.055   0.318  0.00  0.00    +0.006 C 
ATOM     27  C   UNL     1       0.297  -0.290  -0.269  0.00  0.00    +0.020 C 
ENDBRANCH  23  27
ENDBRANCH  17  23
ENDBRANCH   1  18
BRANCH   1  28
ATOM     28  N   UNL     1       2.261  -3.094  -5.147  0.00  0.00    +0.392 N 
ATOM     29  H   UNL     1       1.808  -3.206  -6.042  0.00  0.00    -0.080 HD
BRANCH  28  30
ATOM     30  C   UNL     1       3.236  -1.998  -5.226  0.00  0.00    -0.042 C 
BRANCH  30  31
ATOM     31  C   UNL     1       4.189  -2.254  -6.364  0.00  0.00    -0.064 A 
ATOM     32  C   UNL     1       5.351  -2.970  -6.145  0.00  0.00    +0.002 A 
ATOM     33  C   UNL     1       6.226  -3.206  -7.189  0.00  0.00    +0.000 A 
ATOM     34  C   UNL     1       5.938  -2.725  -8.453  0.00  0.00    +0.000 A 
ATOM     35  C   UNL     1       4.776  -2.009  -8.673  0.00  0.00    +0.000 A 
ATOM     36  C   UNL     1       3.899  -1.778  -7.629  0.00  0.00    +0.002 A 
ENDBRANCH  30  31
ENDBRANCH  28  30
BRANCH  28  37
ATOM     37  C   UNL     1       2.952  -4.339  -4.789  0.00  0.00    -0.002 C 
BRANCH  37  38
ATOM     38  C   UNL     1       1.961  -5.474  -4.763  0.00  0.00    +0.089 A 
ATOM     39  C   UNL     1       1.694  -6.309  -5.783  0.00  0.00    +0.042 A 
ATOM     40  C   UNL     1       0.709  -7.214  -5.325  0.00  0.00    +0.041 A 
ATOM     41  C   UNL     1       0.433  -6.878  -4.052  0.00  0.00    +0.195 A 
ATOM     42  O   UNL     1       1.198  -5.827  -3.715  0.00  0.00    -0.470 OA
ENDBRANCH  37  38
ENDBRANCH  28  37
ENDBRANCH   1  28
TORSDOF 9
