REMARK  Name = ZINC13500653
REMARK  11 active torsions:
REMARK  status: ('A' for Active; 'I' for Inactive)
REMARK    1  A    between atoms: C_1  and  C_2
REMARK    2  A    between atoms: C_9  and  C_14
REMARK    3  A    between atoms: C_14  and  N_69
REMARK    4  A    between atoms: C_15  and  N_69
REMARK    5  A    between atoms: C_21  and  C_23
REMARK    6  A    between atoms: C_21  and  C_34
REMARK    7  A    between atoms: C_21  and  N_69
REMARK    8  A    between atoms: N_27  and  C_28
REMARK    9  A    between atoms: C_28  and  C_29
REMARK   10  A    between atoms: C_34  and  C_35
REMARK   11  A    between atoms: C_34  and  C_36
REMARK                            x       y       z     vdW  Elec       q    Type
REMARK                         _______ _______ _______ _____ _____    ______ ____
ROOT
ATOM      1  N   UNL     1      -3.518   0.914  -1.147  0.00  0.00    +0.391 N 
ATOM      2  H   UNL     1      -2.679   0.813  -1.731  0.00  0.00    -0.080 HD
ENDROOT
BRANCH   1   3
ATOM      3  C   UNL     1      -4.333   2.031  -1.668  0.00  0.00    -0.067 C 
ATOM      4  C   UNL     1      -5.681   2.094  -0.946  0.00  0.00    -0.015 C 
ATOM      5  C   UNL     1      -6.506   3.254  -1.506  0.00  0.00    -0.002 C 
ATOM      6  C   UNL     1      -6.739   3.039  -3.002  0.00  0.00    -0.000 C 
ATOM      7  C   UNL     1      -5.392   2.976  -3.725  0.00  0.00    -0.002 C 
ATOM      8  C   UNL     1      -4.566   1.816  -3.165  0.00  0.00    -0.015 C 
ENDBRANCH   1   3
BRANCH   1   9
ATOM      9  C   UNL     1      -3.103   1.198   0.243  0.00  0.00    -0.036 C 
BRANCH   9  18
ATOM     10  C   UNL     1      -1.254   8.327   1.417  0.00  0.00    +0.044 C 
ATOM     11  C   UNL     1      -0.893   6.930   0.981  0.00  0.00    -0.050 A 
ATOM     12  C   UNL     1       0.397   6.657   0.545  0.00  0.00    +0.005 A 
ATOM     13  C   UNL     1       0.749   5.387   0.142  0.00  0.00    +0.026 A 
ATOM     14  C   UNL     1      -0.196   4.367   0.171  0.00  0.00    +0.049 A 
ATOM     15  C   UNL     1      -1.503   4.647   0.613  0.00  0.00    -0.001 A 
ATOM     16  C   UNL     1      -1.838   5.944   1.017  0.00  0.00    +0.013 A 
ATOM     17  C   UNL     1      -2.491   3.567   0.640  0.00  0.00    +0.017 A 
ATOM     18  C   UNL     1      -2.110   2.331   0.233  0.00  0.00    +0.001 A 
ATOM     19  C   UNL     1      -0.785   2.101  -0.197  0.00  0.00    +0.251 A 
ATOM     20  O   UNL     1      -0.463   0.981  -0.555  0.00  0.00    -0.268 OA
ATOM     21  N   UNL     1       0.129   3.087  -0.226  0.00  0.00    -0.322 N 
ATOM     22  H   UNL     1       1.030   2.895  -0.530  0.00  0.00    +0.169 HD
ENDBRANCH   9  18
ENDBRANCH   1   9
BRANCH   1  23
ATOM     23  C   UNL     1      -4.293  -0.343  -1.196  0.00  0.00    +0.006 C 
BRANCH  23  24
ATOM     24  C   UNL     1      -5.077  -0.528   0.077  0.00  0.00    +0.139 A 
ATOM     25  N   UNL     1      -4.611  -0.455   1.300  0.00  0.00    -0.115 NA
ATOM     26  N   UNL     1      -5.589  -0.669   2.112  0.00  0.00    -0.023 NA
ATOM     27  N   UNL     1      -6.664  -0.883   1.438  0.00  0.00    -0.044 NA
ATOM     28  N   UNL     1      -6.390  -0.805   0.180  0.00  0.00    -0.223 N 
BRANCH  28  29
ATOM     29  C   UNL     1      -7.330  -0.985  -0.929  0.00  0.00    +0.221 C 
BRANCH  29  30
ATOM     30  C   UNL     1      -7.361  -2.437  -1.331  0.00  0.00    +0.126 A 
ATOM     31  C   UNL     1      -8.179  -3.377  -0.825  0.00  0.00    +0.046 A 
ATOM     32  C   UNL     1      -7.870  -4.588  -1.485  0.00  0.00    +0.041 A 
ATOM     33  C   UNL     1      -6.876  -4.318  -2.350  0.00  0.00    +0.195 A 
ATOM     34  O   UNL     1      -6.571  -3.014  -2.252  0.00  0.00    -0.466 OA
ENDBRANCH  29  30
ENDBRANCH  28  29
ENDBRANCH  23  24
BRANCH  23  35
ATOM     35  C   UNL     1      -3.318  -1.510  -1.369  0.00  0.00    -0.024 C 
ATOM     36  C   UNL     1      -2.538  -1.335  -2.674  0.00  0.00    +0.006 C 
ATOM     37  C   UNL     1      -2.341  -1.537  -0.191  0.00  0.00    +0.006 C 
ENDBRANCH  23  35
ENDBRANCH   1  23
TORSDOF 8
