REMARK  Name = ZINC09468026
REMARK  10 active torsions:
REMARK  status: ('A' for Active; 'I' for Inactive)
REMARK    1  A    between atoms: C_1  and  C_2
REMARK    2  A    between atoms: C_3  and  C_14
REMARK    3  A    between atoms: C_4  and  C_13
REMARK    4  A    between atoms: N_5  and  C_7
REMARK    5  A    between atoms: C_14  and  N_58
REMARK    6  A    between atoms: C_15  and  N_58
REMARK    7  A    between atoms: C_16  and  C_17
REMARK    8  A    between atoms: C_16  and  N_58
REMARK    9  A    between atoms: N_19  and  C_20
REMARK   10  A    between atoms: C_21  and  C_29
REMARK                            x       y       z     vdW  Elec       q    Type
REMARK                         _______ _______ _______ _____ _____    ______ ____
ROOT
ATOM      1  C   UNL     1      -4.304   7.619  -5.360  0.00  0.00    -0.095 C 
ATOM      2  N   UNL     1      -2.998   8.213  -5.009  0.00  0.00    +0.386 N 
ATOM      3  H   UNL     1      -2.268   7.783  -5.590  0.00  0.00    -0.081 HD
ENDROOT
BRANCH   2   4
ATOM      4  C   UNL     1      -3.019   9.669  -5.266  0.00  0.00    -0.039 C 
BRANCH   4   7
ATOM      5  C   UNL     1      -0.576   9.938  -7.265  0.00  0.00    +0.068 C 
ATOM      6  C   UNL     1      -2.034  10.018  -7.636  0.00  0.00    +0.062 A 
ATOM      7  C   UNL     1      -3.112   9.899  -6.752  0.00  0.00    -0.020 A 
ATOM      8  C   UNL     1      -4.254  10.033  -7.467  0.00  0.00    +0.043 A 
ATOM      9  N   UNL     1      -3.909  10.225  -8.760  0.00  0.00    -0.237 N 
ATOM     10  N   UNL     1      -2.510  10.208  -8.840  0.00  0.00    -0.171 NA
ATOM     11  C   UNL     1      -5.657   9.978  -6.920  0.00  0.00    +0.066 C 
BRANCH   9  12
ATOM     12  C   UNL     1      -4.794  10.407  -9.832  0.00  0.00    +0.066 A 
ATOM     13  C   UNL     1      -4.555   9.778 -11.046  0.00  0.00    +0.028 A 
ATOM     14  C   UNL     1      -5.433   9.956 -12.098  0.00  0.00    +0.002 A 
ATOM     15  C   UNL     1      -6.541  10.768 -11.946  0.00  0.00    +0.000 A 
ATOM     16  C   UNL     1      -6.779  11.400 -10.740  0.00  0.00    +0.002 A 
ATOM     17  C   UNL     1      -5.908  11.222  -9.682  0.00  0.00    +0.028 A 
ENDBRANCH   9  12
ENDBRANCH   4   7
ENDBRANCH   2   4
BRANCH   2  18
ATOM     18  C   UNL     1      -2.692   7.956  -3.586  0.00  0.00    +0.019 C 
BRANCH  18  19
ATOM     19  C   UNL     1      -2.458   6.479  -3.398  0.00  0.00    +0.201 C 
ATOM     20  O   UNL     1      -2.554   5.725  -4.344  0.00  0.00    -0.278 OA
ATOM     21  N   UNL     1      -2.143   5.996  -2.180  0.00  0.00    -0.281 N 
ATOM     22  H   UNL     1      -2.066   6.599  -1.425  0.00  0.00    +0.155 HD
BRANCH  21  23
ATOM     23  C   UNL     1      -1.928   4.636  -2.008  0.00  0.00    +0.090 A 
ATOM     24  C   UNL     1      -1.598   3.956  -0.845  0.00  0.00    +0.084 A 
ATOM     25  C   UNL     1      -1.427   2.517  -0.933  0.00  0.00    -0.018 A 
ATOM     26  C   UNL     1      -1.611   1.990  -2.163  0.00  0.00    -0.004 A 
ATOM     27  S   UNL     1      -2.007   3.374  -3.193  0.00  0.00    -0.077 S 
ATOM     28  C   UNL     1      -1.501   0.548  -2.554  0.00  0.00    +0.043 C 
ATOM     29  C   UNL     1      -0.780  -0.205  -1.427  0.00  0.00    +0.005 C 
ATOM     30  C   UNL     1      -1.413   0.182  -0.087  0.00  0.00    +0.005 C 
ATOM     31  C   UNL     1      -1.066   1.631   0.254  0.00  0.00    +0.037 C 
BRANCH  24  32
ATOM     32  C   UNL     1      -1.433   4.649   0.398  0.00  0.00    +0.102 C 
ATOM     33  N   UNL     1      -1.302   5.198   1.383  0.00  0.00    -0.191 NA
ENDBRANCH  24  32
ENDBRANCH  21  23
ENDBRANCH  18  19
ENDBRANCH   2  18
TORSDOF 7
