REMARK  Name = ZINC12380339
REMARK  8 active torsions:
REMARK  status: ('A' for Active; 'I' for Inactive)
REMARK    1  A    between atoms: C_1  and  C_2
REMARK    2  A    between atoms: C_2  and  C_4
REMARK    3  A    between atoms: C_2  and  O_17
REMARK    4  A    between atoms: O_17  and  C_18
REMARK    5  A    between atoms: C_21  and  C_24
REMARK    6  A    between atoms: C_24  and  C_25
REMARK    7  A    between atoms: C_24  and  C_26
REMARK    8  A    between atoms: C_24  and  C_27
REMARK                            x       y       z     vdW  Elec       q    Type
REMARK                         _______ _______ _______ _____ _____    ______ ____
ROOT
ATOM      1  C   UNL     1       0.782  -0.339  -1.172  0.00  0.00    +0.261 C 
ATOM      2  O   UNL     1       0.155  -0.920  -2.033  0.00  0.00    -0.271 OA
ATOM      3  N   UNL     1       2.096  -0.092  -1.346  0.00  0.00    -0.258 N 
ATOM      4  C   UNL     1       2.906   0.498  -0.270  0.00  0.00    +0.209 C 
ATOM      5  C   UNL     1       3.825   1.537  -0.860  0.00  0.00    +0.235 C 
ATOM      6  O   UNL     1       4.176   2.480  -0.183  0.00  0.00    -0.274 OA
ATOM      7  N   UNL     1       4.261   1.431  -2.129  0.00  0.00    -0.283 N 
ATOM      8  C   UNL     1       3.832   0.380  -2.948  0.00  0.00    +0.055 A 
ATOM      9  C   UNL     1       2.735  -0.397  -2.558  0.00  0.00    +0.058 A 
ATOM     10  C   UNL     1       2.295  -1.429  -3.362  0.00  0.00    +0.025 A 
ATOM     11  C   UNL     1       2.949  -1.702  -4.550  0.00  0.00    +0.002 A 
ATOM     12  C   UNL     1       4.038  -0.942  -4.935  0.00  0.00    +0.002 A 
ATOM     13  C   UNL     1       4.481   0.098  -4.138  0.00  0.00    +0.025 A 
ATOM     14  H   UNL     1       4.880   2.090  -2.480  0.00  0.00    +0.155 HD
ENDROOT
BRANCH   1  16
ATOM     15  C   UNL     1      -0.034   1.631   0.093  0.00  0.00    +0.062 C 
ATOM     16  C   UNL     1       0.092   0.107   0.092  0.00  0.00    +0.256 C 
BRANCH  16  17
ATOM     17  O   UNL     1      -1.209  -0.479   0.156  0.00  0.00    -0.480 OA
BRANCH  17  18
ATOM     18  C   UNL     1      -1.761  -0.622   1.390  0.00  0.00    +0.122 A 
ATOM     19  C   UNL     1      -1.025  -0.303   2.522  0.00  0.00    +0.046 A 
ATOM     20  C   UNL     1      -1.590  -0.443   3.774  0.00  0.00    +0.008 A 
ATOM     21  C   UNL     1      -2.885  -0.913   3.901  0.00  0.00    -0.042 A 
ATOM     22  C   UNL     1      -3.618  -1.237   2.775  0.00  0.00    +0.008 A 
ATOM     23  C   UNL     1      -3.060  -1.093   1.520  0.00  0.00    +0.046 A 
BRANCH  21  24
ATOM     24  C   UNL     1      -3.496  -1.071   5.269  0.00  0.00    -0.013 C 
ATOM     25  C   UNL     1      -3.884  -2.535   5.489  0.00  0.00    +0.015 C 
ATOM     26  C   UNL     1      -2.483  -0.647   6.334  0.00  0.00    +0.015 C 
ATOM     27  C   UNL     1      -4.744  -0.192   5.375  0.00  0.00    +0.015 C 
ENDBRANCH  21  24
ENDBRANCH  17  18
ENDBRANCH  16  17
ENDBRANCH   1  16
TORSDOF 4
