REMARK  Name = ZINC10337102
REMARK  2 active torsions:
REMARK  status: ('A' for Active; 'I' for Inactive)
REMARK    1  A    between atoms: C_5  and  C_7
REMARK    2  A    between atoms: C_25  and  C_27
REMARK                            x       y       z     vdW  Elec       q    Type
REMARK                         _______ _______ _______ _____ _____    ______ ____
ROOT
ATOM      1  C   UNL     1       1.228  -2.186  -0.022  0.00  0.00    +0.237 C 
ATOM      2  C   UNL     1       1.504  -2.687   1.365  0.00  0.00    +0.027 C 
ATOM      3  C   UNL     1       0.491  -2.931   2.222  0.00  0.00    +0.083 C 
ATOM      4  C   UNL     1      -0.891  -2.695   1.733  0.00  0.00    +0.044 A 
ATOM      5  C   UNL     1      -1.964  -2.600   2.608  0.00  0.00    +0.033 A 
ATOM      6  C   UNL     1      -3.235  -2.379   2.109  0.00  0.00    +0.042 A 
ATOM      7  C   UNL     1      -3.435  -2.253   0.745  0.00  0.00    +0.023 A 
ATOM      8  C   UNL     1      -2.371  -2.347  -0.133  0.00  0.00    +0.048 A 
ATOM      9  C   UNL     1      -1.094  -2.569   0.353  0.00  0.00    +0.131 A 
ATOM     10  O   UNL     1      -0.034  -2.673  -0.482  0.00  0.00    -0.479 OA
ATOM     11 CL   UNL     1      -4.583  -2.260   3.196  0.00  0.00    -0.084 Cl
ATOM     12  N   UNL     1       0.720  -3.377   3.483  0.00  0.00    -0.213 NA
ATOM     13  C   UNL     1       1.908  -3.614   3.974  0.00  0.00    +0.232 C 
ATOM     14  N   UNL     1       2.344  -4.058   5.184  0.00  0.00    -0.231 N 
ATOM     15  N   UNL     1       3.627  -4.134   5.184  0.00  0.00    -0.086 NA
ATOM     16  N   UNL     1       4.119  -3.771   4.049  0.00  0.00    -0.165 N 
ATOM     17  N   UNL     1       3.051  -3.420   3.222  0.00  0.00    -0.193 N 
ATOM     18  C   UNL     1       2.918  -2.933   1.845  0.00  0.00    +0.162 C 
ATOM     19  H   UNL     1       5.059  -3.745   3.813  0.00  0.00    +0.195 HD
ATOM     20  H   UNL     1       1.772  -4.284   5.935  0.00  0.00    +0.193 HD
ENDROOT
BRANCH   1  25
ATOM     21  C   UNL     1      -0.011   1.377   0.114  0.00  0.00    +0.001 A 
ATOM     22  C   UNL     1       1.171   2.087   0.002  0.00  0.00    +0.003 A 
ATOM     23  C   UNL     1       2.372   1.414  -0.117  0.00  0.00    +0.039 A 
ATOM     24  C   UNL     1       2.392   0.030  -0.125  0.00  0.00    +0.130 A 
ATOM     25  C   UNL     1       1.208  -0.679  -0.013  0.00  0.00    +0.032 A 
ATOM     26  C   UNL     1       0.008  -0.005   0.106  0.00  0.00    +0.010 A 
ATOM     27  F   UNL     1       3.566  -0.629  -0.242  0.00  0.00    -0.205 F 
ENDBRANCH   1  25
BRANCH  18  28
ATOM     28  C   UNL     1       3.558  -3.941   0.925  0.00  0.00    -0.003 A 
ATOM     29  C   UNL     1       4.422  -3.527  -0.077  0.00  0.00    +0.009 A 
ATOM     30  C   UNL     1       4.987  -4.490  -0.900  0.00  0.00    +0.020 A 
ATOM     31  C   UNL     1       4.673  -5.820  -0.694  0.00  0.00    +0.111 A 
ATOM     32  N   UNL     1       3.847  -6.177   0.270  0.00  0.00    -0.263 NA
ATOM     33  C   UNL     1       3.296  -5.290   1.075  0.00  0.00    +0.116 A 
ENDBRANCH  18  28
TORSDOF 2
