REMARK  Name = ZINC20072176
REMARK  10 active torsions:
REMARK  status: ('A' for Active; 'I' for Inactive)
REMARK    1  A    between atoms: C_1  and  C_2
REMARK    2  A    between atoms: C_2  and  C_3
REMARK    3  A    between atoms: C_2  and  C_4
REMARK    4  A    between atoms: C_2  and  C_5
REMARK    5  A    between atoms: C_7  and  N_10
REMARK    6  A    between atoms: C_11  and  C_13
REMARK    7  A    between atoms: C_13  and  S_14
REMARK    8  A    between atoms: S_14  and  C_15
REMARK    9  A    between atoms: N_28  and  C_29
REMARK   10  A    between atoms: C_29  and  C_30
REMARK                            x       y       z     vdW  Elec       q    Type
REMARK                         _______ _______ _______ _____ _____    ______ ____
ROOT
ATOM      1  C   UNL     1       2.624  -1.288   3.640  0.00  0.00    +0.198 A 
ATOM      2  N   UNL     1       3.344  -0.911   2.612  0.00  0.00    -0.120 NA
ATOM      3  N   UNL     1       2.469  -0.548   1.581  0.00  0.00    -0.109 NA
ATOM      4  C   UNL     1       1.238  -0.720   2.009  0.00  0.00    +0.240 A 
ATOM      5  N   UNL     1       1.304  -1.177   3.297  0.00  0.00    -0.256 N 
ATOM      6  C   UNL     1       0.140  -1.447   4.013  0.00  0.00    +0.064 A 
ATOM      7  C   UNL     1       0.196  -1.916   5.317  0.00  0.00    +0.027 A 
ATOM      8  C   UNL     1      -0.973  -2.176   6.004  0.00  0.00    +0.002 A 
ATOM      9  C   UNL     1      -2.205  -1.971   5.403  0.00  0.00    +0.001 A 
ATOM     10  C   UNL     1      -2.280  -1.505   4.107  0.00  0.00    +0.015 A 
ATOM     11  C   UNL     1      -1.107  -1.239   3.403  0.00  0.00    +0.064 A 
ATOM     12  C   UNL     1      -1.143  -0.740   2.016  0.00  0.00    +0.263 A 
ATOM     13  O   UNL     1      -2.205  -0.548   1.455  0.00  0.00    -0.267 OA
ATOM     14  N   UNL     1       0.022  -0.500   1.381  0.00  0.00    -0.272 N 
ENDROOT
BRANCH   1  15
ATOM     15  S   UNL     1       3.248  -1.840   5.193  0.00  0.00    -0.076 S 
BRANCH  15  16
ATOM     16  C   UNL     1       5.049  -1.753   4.999  0.00  0.00    +0.173 C 
BRANCH  16  18
ATOM     17  N   UNL     1       7.059  -2.224   6.362  0.00  0.00    -0.254 N 
ATOM     18  C   UNL     1       5.714  -2.205   6.274  0.00  0.00    +0.230 C 
ATOM     19  O   UNL     1       5.040  -2.551   7.220  0.00  0.00    -0.274 OA
ATOM     20  H   UNL     1       7.671  -1.910   5.503  0.00  0.00    +0.158 HD
BRANCH  17  23
ATOM     21  C   UNL     1       9.092  -3.189   9.102  0.00  0.00    +0.091 A 
ATOM     22  C   UNL     1       9.013  -2.714   7.777  0.00  0.00    +0.092 A 
ATOM     23  C   UNL     1       7.671  -2.640   7.535  0.00  0.00    +0.224 A 
ATOM     24  O   UNL     1       7.064  -3.044   8.662  0.00  0.00    -0.339 OA
ATOM     25  N   UNL     1       7.866  -3.348   9.513  0.00  0.00    -0.081 NA
BRANCH  21  27
ATOM     26  C   UNL     1      10.968  -2.132  10.334  0.00  0.00    +0.017 C 
ATOM     27  C   UNL     1      10.349  -3.459   9.889  0.00  0.00    +0.008 C 
ATOM     28  C   UNL     1      10.009  -4.301  11.120  0.00  0.00    +0.017 C 
ATOM     29  C   UNL     1      11.347  -4.218   9.012  0.00  0.00    +0.017 C 
ENDBRANCH  21  27
ENDBRANCH  17  23
ENDBRANCH  16  18
ENDBRANCH  15  16
ENDBRANCH   1  15
BRANCH  14  30
ATOM     30  C   UNL     1       0.002  -0.004   0.002  0.00  0.00    +0.163 C 
BRANCH  30  31
ATOM     31  C   UNL     1      -0.018   1.503   0.010  0.00  0.00    -0.028 A 
ATOM     32  C   UNL     1      -1.225   2.178   0.020  0.00  0.00    +0.005 A 
ATOM     33  C   UNL     1      -1.244   3.560   0.032  0.00  0.00    +0.000 A 
ATOM     34  C   UNL     1      -0.056   4.267   0.025  0.00  0.00    +0.000 A 
ATOM     35  C   UNL     1       1.151   3.592   0.010  0.00  0.00    +0.000 A 
ATOM     36  C   UNL     1       1.169   2.210   0.003  0.00  0.00    +0.005 A 
ENDBRANCH  30  31
ENDBRANCH  14  30
TORSDOF 7
