REMARK  Name = ZINC13126178
REMARK  8 active torsions:
REMARK  status: ('A' for Active; 'I' for Inactive)
REMARK    1  A    between atoms: C_1  and  C_2
REMARK    2  A    between atoms: C_3  and  C_24
REMARK    3  A    between atoms: C_9  and  C_10
REMARK    4  A    between atoms: N_11  and  C_12
REMARK    5  A    between atoms: C_15  and  S_18
REMARK    6  A    between atoms: S_18  and  C_21
REMARK    7  A    between atoms: C_21  and  C_22
REMARK    8  A    between atoms: C_22  and  O_23
REMARK                            x       y       z     vdW  Elec       q    Type
REMARK                         _______ _______ _______ _____ _____    ______ ____
ROOT
ATOM      1  C   UNL     1       0.026  -0.030   2.491  0.00  0.00    +0.125 C 
ATOM      2  N   UNL     1       0.046  -0.715   3.602  0.00  0.00    -0.255 NA
ENDROOT
BRANCH   1  11
ATOM      3  C   UNL     1      -0.018   1.503   0.010  0.00  0.00    +0.046 C 
ATOM      4  C   UNL     1       0.002  -0.004   0.002  0.00  0.00    -0.014 A 
ATOM      5  C   UNL     1       0.006  -0.714  -1.201  0.00  0.00    +0.122 A 
ATOM      6  C   UNL     1       0.025  -2.119  -1.165  0.00  0.00    +0.291 A 
ATOM      7  O   UNL     1       0.030  -2.817  -2.325  0.00  0.00    -0.264 OA
ATOM      8  N   UNL     1       0.040  -2.769  -0.013  0.00  0.00    -0.168 NA
ATOM      9  C   UNL     1       0.036  -2.135   1.146  0.00  0.00    +0.282 A 
ATOM     10  O   UNL     1       0.051  -2.846   2.297  0.00  0.00    -0.265 OA
ATOM     11  C   UNL     1       0.023  -0.728   1.198  0.00  0.00    +0.064 A 
BRANCH   5  12
ATOM     12  C   UNL     1      -0.009  -0.020  -2.454  0.00  0.00    +0.105 C 
ATOM     13  N   UNL     1      -0.022   0.530  -3.447  0.00  0.00    -0.191 NA
ENDBRANCH   5  12
ENDBRANCH   1  11
BRANCH   2  14
ATOM     14  C   UNL     1       0.049  -0.065   4.806  0.00  0.00    +0.064 A 
ATOM     15  C   UNL     1       0.887   1.034   5.008  0.00  0.00    +0.029 A 
ATOM     16  C   UNL     1       0.884   1.685   6.224  0.00  0.00    +0.029 A 
ATOM     17  C   UNL     1       0.055   1.250   7.243  0.00  0.00    +0.088 A 
ATOM     18  C   UNL     1      -0.777   0.162   7.050  0.00  0.00    +0.029 A 
ATOM     19  C   UNL     1      -0.789  -0.495   5.837  0.00  0.00    +0.029 A 
BRANCH  17  20
ATOM     20  S   UNL     1       0.059   2.087   8.794  0.00  0.00    -0.001 S 
ATOM     21  O   UNL     1      -0.360   1.108   9.735  0.00  0.00    -0.169 OA
ATOM     22  O   UNL     1       1.349   2.675   8.886  0.00  0.00    -0.169 OA
BRANCH  20  23
ATOM     23  C   UNL     1      -1.205   3.378   8.630  0.00  0.00    +0.199 C 
BRANCH  23  24
ATOM     24  C   UNL     1      -1.290   4.177   9.933  0.00  0.00    +0.179 C 
BRANCH  24  25
ATOM     25  O   UNL     1      -2.286   5.193   9.804  0.00  0.00    -0.393 OA
ATOM     26  H   UNL     1      -2.394   5.740  10.594  0.00  0.00    +0.209 HD
ENDBRANCH  24  25
ENDBRANCH  23  24
ENDBRANCH  20  23
ENDBRANCH  17  20
ENDBRANCH   2  14
TORSDOF 7
