REMARK  Name = ZINC39664386
REMARK  7 active torsions:
REMARK  status: ('A' for Active; 'I' for Inactive)
REMARK    1  A    between atoms: C_1  and  N_2
REMARK    2  A    between atoms: C_6  and  C_7
REMARK    3  A    between atoms: C_11  and  C_20
REMARK    4  A    between atoms: N_22  and  C_23
REMARK    5  A    between atoms: C_23  and  C_24
REMARK    6  A    between atoms: C_24  and  C_26
REMARK    7  A    between atoms: C_24  and  N_32
REMARK                            x       y       z     vdW  Elec       q    Type
REMARK                         _______ _______ _______ _____ _____    ______ ____
ROOT
ATOM      1  C   UNL     1       0.307  -0.280   2.260  0.00  0.00    +0.263 C 
ATOM      2  O   UNL     1       0.610  -1.061   3.143  0.00  0.00    -0.268 OA
ATOM      3  N   UNL     1       0.212   1.037   2.528  0.00  0.00    -0.295 N 
ATOM      4  C   UNL     1      -0.198   2.124   1.608  0.00  0.00    +0.121 C 
ATOM      5  C   UNL     1      -1.063   3.065   2.476  0.00  0.00    +0.100 C 
ATOM      6  C   UNL     1      -0.603   2.800   3.920  0.00  0.00    -0.004 C 
ATOM      7  C   UNL     1       0.488   1.725   3.812  0.00  0.00    +0.115 C 
ATOM      8  C   UNL     1      -1.767   2.280   4.758  0.00  0.00    -0.010 C 
ATOM      9  C   UNL     1      -1.299   2.079   6.202  0.00  0.00    -0.082 C 
ATOM     10  N   UNL     1      -0.812   3.354   6.743  0.00  0.00    +0.379 N 
ATOM     11  C   UNL     1       0.365   3.800   5.988  0.00  0.00    -0.082 C 
ATOM     12  C   UNL     1      -0.032   4.074   4.535  0.00  0.00    -0.010 C 
ATOM     13  H   UNL     1      -1.540   4.048   6.671  0.00  0.00    -0.086 HD
ATOM     14  H   UNL     1      -0.562   3.232   7.713  0.00  0.00    -0.086 HD
ENDROOT
BRANCH   1  20
ATOM     15  C   UNL     1       1.507   0.860  -0.359  0.00  0.00    +0.149 C 
ATOM     16  N   UNL     1       0.577  -0.268  -0.262  0.00  0.00    -0.346 N 
ATOM     17  C   UNL     1       0.102  -0.993  -1.304  0.00  0.00    +0.086 A 
ATOM     18  C   UNL     1      -0.730  -1.951  -0.829  0.00  0.00    +0.020 A 
ATOM     19  C   UNL     1      -0.779  -1.824   0.563  0.00  0.00    +0.032 A 
ATOM     20  C   UNL     1       0.046  -0.773   0.903  0.00  0.00    +0.104 A 
ENDBRANCH   1  20
BRANCH   5  21
ATOM     21  C   UNL     1      -2.523   2.729   2.318  0.00  0.00    +0.218 C 
ATOM     22  O   UNL     1      -2.856   1.610   1.992  0.00  0.00    -0.275 OA
ATOM     23  N   UNL     1      -3.460   3.673   2.540  0.00  0.00    -0.313 N 
ATOM     24  H   UNL     1      -3.193   4.586   2.731  0.00  0.00    +0.149 HD
BRANCH  23  25
ATOM     25  C   UNL     1      -4.881   3.320   2.494  0.00  0.00    +0.127 C 
BRANCH  25  26
ATOM     26  C   UNL     1      -5.726   4.586   2.647  0.00  0.00    +0.104 C 
BRANCH  26  27
ATOM     27  C   UNL     1      -5.520   5.476   1.448  0.00  0.00    -0.029 A 
ATOM     28  C   UNL     1      -4.394   6.273   1.365  0.00  0.00    +0.005 A 
ATOM     29  C   UNL     1      -4.204   7.089   0.265  0.00  0.00    +0.000 A 
ATOM     30  C   UNL     1      -5.141   7.108  -0.751  0.00  0.00    +0.000 A 
ATOM     31  C   UNL     1      -6.267   6.310  -0.668  0.00  0.00    +0.000 A 
ATOM     32  C   UNL     1      -6.454   5.491   0.429  0.00  0.00    +0.005 A 
ENDBRANCH  26  27
BRANCH  26  33
ATOM     33  N   UNL     1      -5.320   5.302   3.864  0.00  0.00    -0.290 NA
ATOM     34  C   UNL     1      -5.324   4.405   5.029  0.00  0.00    +0.113 C 
ATOM     35  C   UNL     1      -4.838   5.174   6.260  0.00  0.00    +0.175 C 
ATOM     36  O   UNL     1      -5.669   6.322   6.457  0.00  0.00    -0.377 OA
ATOM     37  C   UNL     1      -5.688   7.217   5.342  0.00  0.00    +0.175 C 
ATOM     38  C   UNL     1      -6.182   6.469   4.101  0.00  0.00    +0.113 C 
ENDBRANCH  26  33
ENDBRANCH  25  26
ENDBRANCH  23  25
ENDBRANCH   5  21
TORSDOF 6
