REMARK  Name = ZINC15319866
REMARK  4 active torsions:
REMARK  status: ('A' for Active; 'I' for Inactive)
REMARK    1  A    between atoms: C_1  and  C_2
REMARK    2  A    between atoms: N_10  and  C_13
REMARK    3  A    between atoms: N_28  and  C_31
REMARK    4  A    between atoms: C_31  and  C_32
REMARK                            x       y       z     vdW  Elec       q    Type
REMARK                         _______ _______ _______ _____ _____    ______ ____
ROOT
ATOM      1  C   UNL     1      -0.019   1.526   0.010  0.00  0.00    +0.025 C 
ATOM      2  C   UNL     1       0.002  -0.004   0.002  0.00  0.00    +0.064 C 
ATOM      3  C   UNL     1       0.780  -0.535  -1.199  0.00  0.00    +0.107 C 
ATOM      4  C   UNL     1       0.954  -2.014  -0.693  0.00  0.00    +0.123 C 
ATOM      5  C   UNL     1       1.337  -2.704  -1.901  0.00  0.00    +0.233 C 
ATOM      6  O   UNL     1       2.080  -3.656  -2.004  0.00  0.00    -0.274 OA
ATOM      7  N   UNL     1       0.676  -2.044  -2.909  0.00  0.00    -0.210 N 
ATOM      8  C   UNL     1       0.096  -0.861  -2.489  0.00  0.00    +0.232 C 
ATOM      9  O   UNL     1      -0.779  -0.226  -3.037  0.00  0.00    -0.274 OA
ATOM     10  C   UNL     1       1.266  -1.913   0.730  0.00  0.00    +0.136 C 
ATOM     11  N   UNL     1       0.820  -0.540   1.147  0.00  0.00    -0.296 NA
ATOM     12  C   UNL     1       0.568  -2.926   1.601  0.00  0.00    +0.004 A 
ATOM     13  C   UNL     1      -0.756  -3.268   1.770  0.00  0.00    +0.008 A 
ATOM     14  C   UNL     1      -1.104  -4.261   2.668  0.00  0.00    +0.000 A 
ATOM     15  C   UNL     1      -0.120  -4.908   3.394  0.00  0.00    +0.002 A 
ATOM     16  C   UNL     1       1.206  -4.569   3.227  0.00  0.00    +0.024 A 
ATOM     17  C   UNL     1       1.565  -3.570   2.324  0.00  0.00    +0.042 A 
ATOM     18  N   UNL     1       2.817  -3.055   1.983  0.00  0.00    -0.268 N 
ATOM     19  C   UNL     1       2.732  -2.083   1.058  0.00  0.00    +0.245 C 
ATOM     20  O   UNL     1       3.656  -1.462   0.578  0.00  0.00    -0.273 OA
ATOM     21  H   UNL     1       1.617   0.051   1.330  0.00  0.00    +0.123 HD
ENDROOT
BRANCH   7  22
ATOM     22  C   UNL     1       0.605  -2.512  -4.229  0.00  0.00    +0.045 A 
ATOM     23  C   UNL     1       1.220  -3.707  -4.577  0.00  0.00    +0.024 A 
ATOM     24  C   UNL     1       1.149  -4.166  -5.878  0.00  0.00    +0.003 A 
ATOM     25  C   UNL     1       0.466  -3.436  -6.833  0.00  0.00    +0.020 A 
ATOM     26  C   UNL     1      -0.148  -2.245  -6.490  0.00  0.00    +0.043 A 
ATOM     27  C   UNL     1      -0.084  -1.784  -5.188  0.00  0.00    +0.044 A 
ATOM     28 CL   UNL     1      -1.004  -1.332  -7.693  0.00  0.00    -0.083 Cl
ENDBRANCH   7  22
BRANCH  18  29
ATOM     29  C   UNL     1       4.078  -3.520   2.567  0.00  0.00    +0.125 C 
BRANCH  29  30
ATOM     30  C   UNL     1       4.637  -4.667   1.723  0.00  0.00    +0.099 C 
ATOM     31 BR   UNL     1       6.330  -5.291   2.506  0.00  0.00    -0.090 Br
ENDBRANCH  29  30
ENDBRANCH  18  29
TORSDOF 3
