REMARK  Name = ZINC35442684
REMARK  14 active torsions:
REMARK  status: ('A' for Active; 'I' for Inactive)
REMARK    1  A    between atoms: C_1  and  C_2
REMARK    2  A    between atoms: C_4  and  C_29
REMARK    3  A    between atoms: C_6  and  C_26
REMARK    4  A    between atoms: C_9  and  C_11
REMARK    5  A    between atoms: C_11  and  C_12
REMARK    6  A    between atoms: C_15  and  C_17
REMARK    7  A    between atoms: C_20  and  N_23
REMARK    8  A    between atoms: N_23  and  C_24
REMARK    9  A    between atoms: N_23  and  C_25
REMARK   10  A    between atoms: C_26  and  C_27
REMARK   11  A    between atoms: C_26  and  C_28
REMARK   12  A    between atoms: C_29  and  N_30
REMARK   13  A    between atoms: N_30  and  C_31
REMARK   14  A    between atoms: C_31  and  C_32
REMARK                            x       y       z     vdW  Elec       q    Type
REMARK                         _______ _______ _______ _____ _____    ______ ____
ROOT
ATOM      1  C   UNL     1       0.231   2.247  -0.864  0.00  0.00    +0.039 C 
ATOM      2  C   UNL     1       0.356   0.746  -0.802  0.00  0.00    -0.073 C 
ATOM      3  C   UNL     1       0.616   0.113  -1.900  0.00  0.00    -0.026 C 
ATOM      4  C   UNL     1       0.758  -1.378  -1.998  0.00  0.00    -0.002 C 
ATOM      5  C   UNL     1       0.978  -1.978  -0.607  0.00  0.00    -0.003 C 
ATOM      6  C   UNL     1      -0.091  -1.416   0.338  0.00  0.00    +0.012 C 
ATOM      7  C   UNL     1       0.176   0.080   0.531  0.00  0.00    +0.024 C 
ENDROOT
BRANCH   5   8
ATOM      8  C   UNL     1       0.857  -3.502  -0.680  0.00  0.00    -0.014 C 
ATOM      9  C   UNL     1       1.218  -4.107   0.678  0.00  0.00    +0.007 C 
ATOM     10  C   UNL     1      -0.580  -3.882  -1.043  0.00  0.00    +0.007 C 
ENDBRANCH   5   8
BRANCH   7  11
ATOM     11  C   UNL     1       1.443   0.271   1.368  0.00  0.00    +0.105 C 
BRANCH  11  12
ATOM     12  C   UNL     1       1.627   1.735   1.674  0.00  0.00    +0.218 A 
ATOM     13  N   UNL     1       1.161   2.368   2.714  0.00  0.00    -0.112 NA
ATOM     14  N   UNL     1       1.508   3.605   2.656  0.00  0.00    -0.107 NA
ATOM     15  C   UNL     1       2.213   3.806   1.567  0.00  0.00    +0.248 A 
ATOM     16  O   UNL     1       2.306   2.623   0.927  0.00  0.00    -0.420 OA
BRANCH  15  17
ATOM     17  C   UNL     1       2.801   5.088   1.127  0.00  0.00    +0.039 A 
ATOM     18  C   UNL     1       3.527   5.154  -0.064  0.00  0.00    +0.015 A 
ATOM     19  C   UNL     1       4.073   6.351  -0.471  0.00  0.00    +0.024 A 
ATOM     20  C   UNL     1       3.903   7.494   0.303  0.00  0.00    +0.029 A 
ATOM     21  C   UNL     1       3.181   7.432   1.490  0.00  0.00    +0.024 A 
ATOM     22  C   UNL     1       2.626   6.239   1.899  0.00  0.00    +0.015 A 
BRANCH  20  23
ATOM     23  N   UNL     1       4.457   8.704  -0.112  0.00  0.00    -0.336 N 
ATOM     24  C   UNL     1       5.118   8.798  -1.417  0.00  0.00    +0.129 C 
ATOM     25  C   UNL     1       4.380   9.881   0.756  0.00  0.00    +0.129 C 
ENDBRANCH  20  23
ENDBRANCH  15  17
ENDBRANCH  11  12
ENDBRANCH   7  11
BRANCH   4  26
ATOM     26  C   UNL     1       1.956  -1.716  -2.888  0.00  0.00    -0.074 C 
BRANCH  26  27
ATOM     27  N   UNL     1       1.698  -1.244  -4.255  0.00  0.00    +0.382 N 
ATOM     28  H   UNL     1       0.872  -1.696  -4.617  0.00  0.00    -0.085 HD
ATOM     29  H   UNL     1       1.558  -0.244  -4.245  0.00  0.00    -0.085 HD
BRANCH  27  30
ATOM     30  C   UNL     1       2.848  -1.568  -5.110  0.00  0.00    -0.047 C 
BRANCH  30  31
ATOM     31  C   UNL     1       2.583  -1.084  -6.512  0.00  0.00    -0.062 A 
ATOM     32  C   UNL     1       1.958  -1.903  -7.440  0.00  0.00    +0.021 A 
ATOM     33  C   UNL     1       1.732  -1.425  -8.717  0.00  0.00    +0.111 A 
ATOM     34  N   UNL     1       2.104  -0.206  -9.056  0.00  0.00    -0.263 NA
ATOM     35  C   UNL     1       2.702   0.600  -8.200  0.00  0.00    +0.111 A 
ATOM     36  C   UNL     1       2.955   0.193  -6.904  0.00  0.00    +0.021 A 
ENDBRANCH  30  31
ENDBRANCH  27  30
ENDBRANCH  26  27
ENDBRANCH   4  26
TORSDOF 9
