REMARK  Name = ZINC21536838
REMARK  5 active torsions:
REMARK  status: ('A' for Active; 'I' for Inactive)
REMARK    1  A    between atoms: C_1  and  C_2
REMARK    2  A    between atoms: C_2  and  C_3
REMARK    3  A    between atoms: C_8  and  N_9
REMARK    4  A    between atoms: C_25  and  C_27
REMARK    5  A    between atoms: C_32  and  C_33
REMARK                            x       y       z     vdW  Elec       q    Type
REMARK                         _______ _______ _______ _____ _____    ______ ____
ROOT
ATOM      1  N   UNL     1       4.095   0.392   3.094  0.00  0.00    -0.269 N 
ATOM      2  C   UNL     1       3.975   0.990   1.892  0.00  0.00    +0.308 C 
ATOM      3  O   UNL     1       4.896   1.647   1.446  0.00  0.00    -0.252 OA
ATOM      4  N   UNL     1       2.836   0.859   1.185  0.00  0.00    -0.268 N 
ATOM      5  C   UNL     1       1.748  -0.025   1.644  0.00  0.00    +0.147 C 
ATOM      6  C   UNL     1       1.141  -0.799   0.508  0.00  0.00    -0.006 A 
ATOM      7  C   UNL     1       1.372  -2.153   0.372  0.00  0.00    +0.007 A 
ATOM      8  C   UNL     1       0.711  -2.871  -0.608  0.00  0.00    +0.000 A 
ATOM      9  C   UNL     1      -0.180  -2.237  -1.455  0.00  0.00    +0.002 A 
ATOM     10  C   UNL     1      -0.395  -0.876  -1.342  0.00  0.00    +0.026 A 
ATOM     11  C   UNL     1       0.281  -0.153  -0.374  0.00  0.00    +0.051 A 
ATOM     12  N   UNL     1       0.128   1.238  -0.266  0.00  0.00    -0.318 N 
ATOM     13  C   UNL     1      -1.008   1.979  -0.278  0.00  0.00    +0.091 A 
ATOM     14  C   UNL     1      -0.662   3.278  -0.144  0.00  0.00    +0.020 A 
ATOM     15  C   UNL     1       0.746   3.335  -0.053  0.00  0.00    +0.025 A 
ATOM     16  C   UNL     1       1.203   2.076  -0.129  0.00  0.00    +0.049 A 
ATOM     17  C   UNL     1       2.631   1.595  -0.078  0.00  0.00    +0.156 C 
ATOM     18  H   UNL     1       3.292  -0.263   3.465  0.00  0.00    +0.156 HD
ENDROOT
BRANCH  17  19
ATOM     19  C   UNL     1       2.898   0.680  -1.246  0.00  0.00    -0.018 A 
ATOM     20  C   UNL     1       3.163  -0.659  -1.028  0.00  0.00    +0.006 A 
ATOM     21  C   UNL     1       3.409  -1.498  -2.099  0.00  0.00    +0.000 A 
ATOM     22  C   UNL     1       3.387  -0.998  -3.388  0.00  0.00    +0.000 A 
ATOM     23  C   UNL     1       3.121   0.341  -3.606  0.00  0.00    +0.004 A 
ATOM     24  C   UNL     1       2.872   1.179  -2.535  0.00  0.00    -0.045 A 
ATOM     25  C   UNL     1       2.576   2.638  -2.772  0.00  0.00    +0.044 C 
ENDBRANCH  17  19
BRANCH   1  31
ATOM     26  C   UNL     1       5.144   0.648   5.255  0.00  0.00    -0.026 A 
ATOM     27  C   UNL     1       6.277   0.856   6.018  0.00  0.00    +0.005 A 
ATOM     28  C   UNL     1       7.505   1.019   5.404  0.00  0.00    +0.000 A 
ATOM     29  C   UNL     1       7.604   0.975   4.026  0.00  0.00    +0.002 A 
ATOM     30  C   UNL     1       6.476   0.762   3.257  0.00  0.00    +0.023 A 
ATOM     31  C   UNL     1       5.240   0.603   3.870  0.00  0.00    +0.038 A 
BRANCH  26  33
ATOM     32  C   UNL     1       3.517  -1.022   6.099  0.00  0.00    +0.009 C 
ATOM     33  C   UNL     1       3.806   0.470   5.924  0.00  0.00    +0.033 C 
ENDBRANCH  26  33
ENDBRANCH   1  31
TORSDOF 3
