REMARK  Name = ZINC10811909
REMARK  5 active torsions:
REMARK  status: ('A' for Active; 'I' for Inactive)
REMARK    1  A    between atoms: C_5  and  S_6
REMARK    2  A    between atoms: S_6  and  N_9
REMARK    3  A    between atoms: C_14  and  C_16
REMARK    4  A    between atoms: N_18  and  C_19
REMARK    5  A    between atoms: C_20  and  C_29
REMARK                            x       y       z     vdW  Elec       q    Type
REMARK                         _______ _______ _______ _____ _____    ______ ____
ROOT
ATOM      1  C   UNL     1      -1.760  -3.377  -4.928  0.00  0.00    +0.236 C 
ATOM      2  O   UNL     1      -2.175  -3.503  -3.795  0.00  0.00    -0.274 OA
ATOM      3  N   UNL     1      -0.821  -2.450  -5.202  0.00  0.00    -0.278 N 
ATOM      4  H   UNL     1      -0.489  -2.348  -6.108  0.00  0.00    +0.155 HD
ENDROOT
BRANCH   3   5
ATOM      5  C   UNL     1      -0.329  -1.640  -4.189  0.00  0.00    +0.084 A 
ATOM      6  C   UNL     1       0.627  -0.641  -4.272  0.00  0.00    +0.068 A 
ATOM      7  C   UNL     1       0.969   0.073  -3.050  0.00  0.00    -0.023 A 
ATOM      8  C   UNL     1       0.311  -0.340  -1.946  0.00  0.00    -0.004 A 
ATOM      9  S   UNL     1      -0.760  -1.633  -2.512  0.00  0.00    -0.077 S 
ATOM     10  C   UNL     1       0.452   0.177  -0.548  0.00  0.00    +0.043 C 
ATOM     11  C   UNL     1       0.377   1.710  -0.565  0.00  0.00    +0.005 C 
ATOM     12  C   UNL     1       1.787   2.260  -0.755  0.00  0.00    +0.001 C 
ATOM     13  C   UNL     1       2.607   1.315  -1.631  0.00  0.00    +0.005 C 
ATOM     14  C   UNL     1       1.988   1.206  -3.021  0.00  0.00    +0.037 C 
BRANCH   6  15
ATOM     15  C   UNL     1       1.273  -0.314  -5.547  0.00  0.00    +0.244 C 
ATOM     16  O   UNL     1       2.297  -0.885  -5.875  0.00  0.00    -0.270 OA
ATOM     17  N   UNL     1       0.733   0.619  -6.356  0.00  0.00    -0.325 N 
ATOM     18  H   UNL     1      -0.083   1.073  -6.095  0.00  0.00    +0.145 HD
ATOM     19  H   UNL     1       1.160   0.835  -7.200  0.00  0.00    +0.145 HD
ENDBRANCH   6  15
ENDBRANCH   3   5
BRANCH   1  25
ATOM     20  N   UNL     1      -3.754  -4.110  -6.111  0.00  0.00    -0.164 NA
ATOM     21  C   UNL     1      -4.502  -4.992  -7.018  0.00  0.00    +0.110 C 
ATOM     22  C   UNL     1      -4.141  -6.448  -6.704  0.00  0.00    +0.017 C 
ATOM     23  C   UNL     1      -2.622  -6.618  -6.772  0.00  0.00    +0.003 C 
ATOM     24  C   UNL     1      -1.958  -5.720  -5.726  0.00  0.00    +0.030 C 
ATOM     25  C   UNL     1      -2.294  -4.256  -6.029  0.00  0.00    +0.166 C 
BRANCH  20  26
ATOM     26  S   UNL     1      -4.542  -2.977  -5.196  0.00  0.00    +0.068 S 
ATOM     27  O   UNL     1      -3.584  -1.977  -4.875  0.00  0.00    -0.152 OA
ATOM     28  O   UNL     1      -5.755  -2.680  -5.873  0.00  0.00    -0.152 OA
BRANCH  26  33
ATOM     29  C   UNL     1      -4.359  -3.707  -2.479  0.00  0.00    +0.038 A 
ATOM     30  C   UNL     1      -4.899  -4.398  -1.411  0.00  0.00    +0.030 A 
ATOM     31  C   UNL     1      -6.038  -5.111  -1.598  0.00  0.00    +0.080 A 
ATOM     32  S   UNL     1      -6.384  -4.808  -3.323  0.00  0.00    -0.057 S 
ATOM     33  C   UNL     1      -4.988  -3.752  -3.678  0.00  0.00    +0.144 A 
ATOM     34 CL   UNL     1      -6.929  -6.068  -0.456  0.00  0.00    -0.076 Cl
ENDBRANCH  26  33
ENDBRANCH  20  26
ENDBRANCH   1  25
TORSDOF 5
