REMARK  Name = ZINC35794518
REMARK  10 active torsions:
REMARK  status: ('A' for Active; 'I' for Inactive)
REMARK    1  A    between atoms: C_1  and  C_2
REMARK    2  A    between atoms: C_6  and  O_8
REMARK    3  A    between atoms: O_8  and  C_9
REMARK    4  A    between atoms: C_9  and  C_10
REMARK    5  A    between atoms: C_10  and  C_12
REMARK    6  A    between atoms: N_18  and  C_23
REMARK    7  A    between atoms: C_23  and  C_24
REMARK    8  A    between atoms: C_27  and  C_29
REMARK    9  A    between atoms: N_31  and  C_32
REMARK   10  A    between atoms: C_32  and  C_33
REMARK                            x       y       z     vdW  Elec       q    Type
REMARK                         _______ _______ _______ _____ _____    ______ ____
ROOT
ATOM      1  C   UNL     1       0.103  -6.245   3.845  0.00  0.00    +0.023 A 
ATOM      2  C   UNL     1       0.115  -7.091   2.729  0.00  0.00    +0.015 A 
ATOM      3  C   UNL     1       0.134  -8.458   2.900  0.00  0.00    +0.048 A 
ATOM      4  C   UNL     1       0.142  -9.000   4.178  0.00  0.00    +0.143 A 
ATOM      5  C   UNL     1       0.130  -8.161   5.296  0.00  0.00    +0.079 A 
ATOM      6  C   UNL     1       0.116  -6.791   5.135  0.00  0.00    +0.038 A 
ATOM      7  N   UNL     1       0.138  -8.729   6.579  0.00  0.00    -0.258 N 
ATOM      8  C   UNL     1       0.472 -10.031   6.716  0.00  0.00    +0.258 C 
ATOM      9  O   UNL     1       0.457 -10.552   7.811  0.00  0.00    -0.271 OA
ATOM     10  C   UNL     1       0.865 -10.833   5.501  0.00  0.00    +0.325 C 
ATOM     11  O   UNL     1       0.162 -10.346   4.355  0.00  0.00    -0.481 OA
ENDROOT
BRANCH   1  12
ATOM     12  C   UNL     1       0.083  -4.787   3.662  0.00  0.00    +0.200 C 
ATOM     13  O   UNL     1       0.077  -4.055   4.629  0.00  0.00    -0.288 OA
BRANCH  12  14
ATOM     14  C   UNL     1       0.069  -4.202   2.274  0.00  0.00    +0.308 C 
BRANCH  14  15
ATOM     15  O   UNL     1       0.050  -2.776   2.358  0.00  0.00    -0.484 OA
BRANCH  15  21
ATOM     16  C   UNL     1      -0.018   1.503   0.010  0.00  0.00    +0.044 C 
ATOM     17  C   UNL     1       0.002  -0.004   0.002  0.00  0.00    -0.047 A 
ATOM     18  C   UNL     1       0.006  -0.688  -1.200  0.00  0.00    +0.003 A 
ATOM     19  C   UNL     1       0.024  -2.071  -1.211  0.00  0.00    +0.004 A 
ATOM     20  C   UNL     1       0.039  -2.772  -0.020  0.00  0.00    +0.045 A 
ATOM     21  C   UNL     1       0.035  -2.088   1.186  0.00  0.00    +0.121 A 
ATOM     22  C   UNL     1       0.023  -0.700   1.195  0.00  0.00    +0.049 A 
ENDBRANCH  15  21
ENDBRANCH  14  15
ENDBRANCH  12  14
ENDBRANCH   1  12
BRANCH   7  23
ATOM     23  C   UNL     1      -0.212  -7.923   7.751  0.00  0.00    +0.188 C 
BRANCH  23  24
ATOM     24  C   UNL     1      -1.696  -8.014   7.999  0.00  0.00    +0.124 A 
ATOM     25  C   UNL     1      -2.309  -8.930   8.780  0.00  0.00    +0.047 A 
ATOM     26  C   UNL     1      -3.685  -8.657   8.735  0.00  0.00    +0.055 A 
ATOM     27  C   UNL     1      -3.844  -7.574   7.919  0.00  0.00    +0.189 A 
ATOM     28  O   UNL     1      -2.623  -7.195   7.486  0.00  0.00    -0.453 OA
BRANCH  27  29
ATOM     29  C   UNL     1      -5.117  -6.933   7.576  0.00  0.00    +0.280 C 
ATOM     30  O   UNL     1      -6.159  -7.364   8.034  0.00  0.00    -0.267 OA
ATOM     31  N   UNL     1      -5.134  -5.865   6.754  0.00  0.00    -0.302 N 
ATOM     32  H   UNL     1      -4.304  -5.520   6.389  0.00  0.00    +0.150 HD
BRANCH  31  33
ATOM     33  C   UNL     1      -6.406  -5.224   6.412  0.00  0.00    +0.179 C 
BRANCH  33  34
ATOM     34  C   UNL     1      -6.151  -4.063   5.486  0.00  0.00    +0.122 A 
ATOM     35  C   UNL     1      -6.125  -4.119   4.142  0.00  0.00    +0.046 A 
ATOM     36  C   UNL     1      -5.853  -2.810   3.682  0.00  0.00    +0.041 A 
ATOM     37  C   UNL     1      -5.728  -2.032   4.772  0.00  0.00    +0.195 A 
ATOM     38  O   UNL     1      -5.915  -2.795   5.862  0.00  0.00    -0.466 OA
ENDBRANCH  33  34
ENDBRANCH  31  33
ENDBRANCH  27  29
ENDBRANCH  23  24
ENDBRANCH   7  23
TORSDOF 9
