REMARK  Name = ZINC27735241
REMARK  7 active torsions:
REMARK  status: ('A' for Active; 'I' for Inactive)
REMARK    1  A    between atoms: C_4  and  C_7
REMARK    2  A    between atoms: C_7  and  C_8
REMARK    3  A    between atoms: C_8  and  C_9
REMARK    4  A    between atoms: C_9  and  C_10
REMARK    5  A    between atoms: N_13  and  C_16
REMARK    6  A    between atoms: C_16  and  C_17
REMARK    7  A    between atoms: C_31  and  C_33
REMARK                            x       y       z     vdW  Elec       q    Type
REMARK                         _______ _______ _______ _____ _____    ______ ____
ROOT
ATOM      1  C   UNL     1      -1.171  -0.472   0.882  0.00  0.00    +0.001 C 
ATOM      2  C   UNL     1       0.002  -0.004   0.002  0.00  0.00    +0.089 C 
ATOM      3  C   UNL     1       1.340  -0.353   0.689  0.00  0.00    +0.058 C 
ATOM      4  C   UNL     1       2.230   0.870   0.416  0.00  0.00    +0.093 C 
ATOM      5  C   UNL     1       3.233   0.540  -0.689  0.00  0.00    +0.037 C 
ATOM      6  C   UNL     1       4.116   1.762  -0.958  0.00  0.00    +0.003 C 
ATOM      7  C   UNL     1       4.862   2.143   0.322  0.00  0.00    +0.000 C 
ATOM      8  C   UNL     1       3.852   2.482   1.420  0.00  0.00    +0.003 C 
ATOM      9  C   UNL     1       2.970   1.262   1.695  0.00  0.00    +0.037 C 
ATOM     10  O   UNL     1       1.373   1.936  -0.001  0.00  0.00    -0.290 OA
ATOM     11  N   UNL     1      -0.018   1.482   0.010  0.00  0.00    -0.183 NA
ATOM     12  C   UNL     1      -0.674   1.870   1.283  0.00  0.00    +0.123 C 
ATOM     13  C   UNL     1      -1.833   0.824   1.402  0.00  0.00    +0.038 C 
ENDROOT
BRANCH  13  14
ATOM     14  C   UNL     1      -2.252   0.669   2.841  0.00  0.00    -0.043 A 
ATOM     15  C   UNL     1      -1.308   0.382   3.809  0.00  0.00    +0.004 A 
ATOM     16  C   UNL     1      -1.692   0.245   5.130  0.00  0.00    +0.000 A 
ATOM     17  C   UNL     1      -3.022   0.384   5.481  0.00  0.00    +0.000 A 
ATOM     18  C   UNL     1      -3.966   0.666   4.512  0.00  0.00    +0.000 A 
ATOM     19  C   UNL     1      -3.582   0.809   3.192  0.00  0.00    +0.004 A 
ENDBRANCH  13  14
BRANCH   1  20
ATOM     20  C   UNL     1      -2.169  -1.280   0.050  0.00  0.00    -0.073 C 
BRANCH  20  24
ATOM     21  C   UNL     1      -4.922  -3.839   2.089  0.00  0.00    -0.014 C 
ATOM     22  C   UNL     1      -5.450  -2.813   1.083  0.00  0.00    -0.015 C 
ATOM     23  C   UNL     1      -4.315  -2.396   0.144  0.00  0.00    -0.079 C 
ATOM     24  N   UNL     1      -3.217  -1.818   0.928  0.00  0.00    +0.380 N 
ATOM     25  C   UNL     1      -2.662  -2.800   1.869  0.00  0.00    -0.079 C 
ATOM     26  C   UNL     1      -3.747  -3.229   2.859  0.00  0.00    -0.015 C 
ATOM     27  H   UNL     1      -3.627  -0.984   1.517  0.00  0.00    -0.082 HD
BRANCH  21  28
ATOM     28  C   UNL     1      -6.036  -4.215   3.068  0.00  0.00    +0.004 C 
BRANCH  28  29
ATOM     29  C   UNL     1      -5.546  -5.330   3.994  0.00  0.00    +0.005 C 
BRANCH  29  30
ATOM     30  C   UNL     1      -6.660  -5.707   4.972  0.00  0.00    +0.035 C 
BRANCH  30  34
ATOM     31  C   UNL     1      -5.293  -8.820   7.558  0.00  0.00    +0.000 A 
ATOM     32  C   UNL     1      -5.111  -7.497   7.914  0.00  0.00    +0.000 A 
ATOM     33  C   UNL     1      -5.553  -6.489   7.077  0.00  0.00    +0.003 A 
ATOM     34  C   UNL     1      -6.178  -6.805   5.884  0.00  0.00    -0.047 A 
ATOM     35  C   UNL     1      -6.364  -8.129   5.531  0.00  0.00    +0.003 A 
ATOM     36  C   UNL     1      -5.917  -9.136   6.366  0.00  0.00    +0.000 A 
ENDBRANCH  30  34
ENDBRANCH  29  30
ENDBRANCH  28  29
ENDBRANCH  21  28
ENDBRANCH  20  24
ENDBRANCH   1  20
TORSDOF 7
