REMARK  Name = ZINC40044794
REMARK  13 active torsions:
REMARK  status: ('A' for Active; 'I' for Inactive)
REMARK    1  A    between atoms: C_1  and  C_2
REMARK    2  A    between atoms: C_2  and  C_3
REMARK    3  A    between atoms: C_3  and  C_4
REMARK    4  A    between atoms: C_4  and  C_5
REMARK    5  A    between atoms: C_5  and  O_6
REMARK    6  A    between atoms: O_6  and  C_7
REMARK    7  A    between atoms: C_10  and  C_16
REMARK    8  A    between atoms: C_12  and  O_13
REMARK    9  A    between atoms: O_13  and  C_14
REMARK   10  A    between atoms: C_14  and  C_15
REMARK   11  A    between atoms: C_23  and  C_40
REMARK   12  A    between atoms: C_25  and  C_39
REMARK   13  A    between atoms: C_36  and  C_38
REMARK                            x       y       z     vdW  Elec       q    Type
REMARK                         _______ _______ _______ _____ _____    ______ ____
ROOT
ATOM      1  C   UNL     1       4.110  -6.520   6.778  0.00  0.00    +0.151 C 
ATOM      2  C   UNL     1       5.590  -6.486   6.583  0.00  0.00    +0.072 A 
ATOM      3  C   UNL     1       6.439  -7.051   5.529  0.00  0.00    +0.199 A 
ATOM      4  O   UNL     1       5.996  -7.530   4.500  0.00  0.00    -0.287 OA
ATOM      5  C   UNL     1       7.890  -6.986   5.837  0.00  0.00    +0.065 A 
ATOM      6  C   UNL     1       8.813  -7.655   5.034  0.00  0.00    +0.018 A 
ATOM      7  C   UNL     1      10.146  -7.589   5.332  0.00  0.00    -0.049 A 
ATOM      8  C   UNL     1      10.580  -6.860   6.431  0.00  0.00    +0.010 A 
ATOM      9  C   UNL     1       9.683  -6.192   7.234  0.00  0.00    -0.007 A 
ATOM     10  C   UNL     1       8.318  -6.241   6.948  0.00  0.00    +0.142 A 
ATOM     11  O   UNL     1       7.456  -5.569   7.744  0.00  0.00    -0.449 OA
ATOM     12  C   UNL     1       6.131  -5.788   7.625  0.00  0.00    +0.199 A 
ATOM     13  C   UNL     1       5.037  -5.362   8.514  0.00  0.00    +0.288 C 
ATOM     14  O   UNL     1       5.181  -4.723   9.538  0.00  0.00    -0.266 OA
ATOM     15  N   UNL     1       3.851  -5.786   8.028  0.00  0.00    -0.238 N 
ATOM     16  C   UNL     1       2.603  -5.566   8.604  0.00  0.00    +0.129 A 
ATOM     17  C   UNL     1       1.473  -6.155   8.047  0.00  0.00    +0.044 A 
ATOM     18  C   UNL     1       0.239  -5.929   8.630  0.00  0.00    +0.005 A 
ATOM     19  C   UNL     1       0.176  -5.117   9.754  0.00  0.00    +0.023 A 
ATOM     20  C   UNL     1       1.339  -4.564  10.255  0.00  0.00    +0.040 A 
ATOM     21  N   UNL     1       2.502  -4.803   9.681  0.00  0.00    -0.237 NA
ATOM     22  C   UNL     1       1.277  -3.682  11.475  0.00  0.00    +0.065 C 
ATOM     23  C   UNL     1      10.175  -5.407   8.422  0.00  0.00    +0.047 C 
ATOM     24  C   UNL     1      11.146  -8.311   4.467  0.00  0.00    +0.044 C 
ENDROOT
BRANCH   1  28
ATOM     25  C   UNL     1       2.146  -4.591   3.505  0.00  0.00    +0.162 A 
ATOM     26  C   UNL     1       2.722  -3.836   4.514  0.00  0.00    +0.050 A 
ATOM     27  C   UNL     1       3.356  -4.462   5.571  0.00  0.00    +0.009 A 
ATOM     28  C   UNL     1       3.417  -5.842   5.624  0.00  0.00    -0.018 A 
ATOM     29  C   UNL     1       2.845  -6.602   4.621  0.00  0.00    +0.055 A 
ATOM     30  C   UNL     1       2.203  -5.980   3.562  0.00  0.00    +0.162 A 
BRANCH  25  31
ATOM     31  O   UNL     1       1.522  -3.976   2.465  0.00  0.00    -0.488 OA
BRANCH  31  32
ATOM     32  C   UNL     1       1.503  -2.548   2.473  0.00  0.00    +0.229 C 
BRANCH  32  33
ATOM     33  C   UNL     1       0.763  -2.041   1.233  0.00  0.00    +0.041 C 
BRANCH  33  34
ATOM     34  C   UNL     1       0.742  -0.511   1.242  0.00  0.00    +0.003 C 
BRANCH  34  36
ATOM     35  C   UNL     1      -0.019   1.526   0.010  0.00  0.00    +0.004 C 
ATOM     36  C   UNL     1       0.002  -0.004   0.002  0.00  0.00    -0.003 C 
ENDBRANCH  34  36
ENDBRANCH  33  34
ENDBRANCH  32  33
ENDBRANCH  31  32
ENDBRANCH  25  31
BRANCH  30  37
ATOM     37  O   UNL     1       1.635  -6.726   2.577  0.00  0.00    -0.489 OA
BRANCH  37  38
ATOM     38  C   UNL     1       1.732  -8.147   2.701  0.00  0.00    +0.226 C 
ATOM     39  C   UNL     1       1.040  -8.811   1.509  0.00  0.00    +0.048 C 
ENDBRANCH  37  38
ENDBRANCH  30  37
ENDBRANCH   1  28
TORSDOF 8
