REMARK  Name = ZINC39439842
REMARK  11 active torsions:
REMARK  status: ('A' for Active; 'I' for Inactive)
REMARK    1  A    between atoms: C_1  and  C_2
REMARK    2  A    between atoms: C_2  and  C_33
REMARK    3  A    between atoms: C_4  and  N_10
REMARK    4  A    between atoms: C_6  and  C_8
REMARK    5  A    between atoms: C_6  and  C_9
REMARK    6  A    between atoms: N_10  and  C_11
REMARK    7  A    between atoms: N_10  and  C_19
REMARK    8  A    between atoms: C_11  and  C_12
REMARK    9  A    between atoms: C_19  and  N_21
REMARK   10  A    between atoms: N_21  and  C_22
REMARK   11  A    between atoms: C_25  and  C_29
REMARK                            x       y       z     vdW  Elec       q    Type
REMARK                         _______ _______ _______ _____ _____    ______ ____
ROOT
ATOM      1  N   UNL     1      -2.861  -2.430   0.176  0.00  0.00    -0.305 N 
ENDROOT
BRANCH   1   5
ATOM      2  C   UNL     1       1.818  -3.918   0.224  0.00  0.00    -0.010 C 
ATOM      3  C   UNL     1       0.927  -2.654   0.215  0.00  0.00    -0.072 C 
ATOM      4  C   UNL     1      -0.521  -3.116   0.341  0.00  0.00    +0.009 C 
ATOM      5  C   UNL     1      -1.476  -1.951   0.080  0.00  0.00    +0.073 C 
ATOM      6  C   UNL     1      -1.219  -1.432  -1.335  0.00  0.00    +0.009 C 
ATOM      7  C   UNL     1       0.224  -0.957  -1.473  0.00  0.00    -0.072 C 
ATOM      8  N   UNL     1       1.197  -1.934  -1.017  0.00  0.00    +0.386 N 
ATOM      9  C   UNL     1       0.399   0.383  -0.751  0.00  0.00    -0.010 C 
ATOM     10  C   UNL     1       0.483  -0.700  -2.976  0.00  0.00    -0.010 C 
ATOM     11  C   UNL     1       1.315  -1.823   1.442  0.00  0.00    -0.010 C 
ATOM     12  H   UNL     1       2.103  -1.464  -0.923  0.00  0.00    -0.084 HD
ATOM     13  H   UNL     1       1.336  -2.620  -1.766  0.00  0.00    -0.084 HD
ENDBRANCH   1   5
BRANCH   1  14
ATOM     14  C   UNL     1      -3.657  -1.993   1.171  0.00  0.00    +0.138 C 
ATOM     15  S   UNL     1      -5.240  -2.623   1.340  0.00  0.00    -0.018 S 
BRANCH  14  16
ATOM     16  N   UNL     1      -3.208  -1.059   2.033  0.00  0.00    -0.296 N 
ATOM     17  H   UNL     1      -2.894  -1.322   2.913  0.00  0.00    +0.154 HD
BRANCH  16  18
ATOM     18  C   UNL     1      -3.193   0.289   1.659  0.00  0.00    +0.051 A 
ATOM     19  C   UNL     1      -3.746   0.682   0.447  0.00  0.00    +0.025 A 
ATOM     20  C   UNL     1      -3.730   2.013   0.081  0.00  0.00    +0.014 A 
ATOM     21  C   UNL     1      -3.165   2.956   0.920  0.00  0.00    +0.056 A 
ATOM     22  C   UNL     1      -2.613   2.570   2.127  0.00  0.00    +0.034 A 
ATOM     23  C   UNL     1      -2.631   1.240   2.502  0.00  0.00    +0.063 A 
ATOM     24 CL   UNL     1      -1.945   0.756   4.022  0.00  0.00    -0.082 Cl
BRANCH  21  25
ATOM     25  C   UNL     1      -3.150   4.408   0.516  0.00  0.00    +0.417 C 
ATOM     26  F   UNL     1      -4.312   5.034   0.981  0.00  0.00    -0.166 F 
ATOM     27  F   UNL     1      -2.029   5.035   1.072  0.00  0.00    -0.166 F 
ATOM     28  F   UNL     1      -3.094   4.504  -0.878  0.00  0.00    -0.166 F 
ENDBRANCH  21  25
ENDBRANCH  16  18
ENDBRANCH  14  16
ENDBRANCH   1  14
BRANCH   1  29
ATOM     29  C   UNL     1      -3.376  -3.383  -0.810  0.00  0.00    +0.142 C 
BRANCH  29  30
ATOM     30  C   UNL     1      -3.180  -4.788  -0.301  0.00  0.00    -0.030 A 
ATOM     31  C   UNL     1      -2.081  -5.523  -0.707  0.00  0.00    +0.008 A 
ATOM     32  C   UNL     1      -1.900  -6.811  -0.240  0.00  0.00    +0.038 A 
ATOM     33  C   UNL     1      -2.819  -7.365   0.634  0.00  0.00    +0.123 A 
ATOM     34  C   UNL     1      -3.919  -6.629   1.040  0.00  0.00    +0.038 A 
ATOM     35  C   UNL     1      -4.095  -5.339   0.576  0.00  0.00    +0.008 A 
ATOM     36  F   UNL     1      -2.643  -8.625   1.091  0.00  0.00    -0.205 F 
ENDBRANCH  29  30
ENDBRANCH   1  29
TORSDOF 7
