REMARK  Name = ZINC45265712
REMARK  14 active torsions:
REMARK  status: ('A' for Active; 'I' for Inactive)
REMARK    1  A    between atoms: C_1  and  C_2
REMARK    2  A    between atoms: C_2  and  C_4
REMARK    3  A    between atoms: C_2  and  O_14
REMARK    4  A    between atoms: N_6  and  C_7
REMARK    5  A    between atoms: C_7  and  C_8
REMARK    6  A    between atoms: C_7  and  C_9
REMARK    7  A    between atoms: C_7  and  C_11
REMARK    8  A    between atoms: C_11  and  C_12
REMARK    9  A    between atoms: C_11  and  C_13
REMARK   10  A    between atoms: O_14  and  C_15
REMARK   11  A    between atoms: C_15  and  C_17
REMARK   12  A    between atoms: N_20  and  C_23
REMARK   13  A    between atoms: C_26  and  C_32
REMARK   14  A    between atoms: C_28  and  N_29
REMARK                            x       y       z     vdW  Elec       q    Type
REMARK                         _______ _______ _______ _____ _____    ______ ____
ROOT
ATOM      1  C   UNL     1       2.792  -1.141   2.244  0.00  0.00    +0.101 C 
ATOM      2  C   UNL     1       2.666  -0.146   3.401  0.00  0.00    +0.033 C 
ATOM      3  C   UNL     1       3.446  -0.672   4.609  0.00  0.00    +0.106 C 
ATOM      4  N   UNL     1       4.830  -0.945   4.196  0.00  0.00    -0.328 N 
ATOM      5  C   UNL     1       5.062  -1.818   3.037  0.00  0.00    +0.106 C 
ATOM      6  C   UNL     1       4.263  -1.278   1.846  0.00  0.00    +0.033 C 
ENDROOT
BRANCH   4   7
ATOM      7  C   UNL     1       5.904  -0.385   4.892  0.00  0.00    +0.060 A 
ATOM      8  C   UNL     1       6.468   0.808   4.458  0.00  0.00    +0.026 A 
ATOM      9  C   UNL     1       7.530   1.359   5.149  0.00  0.00    +0.014 A 
ATOM     10  C   UNL     1       8.030   0.724   6.271  0.00  0.00    +0.057 A 
ATOM     11  C   UNL     1       7.471  -0.463   6.705  0.00  0.00    +0.047 A 
ATOM     12  C   UNL     1       6.405  -1.017   6.023  0.00  0.00    +0.148 A 
BRANCH  10  13
ATOM     13  C   UNL     1       9.189   1.329   7.022  0.00  0.00    +0.417 C 
ATOM     14  F   UNL     1       9.580   2.518   6.398  0.00  0.00    -0.166 F 
ATOM     15  F   UNL     1       8.801   1.599   8.339  0.00  0.00    -0.166 F 
ATOM     16  F   UNL     1      10.261   0.430   7.027  0.00  0.00    -0.166 F 
ENDBRANCH  10  13
BRANCH  12  17
ATOM     17  N   UNL     1       5.803  -2.285   6.492  0.00  0.00    +0.058 N 
ATOM     18  O   UNL     1       6.173  -2.782   7.530  0.00  0.00    -0.126 OA
ATOM     19  O   UNL     1       4.941  -2.823   5.837  0.00  0.00    -0.126 OA
ENDBRANCH  12  17
ENDBRANCH   4   7
BRANCH   1  20
ATOM     20  C   UNL     1       1.997  -0.643   1.065  0.00  0.00    +0.311 C 
ATOM     21  O   UNL     1       2.550  -0.421   0.014  0.00  0.00    -0.251 OA
BRANCH  20  22
ATOM     22  O   UNL     1       0.674  -0.446   1.182  0.00  0.00    -0.452 OA
BRANCH  22  24
ATOM     23  C   UNL     1      -0.023   1.558   0.023  0.00  0.00    +0.062 C 
ATOM     24  C   UNL     1      -0.016   0.028   0.024  0.00  0.00    +0.258 C 
BRANCH  24  25
ATOM     25  C   UNL     1      -1.434  -0.481   0.041  0.00  0.00    +0.255 C 
ATOM     26  O   UNL     1      -1.843  -1.104   0.998  0.00  0.00    -0.272 OA
ATOM     27  N   UNL     1      -2.248  -0.245  -1.006  0.00  0.00    -0.294 N 
ATOM     28  H   UNL     1      -1.921   0.253  -1.772  0.00  0.00    +0.150 HD
BRANCH  27  29
ATOM     29  C   UNL     1      -3.627  -0.739  -0.989  0.00  0.00    +0.121 C 
ATOM     30  C   UNL     1      -4.372  -0.133   0.202  0.00  0.00    +0.048 C 
BRANCH  29  31
ATOM     31  C   UNL     1      -4.329  -0.338  -2.288  0.00  0.00    +0.020 C 
ATOM     32  C   UNL     1      -3.660  -1.044  -3.469  0.00  0.00    +0.010 C 
ATOM     33  C   UNL     1      -5.803  -0.745  -2.218  0.00  0.00    +0.010 C 
ENDBRANCH  29  31
BRANCH  29  34
ATOM     34  C   UNL     1      -3.621  -2.206  -0.868  0.00  0.00    +0.088 C 
ATOM     35  N   UNL     1      -3.616  -3.338  -0.775  0.00  0.00    -0.194 NA
ENDBRANCH  29  34
ENDBRANCH  27  29
ENDBRANCH  24  25
ENDBRANCH  22  24
ENDBRANCH  20  22
ENDBRANCH   1  20
TORSDOF 10
