REMARK  Name = ZINC20611223
REMARK  7 active torsions:
REMARK  status: ('A' for Active; 'I' for Inactive)
REMARK    1  A    between atoms: C_1  and  C_2
REMARK    2  A    between atoms: C_2  and  C_3
REMARK    3  A    between atoms: C_6  and  N_9
REMARK    4  A    between atoms: C_13  and  C_28
REMARK    5  A    between atoms: C_14  and  N_18
REMARK    6  A    between atoms: C_19  and  C_21
REMARK    7  A    between atoms: C_22  and  C_23
REMARK                            x       y       z     vdW  Elec       q    Type
REMARK                         _______ _______ _______ _____ _____    ______ ____
ROOT
ATOM      1  N   UNL     1      -8.119  -5.320  -0.253  0.00  0.00    -0.149 N 
ATOM      2  N   UNL     1      -8.844  -4.257  -0.291  0.00  0.00    -0.147 NA
ATOM      3  C   UNL     1      -8.053  -3.197  -0.222  0.00  0.00    +0.114 A 
ATOM      4  C   UNL     1      -8.221  -1.801  -0.217  0.00  0.00    +0.037 A 
ATOM      5  C   UNL     1      -7.132  -0.995  -0.125  0.00  0.00    -0.027 A 
ATOM      6  C   UNL     1      -5.835  -1.518  -0.046  0.00  0.00    +0.039 A 
ATOM      7  C   UNL     1      -5.606  -2.864  -0.046  0.00  0.00    +0.055 A 
ATOM      8  C   UNL     1      -6.693  -3.750  -0.134  0.00  0.00    +0.115 A 
ATOM      9  N   UNL     1      -6.861  -5.063  -0.162  0.00  0.00    -0.147 NA
ATOM     10  C   UNL     1      -7.323   0.500  -0.114  0.00  0.00    +0.046 C 
ENDROOT
BRANCH   1  14
ATOM     11  C   UNL     1      -9.678  -9.181  -0.410  0.00  0.00    -0.047 A 
ATOM     12  C   UNL     1      -8.312  -8.993  -0.312  0.00  0.00    +0.006 A 
ATOM     13  C   UNL     1      -7.792  -7.714  -0.260  0.00  0.00    +0.030 A 
ATOM     14  C   UNL     1      -8.643  -6.618  -0.306  0.00  0.00    +0.086 A 
ATOM     15  C   UNL     1     -10.015  -6.811  -0.400  0.00  0.00    +0.030 A 
ATOM     16  C   UNL     1     -10.528  -8.091  -0.458  0.00  0.00    +0.006 A 
BRANCH  11  18
ATOM     17  C   UNL     1     -10.535 -11.068   0.953  0.00  0.00    +0.009 C 
ATOM     18  C   UNL     1     -10.242 -10.578  -0.467  0.00  0.00    +0.032 C 
ENDBRANCH  11  18
ENDBRANCH   1  14
BRANCH   6  19
ATOM     19  N   UNL     1      -4.749  -0.642   0.042  0.00  0.00    -0.282 N 
ATOM     20  C   UNL     1      -3.599  -1.048   0.614  0.00  0.00    +0.241 C 
ATOM     21  O   UNL     1      -3.537  -2.143   1.145  0.00  0.00    -0.270 OA
ATOM     22  H   UNL     1      -4.834   0.380  -0.356  0.00  0.00    +0.155 HD
BRANCH  20  23
ATOM     23  C   UNL     1      -2.463  -0.204   0.598  0.00  0.00    +0.071 C 
ATOM     24  C   UNL     1      -1.306  -0.614   1.174  0.00  0.00    +0.051 C 
BRANCH  24  25
ATOM     25  C   UNL     1      -0.169   0.231   1.158  0.00  0.00    +0.128 A 
ATOM     26  C   UNL     1       1.065  -0.056   1.702  0.00  0.00    +0.049 A 
ATOM     27  C   UNL     1       1.881   1.058   1.454  0.00  0.00    +0.042 A 
ATOM     28  C   UNL     1       1.130   1.961   0.783  0.00  0.00    +0.195 A 
ATOM     29  O   UNL     1      -0.101   1.461   0.607  0.00  0.00    -0.464 OA
ENDBRANCH  24  25
ENDBRANCH  20  23
ENDBRANCH   6  19
TORSDOF 5
