REMARK  Name = ZINC39957789
REMARK  11 active torsions:
REMARK  status: ('A' for Active; 'I' for Inactive)
REMARK    1  A    between atoms: C_1  and  C_2
REMARK    2  A    between atoms: C_3  and  C_34
REMARK    3  A    between atoms: C_4  and  C_33
REMARK    4  A    between atoms: C_7  and  C_8
REMARK    5  A    between atoms: C_8  and  C_10
REMARK    6  A    between atoms: C_10  and  C_12
REMARK    7  A    between atoms: C_10  and  S_13
REMARK    8  A    between atoms: S_13  and  C_14
REMARK    9  A    between atoms: N_19  and  C_20
REMARK   10  A    between atoms: C_20  and  C_21
REMARK   11  A    between atoms: C_34  and  C_36
REMARK                            x       y       z     vdW  Elec       q    Type
REMARK                         _______ _______ _______ _____ _____    ______ ____
ROOT
ATOM      1  C   UNL     1       0.926  -2.113   6.327  0.00  0.00    +0.236 C 
ATOM      2  N   UNL     1      -0.457  -2.622   6.324  0.00  0.00    -0.259 N 
ATOM      3  N   UNL     1      -0.387  -3.936   5.847  0.00  0.00    -0.283 N 
ATOM      4  C   UNL     1       0.826  -4.275   5.570  0.00  0.00    +0.179 C 
ATOM      5  N   UNL     1       1.723  -3.244   5.823  0.00  0.00    -0.271 N 
ATOM      6  N   UNL     1       1.193  -5.520   5.079  0.00  0.00    -0.299 N 
ATOM      7  C   UNL     1       0.530  -6.746   5.552  0.00  0.00    +0.136 C 
ATOM      8  C   UNL     1       0.083  -7.556   4.330  0.00  0.00    +0.179 C 
ATOM      9  O   UNL     1       1.197  -7.735   3.451  0.00  0.00    -0.377 OA
ATOM     10  C   UNL     1       1.725  -6.518   2.921  0.00  0.00    +0.179 C 
ATOM     11  C   UNL     1       2.252  -5.654   4.066  0.00  0.00    +0.136 C 
ATOM     12  H   UNL     1      -1.255  -2.143   6.598  0.00  0.00    +0.169 HD
ATOM     13  H   UNL     1      -1.155  -4.519   5.738  0.00  0.00    +0.187 HD
ENDROOT
BRANCH   1  14
ATOM     14  S   UNL     1       1.080  -0.683   5.223  0.00  0.00    -0.107 S 
BRANCH  14  15
ATOM     15  C   UNL     1       0.511  -1.305   3.617  0.00  0.00    +0.119 C 
ATOM     16  C   UNL     1      -0.973  -1.668   3.708  0.00  0.00    +0.027 C 
BRANCH  15  17
ATOM     17  C   UNL     1       0.704  -0.240   2.568  0.00  0.00    +0.192 C 
ATOM     18  O   UNL     1       0.735   0.930   2.890  0.00  0.00    -0.289 OA
BRANCH  17  25
ATOM     19  C   UNL     1       1.112   1.766   0.230  0.00  0.00    +0.047 C 
ATOM     20  C   UNL     1       1.031   0.263   0.153  0.00  0.00    -0.012 A 
ATOM     21  C   UNL     1       1.134  -0.528  -1.014  0.00  0.00    +0.041 A 
ATOM     22  C   UNL     1       1.003  -1.853  -0.622  0.00  0.00    +0.024 A 
ATOM     23  N   UNL     1       0.830  -1.891   0.707  0.00  0.00    -0.355 N 
ATOM     24  H   UNL     1       0.714  -2.697   1.234  0.00  0.00    +0.166 HD
ATOM     25  C   UNL     1       0.849  -0.605   1.208  0.00  0.00    +0.087 A 
ATOM     26  C   UNL     1       1.049  -3.049  -1.537  0.00  0.00    +0.064 C 
BRANCH  21  27
ATOM     27  C   UNL     1       1.339  -0.041  -2.381  0.00  0.00    +0.162 C 
ATOM     28  O   UNL     1       0.386   0.137  -3.111  0.00  0.00    -0.292 OA
ATOM     29  C   UNL     1       2.733   0.239  -2.881  0.00  0.00    +0.091 C 
ENDBRANCH  21  27
ENDBRANCH  17  25
ENDBRANCH  15  17
ENDBRANCH  14  15
ENDBRANCH   1  14
BRANCH   5  30
ATOM     30  C   UNL     1       3.175  -3.274   5.628  0.00  0.00    +0.145 C 
BRANCH  30  31
ATOM     31  C   UNL     1       3.850  -3.626   6.928  0.00  0.00    -0.030 A 
ATOM     32  C   UNL     1       4.123  -2.636   7.854  0.00  0.00    +0.005 A 
ATOM     33  C   UNL     1       4.742  -2.958   9.047  0.00  0.00    +0.000 A 
ATOM     34  C   UNL     1       5.088  -4.270   9.315  0.00  0.00    +0.000 A 
ATOM     35  C   UNL     1       4.813  -5.260   8.389  0.00  0.00    +0.000 A 
ATOM     36  C   UNL     1       4.190  -4.938   7.198  0.00  0.00    +0.005 A 
ENDBRANCH  30  31
ENDBRANCH   5  30
TORSDOF 7
