REMARK  Name = ZINC63515480
REMARK  12 active torsions:
REMARK  status: ('A' for Active; 'I' for Inactive)
REMARK    1  A    between atoms: C_1  and  C_2
REMARK    2  A    between atoms: C_2  and  O_3
REMARK    3  A    between atoms: O_3  and  C_4
REMARK    4  A    between atoms: C_6  and  C_33
REMARK    5  A    between atoms: C_9  and  S_10
REMARK    6  A    between atoms: S_10  and  N_13
REMARK    7  A    between atoms: N_13  and  C_14
REMARK    8  A    between atoms: C_14  and  C_15
REMARK    9  A    between atoms: C_15  and  C_16
REMARK   10  A    between atoms: C_19  and  O_27
REMARK   11  A    between atoms: C_24  and  C_26
REMARK   12  A    between atoms: O_27  and  C_28
REMARK                            x       y       z     vdW  Elec       q    Type
REMARK                         _______ _______ _______ _____ _____    ______ ____
ROOT
ATOM      1  C   UNL     1       3.090   0.766   1.931  0.00  0.00    +0.110 C 
ENDROOT
BRANCH   1   2
ATOM      2  N   UNL     1       3.397  -0.210   2.980  0.00  0.00    -0.190 NA
ATOM      3  H   UNL     1       4.299  -0.554   3.073  0.00  0.00    +0.148 HD
BRANCH   2   4
ATOM      4  S   UNL     1       2.205  -0.724   4.008  0.00  0.00    +0.062 S 
ATOM      5  O   UNL     1       2.818  -1.620   4.925  0.00  0.00    -0.153 OA
ATOM      6  O   UNL     1       1.103  -1.103   3.194  0.00  0.00    -0.153 OA
BRANCH   4  12
ATOM      7  C   UNL     1       2.568   1.303   5.805  0.00  0.00    +0.147 A 
ATOM      8  C   UNL     1       2.157   2.409   6.535  0.00  0.00    +0.052 A 
ATOM      9  C   UNL     1       0.864   2.878   6.406  0.00  0.00    -0.029 A 
ATOM     10  C   UNL     1      -0.020   2.246   5.550  0.00  0.00    +0.046 A 
ATOM     11  C   UNL     1       0.388   1.144   4.821  0.00  0.00    +0.052 A 
ATOM     12  C   UNL     1       1.682   0.675   4.942  0.00  0.00    +0.148 A 
ATOM     13 CL   UNL     1      -1.644   2.838   5.389  0.00  0.00    -0.083 Cl
ATOM     14  C   UNL     1       0.416   4.079   7.199  0.00  0.00    +0.045 C 
BRANCH   7  15
ATOM     15  O   UNL     1       3.840   0.840   5.931  0.00  0.00    -0.490 OA
BRANCH  15  17
ATOM     16  C   UNL     1       6.075   0.877   6.849  0.00  0.00    +0.048 C 
ATOM     17  C   UNL     1       4.665   1.468   6.913  0.00  0.00    +0.226 C 
ENDBRANCH  15  17
ENDBRANCH   7  15
ENDBRANCH   4  12
ENDBRANCH   2   4
ENDBRANCH   1   2
BRANCH   1  18
ATOM     18  C   UNL     1       4.390   1.382   1.411  0.00  0.00    +0.050 C 
BRANCH  18  19
ATOM     19  C   UNL     1       4.074   2.384   0.330  0.00  0.00    -0.037 C 
ATOM     20  C   UNL     1       2.849   2.713  -0.140  0.00  0.00    +0.003 A 
ATOM     21  C   UNL     1       1.497   2.257   0.199  0.00  0.00    +0.056 A 
ATOM     22  C   UNL     1       0.433   2.779  -0.457  0.00  0.00    +0.131 A 
ATOM     23  C   UNL     1       0.574   3.752  -1.462  0.00  0.00    +0.048 A 
ATOM     24  C   UNL     1       1.776   4.233  -1.843  0.00  0.00    +0.029 A 
ATOM     25  C   UNL     1       2.996   3.738  -1.199  0.00  0.00    +0.043 A 
ATOM     26  N   UNL     1       4.261   4.031  -1.376  0.00  0.00    -0.378 N 
ATOM     27  C   UNL     1       5.061   3.228  -0.444  0.00  0.00    +0.103 C 
ATOM     28  C   UNL     1       6.027   2.331  -1.221  0.00  0.00    +0.035 C 
ATOM     29  H   UNL     1       4.609   4.673  -2.014  0.00  0.00    +0.160 HD
BRANCH  22  30
ATOM     30  O   UNL     1      -0.814   2.346  -0.132  0.00  0.00    -0.406 OA
BRANCH  30  31
ATOM     31  C   UNL     1      -1.905   2.898  -0.873  0.00  0.00    +0.575 C 
ATOM     32  F   UNL     1      -1.745   2.601  -2.230  0.00  0.00    -0.133 F 
ATOM     33  F   UNL     1      -3.107   2.348  -0.413  0.00  0.00    -0.133 F 
ATOM     34  F   UNL     1      -1.932   4.286  -0.699  0.00  0.00    -0.133 F 
ENDBRANCH  30  31
ENDBRANCH  22  30
ENDBRANCH  18  19
ENDBRANCH   1  18
TORSDOF 9
