REMARK  Name = ZINC20236478
REMARK  9 active torsions:
REMARK  status: ('A' for Active; 'I' for Inactive)
REMARK    1  A    between atoms: C_1  and  C_2
REMARK    2  A    between atoms: C_5  and  S_8
REMARK    3  A    between atoms: S_8  and  N_11
REMARK    4  A    between atoms: N_11  and  C_12
REMARK    5  A    between atoms: N_11  and  C_25
REMARK    6  A    between atoms: C_12  and  C_13
REMARK    7  A    between atoms: N_15  and  C_16
REMARK    8  A    between atoms: C_16  and  C_17
REMARK    9  A    between atoms: C_28  and  C_32
REMARK                            x       y       z     vdW  Elec       q    Type
REMARK                         _______ _______ _______ _____ _____    ______ ____
ROOT
ATOM      1  N   UNL     1      -4.220   4.617   3.005  0.00  0.00    -0.194 N 
ENDROOT
BRANCH   1   2
ATOM      2  C   UNL     1      -4.259   5.955   2.605  0.00  0.00    +0.053 A 
ATOM      3  C   UNL     1      -5.208   6.816   3.143  0.00  0.00    +0.025 A 
ATOM      4  C   UNL     1      -5.240   8.139   2.750  0.00  0.00    +0.006 A 
ATOM      5  C   UNL     1      -4.337   8.606   1.813  0.00  0.00    -0.032 A 
ATOM      6  C   UNL     1      -3.394   7.751   1.270  0.00  0.00    +0.046 A 
ATOM      7  C   UNL     1      -3.353   6.426   1.664  0.00  0.00    +0.045 A 
ATOM      8 CL   UNL     1      -2.262   8.342   0.095  0.00  0.00    -0.083 Cl
ATOM      9  C   UNL     1      -4.379  10.050   1.383  0.00  0.00    +0.045 C 
ENDBRANCH   1   2
BRANCH   1  10
ATOM     10  S   UNL     1      -5.559   3.659   2.822  0.00  0.00    +0.075 S 
ATOM     11  O   UNL     1      -6.401   4.313   1.883  0.00  0.00    -0.150 OA
ATOM     12  O   UNL     1      -5.086   2.334   2.628  0.00  0.00    -0.150 OA
BRANCH  10  17
ATOM     13  C   UNL     1      -8.504   3.685   8.088  0.00  0.00    +0.044 C 
ATOM     14  C   UNL     1      -7.769   3.679   6.773  0.00  0.00    -0.050 A 
ATOM     15  C   UNL     1      -8.144   4.549   5.767  0.00  0.00    +0.005 A 
ATOM     16  C   UNL     1      -7.469   4.543   4.560  0.00  0.00    +0.029 A 
ATOM     17  C   UNL     1      -6.419   3.667   4.360  0.00  0.00    +0.109 A 
ATOM     18  C   UNL     1      -6.047   2.793   5.365  0.00  0.00    +0.029 A 
ATOM     19  C   UNL     1      -6.719   2.802   6.573  0.00  0.00    +0.005 A 
ENDBRANCH  10  17
ENDBRANCH   1  10
BRANCH   1  20
ATOM     20  C   UNL     1      -2.996   4.062   3.586  0.00  0.00    +0.227 C 
BRANCH  20  21
ATOM     21  C   UNL     1      -2.077   3.608   2.482  0.00  0.00    +0.232 C 
ATOM     22  O   UNL     1      -2.412   3.736   1.323  0.00  0.00    -0.274 OA
ATOM     23  N   UNL     1      -0.882   3.059   2.781  0.00  0.00    -0.310 N 
ATOM     24  H   UNL     1      -0.579   2.943   3.832  0.00  0.00    +0.149 HD
BRANCH  23  25
ATOM     25  C   UNL     1       0.011   2.618   1.708  0.00  0.00    +0.141 C 
BRANCH  25  26
ATOM     26  C   UNL     1       1.271   2.046   2.305  0.00  0.00    -0.012 A 
ATOM     27  C   UNL     1       1.470   0.678   2.320  0.00  0.00    +0.008 A 
ATOM     28  C   UNL     1       2.627   0.154   2.863  0.00  0.00    +0.020 A 
ATOM     29  C   UNL     1       3.588   0.998   3.392  0.00  0.00    +0.042 A 
ATOM     30  C   UNL     1       3.389   2.366   3.378  0.00  0.00    +0.040 A 
ATOM     31  C   UNL     1       2.230   2.891   2.834  0.00  0.00    +0.047 A 
ATOM     32 CL   UNL     1       1.980   4.609   2.816  0.00  0.00    -0.083 Cl
ATOM     33 CL   UNL     1       5.042   0.338   4.075  0.00  0.00    -0.083 Cl
ENDBRANCH  25  26
ENDBRANCH  23  25
ENDBRANCH  20  21
ENDBRANCH   1  20
TORSDOF 7
