REMARK  Name = ZINC15226429
REMARK  6 active torsions:
REMARK  status: ('A' for Active; 'I' for Inactive)
REMARK    1  A    between atoms: C_1  and  C_2
REMARK    2  A    between atoms: N_6  and  C_31
REMARK    3  A    between atoms: N_15  and  C_18
REMARK    4  A    between atoms: C_18  and  N_67
REMARK    5  A    between atoms: C_21  and  C_24
REMARK    6  A    between atoms: C_24  and  C_25
REMARK                            x       y       z     vdW  Elec       q    Type
REMARK                         _______ _______ _______ _____ _____    ______ ____
ROOT
ATOM      1  C   UNL     1      -9.173   3.927  -2.247  0.00  0.00    +0.029 C 
ATOM      2  C   UNL     1      -7.821   3.601  -2.884  0.00  0.00    +0.132 C 
ATOM      3  C   UNL     1      -7.929   3.530  -4.401  0.00  0.00    +0.234 C 
ATOM      4  O   UNL     1      -8.496   4.397  -5.032  0.00  0.00    -0.274 OA
ATOM      5  N   UNL     1      -7.377   2.481  -5.008  0.00  0.00    -0.243 N 
ATOM      6  C   UNL     1      -6.719   1.464  -4.195  0.00  0.00    +0.193 C 
ATOM      7  S   UNL     1      -7.303   1.869  -2.503  0.00  0.00    -0.108 S 
ATOM      8  C   UNL     1      -7.094   0.064  -4.570  0.00  0.00    +0.017 A 
ATOM      9  C   UNL     1      -8.292  -0.605  -4.690  0.00  0.00    +0.009 A 
ATOM     10  C   UNL     1      -8.308  -1.937  -5.064  0.00  0.00    +0.000 A 
ATOM     11  C   UNL     1      -7.119  -2.595  -5.318  0.00  0.00    +0.002 A 
ATOM     12  C   UNL     1      -5.916  -1.930  -5.200  0.00  0.00    +0.024 A 
ATOM     13  C   UNL     1      -5.890  -0.588  -4.830  0.00  0.00    +0.041 A 
ATOM     14  N   UNL     1      -4.816   0.286  -4.642  0.00  0.00    -0.285 N 
ATOM     15  C   UNL     1      -5.223   1.518  -4.270  0.00  0.00    +0.257 C 
ATOM     16  O   UNL     1      -4.518   2.478  -4.043  0.00  0.00    -0.272 OA
ENDROOT
BRANCH   5  17
ATOM     17  C   UNL     1      -7.427   2.356  -6.402  0.00  0.00    +0.039 A 
ATOM     18  C   UNL     1      -6.359   2.786  -7.177  0.00  0.00    +0.026 A 
ATOM     19  C   UNL     1      -6.408   2.657  -8.551  0.00  0.00    +0.040 A 
ATOM     20  C   UNL     1      -7.527   2.109  -9.157  0.00  0.00    +0.124 A 
ATOM     21  C   UNL     1      -8.596   1.685  -8.385  0.00  0.00    +0.040 A 
ATOM     22  C   UNL     1      -8.548   1.807  -7.010  0.00  0.00    +0.026 A 
ATOM     23  F   UNL     1      -7.575   1.988 -10.501  0.00  0.00    -0.205 F 
ENDBRANCH   5  17
BRANCH  14  24
ATOM     24  C   UNL     1      -3.413  -0.090  -4.831  0.00  0.00    +0.038 C 
BRANCH  24  30
ATOM     25  C   UNL     1      -1.407  -0.421  -3.517  0.00  0.00    -0.076 C 
ATOM     26  C   UNL     1      -0.855  -1.083  -2.252  0.00  0.00    -0.015 C 
ATOM     27  C   UNL     1      -1.502  -0.440  -1.022  0.00  0.00    -0.010 C 
ATOM     28  C   UNL     1      -3.023  -0.587  -1.119  0.00  0.00    -0.015 C 
ATOM     29  C   UNL     1      -3.512   0.059  -2.417  0.00  0.00    -0.076 C 
ATOM     30  N   UNL     1      -2.871  -0.620  -3.563  0.00  0.00    +0.390 N 
ATOM     31  H   UNL     1      -3.072  -1.626  -3.510  0.00  0.00    -0.080 HD
BRANCH  27  32
ATOM     32  C   UNL     1      -1.000  -1.139   0.243  0.00  0.00    +0.038 C 
BRANCH  32  33
ATOM     33  C   UNL     1      -1.543  -0.430   1.457  0.00  0.00    -0.047 A 
ATOM     34  C   UNL     1      -0.829   0.605   2.030  0.00  0.00    +0.003 A 
ATOM     35  C   UNL     1      -1.329   1.258   3.141  0.00  0.00    +0.000 A 
ATOM     36  C   UNL     1      -2.539   0.869   3.685  0.00  0.00    +0.000 A 
ATOM     37  C   UNL     1      -3.251  -0.170   3.115  0.00  0.00    +0.000 A 
ATOM     38  C   UNL     1      -2.753  -0.819   2.001  0.00  0.00    +0.003 A 
ENDBRANCH  32  33
ENDBRANCH  27  32
ENDBRANCH  24  30
ENDBRANCH  14  24
TORSDOF 5
