REMARK  Name = ZINC44942539
REMARK  5 active torsions:
REMARK  status: ('A' for Active; 'I' for Inactive)
REMARK    1  A    between atoms: C_13  and  C_15
REMARK    2  A    between atoms: C_21  and  C_23
REMARK    3  A    between atoms: N_25  and  C_26
REMARK    4  A    between atoms: C_26  and  C_27
REMARK    5  A    between atoms: C_31  and  C_33
REMARK                            x       y       z     vdW  Elec       q    Type
REMARK                         _______ _______ _______ _____ _____    ______ ____
ROOT
ATOM      1  C   UNL     1       0.176  -6.648   1.147  0.00  0.00    +0.087 C 
ATOM      2  C   UNL     1      -0.685  -6.214   2.335  0.00  0.00    +0.013 C 
ATOM      3  C   UNL     1      -1.991  -7.011   2.337  0.00  0.00    +0.001 C 
ATOM      4  C   UNL     1      -1.677  -8.504   2.453  0.00  0.00    +0.001 C 
ATOM      5  C   UNL     1      -0.817  -8.938   1.264  0.00  0.00    +0.013 C 
ATOM      6  C   UNL     1       0.489  -8.141   1.262  0.00  0.00    +0.087 C 
ENDROOT
BRANCH   1  19
ATOM      7  C   UNL     1       2.564   1.096  -1.252  0.00  0.00    +0.005 A 
ATOM      8  C   UNL     1       1.336   1.691  -1.513  0.00  0.00    +0.018 A 
ATOM      9  C   UNL     1       0.194   0.915  -1.505  0.00  0.00    +0.084 A 
ATOM     10  N   UNL     1       0.256  -0.379  -1.254  0.00  0.00    -0.350 N 
ATOM     11  C   UNL     1       1.407  -0.982  -1.000  0.00  0.00    +0.099 A 
ATOM     12  C   UNL     1       2.598  -0.262  -0.992  0.00  0.00    +0.042 A 
ATOM     13  N   UNL     1       1.426  -2.348  -0.740  0.00  0.00    -0.314 N 
ATOM     14  C   UNL     1       2.701  -3.062  -0.586  0.00  0.00    +0.125 C 
ATOM     15  C   UNL     1       2.698  -3.784   0.767  0.00  0.00    +0.126 C 
ATOM     16  N   UNL     1       1.444  -4.539   0.893  0.00  0.00    -0.298 N 
ATOM     17  C   UNL     1       0.169  -3.825   0.739  0.00  0.00    +0.126 C 
ATOM     18  C   UNL     1       0.172  -3.102  -0.609  0.00  0.00    +0.125 C 
ATOM     19  C   UNL     1       1.462  -5.863   1.145  0.00  0.00    +0.219 C 
ATOM     20  O   UNL     1       2.514  -6.423   1.371  0.00  0.00    -0.275 OA
ATOM     21  H   UNL     1      -0.561  -0.900  -1.254  0.00  0.00    +0.166 HD
ENDBRANCH   1  19
BRANCH   6  22
ATOM     22  C   UNL     1       1.337  -8.568   0.092  0.00  0.00    +0.217 C 
ATOM     23  O   UNL     1       1.659  -7.758  -0.752  0.00  0.00    -0.275 OA
ATOM     24  N   UNL     1       1.738  -9.851  -0.018  0.00  0.00    -0.311 N 
ATOM     25  H   UNL     1       1.480 -10.498   0.657  0.00  0.00    +0.149 HD
BRANCH  24  26
ATOM     26  C   UNL     1       2.562 -10.266  -1.155  0.00  0.00    +0.139 C 
BRANCH  26  27
ATOM     27  C   UNL     1       2.870 -11.736  -1.042  0.00  0.00    -0.030 A 
ATOM     28  C   UNL     1       3.999 -12.155  -0.361  0.00  0.00    +0.008 A 
ATOM     29  C   UNL     1       4.283 -13.503  -0.256  0.00  0.00    +0.039 A 
ATOM     30  C   UNL     1       3.437 -14.435  -0.832  0.00  0.00    +0.135 A 
ATOM     31  C   UNL     1       2.307 -14.015  -1.513  0.00  0.00    +0.090 A 
ATOM     32  C   UNL     1       2.022 -12.666  -1.613  0.00  0.00    +0.020 A 
ATOM     33  F   UNL     1       3.714 -15.754  -0.730  0.00  0.00    -0.205 F 
BRANCH  31  34
ATOM     34  C   UNL     1       1.385 -15.029  -2.141  0.00  0.00    +0.420 C 
ATOM     35  F   UNL     1       0.323 -14.368  -2.767  0.00  0.00    -0.166 F 
ATOM     36  F   UNL     1       2.092 -15.778  -3.088  0.00  0.00    -0.166 F 
ATOM     37  F   UNL     1       0.886 -15.881  -1.151  0.00  0.00    -0.166 F 
ENDBRANCH  31  34
ENDBRANCH  26  27
ENDBRANCH  24  26
ENDBRANCH   6  22
TORSDOF 5
