REMARK  Name = ZINC22322006
REMARK  12 active torsions:
REMARK  status: ('A' for Active; 'I' for Inactive)
REMARK    1  A    between atoms: C_1  and  C_2
REMARK    2  A    between atoms: C_2  and  O_3
REMARK    3  A    between atoms: O_3  and  C_4
REMARK    4  A    between atoms: C_9  and  N_10
REMARK    5  A    between atoms: N_10  and  C_11
REMARK    6  A    between atoms: N_10  and  S_28
REMARK    7  A    between atoms: C_11  and  C_12
REMARK    8  A    between atoms: N_14  and  C_15
REMARK    9  A    between atoms: C_18  and  C_26
REMARK   10  A    between atoms: C_18  and  C_27
REMARK   11  A    between atoms: S_28  and  C_31
REMARK   12  A    between atoms: C_34  and  C_37
REMARK                            x       y       z     vdW  Elec       q    Type
REMARK                         _______ _______ _______ _____ _____    ______ ____
ROOT
ATOM      1  N   UNL     1       4.640   6.464   0.751  0.00  0.00    -0.191 N 
ENDROOT
BRANCH   1   7
ATOM      2  C   UNL     1       6.437   5.091   1.610  0.00  0.00    +0.143 A 
ATOM      3  C   UNL     1       7.206   3.941   1.538  0.00  0.00    +0.047 A 
ATOM      4  C   UNL     1       6.974   3.016   0.536  0.00  0.00    +0.004 A 
ATOM      5  C   UNL     1       5.972   3.232  -0.391  0.00  0.00    +0.002 A 
ATOM      6  C   UNL     1       5.197   4.374  -0.322  0.00  0.00    +0.028 A 
ATOM      7  C   UNL     1       5.423   5.306   0.679  0.00  0.00    +0.093 A 
BRANCH   2   8
ATOM      8  O   UNL     1       6.668   6.004   2.591  0.00  0.00    -0.490 OA
BRANCH   8  10
ATOM      9  C   UNL     1       7.832   6.849   4.533  0.00  0.00    +0.048 C 
ATOM     10  C   UNL     1       7.723   5.716   3.510  0.00  0.00    +0.226 C 
ENDBRANCH   8  10
ENDBRANCH   2   8
ENDBRANCH   1   7
BRANCH   1  11
ATOM     11  S   UNL     1       5.169   7.867   0.050  0.00  0.00    +0.075 S 
ATOM     12  O   UNL     1       6.083   7.491  -0.971  0.00  0.00    -0.150 OA
ATOM     13  O   UNL     1       4.013   8.651  -0.214  0.00  0.00    -0.150 OA
BRANCH  11  14
ATOM     14  C   UNL     1       6.101   8.738   1.265  0.00  0.00    +0.109 A 
ATOM     15  C   UNL     1       5.473   9.641   2.102  0.00  0.00    +0.029 A 
ATOM     16  C   UNL     1       6.203  10.321   3.059  0.00  0.00    +0.005 A 
ATOM     17  C   UNL     1       7.564  10.105   3.172  0.00  0.00    -0.050 A 
ATOM     18  C   UNL     1       8.193   9.206   2.332  0.00  0.00    +0.005 A 
ATOM     19  C   UNL     1       7.462   8.522   1.378  0.00  0.00    +0.029 A 
ATOM     20  C   UNL     1       8.361  10.849   4.213  0.00  0.00    +0.044 C 
ENDBRANCH  11  14
ENDBRANCH   1  11
BRANCH   1  21
ATOM     21  C   UNL     1       3.351   6.434   1.447  0.00  0.00    +0.227 C 
BRANCH  21  22
ATOM     22  C   UNL     1       2.282   5.942   0.505  0.00  0.00    +0.233 C 
ATOM     23  O   UNL     1       2.569   5.647  -0.636  0.00  0.00    -0.274 OA
ATOM     24  N   UNL     1       1.008   5.832   0.929  0.00  0.00    -0.307 N 
ATOM     25  H   UNL     1       0.748   6.100   1.964  0.00  0.00    +0.149 HD
BRANCH  24  26
ATOM     26  C   UNL     1      -0.031   5.354   0.013  0.00  0.00    +0.110 C 
ATOM     27  C   UNL     1      -1.392   5.889   0.464  0.00  0.00    +0.074 C 
ATOM     28  C   UNL     1      -2.484   5.148  -0.319  0.00  0.00    +0.107 C 
ATOM     29  O   UNL     1      -2.445   3.769   0.049  0.00  0.00    -0.486 OA
ATOM     30  C   UNL     1      -1.240   3.141   0.029  0.00  0.00    +0.126 A 
ATOM     31  C   UNL     1      -0.050   3.847   0.018  0.00  0.00    +0.015 A 
ATOM     32  C   UNL     1       1.155   3.165   0.006  0.00  0.00    +0.009 A 
ATOM     33  C   UNL     1       1.175   1.784   0.000  0.00  0.00    +0.001 A 
ATOM     34  C   UNL     1      -0.013   1.076   0.008  0.00  0.00    +0.004 A 
ATOM     35  C   UNL     1      -1.217   1.750   0.017  0.00  0.00    +0.046 A 
ATOM     36  C   UNL     1      -2.227   5.288  -1.821  0.00  0.00    +0.055 C 
ATOM     37  C   UNL     1      -3.854   5.735   0.027  0.00  0.00    +0.055 C 
ENDBRANCH  24  26
ENDBRANCH  21  22
ENDBRANCH   1  21
TORSDOF 8
