REMARK  Name = ZINC16569963
REMARK  7 active torsions:
REMARK  status: ('A' for Active; 'I' for Inactive)
REMARK    1  A    between atoms: C_1  and  C_2
REMARK    2  A    between atoms: C_6  and  N_9
REMARK    3  A    between atoms: C_7  and  C_8
REMARK    4  A    between atoms: N_12  and  C_13
REMARK    5  A    between atoms: N_12  and  C_37
REMARK    6  A    between atoms: C_13  and  C_14
REMARK    7  A    between atoms: C_28  and  C_30
REMARK                            x       y       z     vdW  Elec       q    Type
REMARK                         _______ _______ _______ _____ _____    ______ ____
ROOT
ATOM      1  C   UNL     1       0.449   1.248  -0.798  0.00  0.00    +0.238 C 
ATOM      2  O   UNL     1       1.550   1.758  -0.829  0.00  0.00    -0.273 OA
ATOM      3  N   UNL     1      -0.630   1.951  -1.195  0.00  0.00    -0.255 N 
ATOM      4  C   UNL     1      -0.470   3.240  -1.721  0.00  0.00    +0.061 A 
ATOM      5  C   UNL     1       0.599   4.031  -1.340  0.00  0.00    +0.025 A 
ATOM      6  C   UNL     1       0.751   5.294  -1.879  0.00  0.00    +0.002 A 
ATOM      7  C   UNL     1      -0.157   5.776  -2.804  0.00  0.00    +0.002 A 
ATOM      8  C   UNL     1      -1.231   4.994  -3.193  0.00  0.00    +0.028 A 
ATOM      9  C   UNL     1      -1.391   3.732  -2.656  0.00  0.00    +0.068 A 
ATOM     10  N   UNL     1      -2.468   2.907  -3.012  0.00  0.00    -0.316 N 
ATOM     11  C   UNL     1      -3.352   3.016  -4.032  0.00  0.00    +0.092 A 
ATOM     12  C   UNL     1      -4.202   1.967  -3.966  0.00  0.00    +0.020 A 
ATOM     13  C   UNL     1      -3.825   1.181  -2.855  0.00  0.00    +0.025 A 
ATOM     14  C   UNL     1      -2.769   1.774  -2.287  0.00  0.00    +0.049 A 
ATOM     15  C   UNL     1      -1.975   1.364  -1.071  0.00  0.00    +0.159 C 
ENDROOT
BRANCH  15  16
ATOM     16  C   UNL     1      -2.645   1.883   0.175  0.00  0.00    -0.021 A 
ATOM     17  C   UNL     1      -2.497   3.209   0.538  0.00  0.00    +0.008 A 
ATOM     18  C   UNL     1      -3.115   3.687   1.679  0.00  0.00    +0.038 A 
ATOM     19  C   UNL     1      -3.873   2.834   2.463  0.00  0.00    +0.123 A 
ATOM     20  C   UNL     1      -4.016   1.506   2.101  0.00  0.00    +0.038 A 
ATOM     21  C   UNL     1      -3.402   1.031   0.958  0.00  0.00    +0.008 A 
ATOM     22  F   UNL     1      -4.474   3.299   3.580  0.00  0.00    -0.205 F 
ENDBRANCH  15  16
BRANCH   1  23
ATOM     23  C   UNL     1       0.290  -0.172  -0.321  0.00  0.00    +0.205 C 
BRANCH  23  27
ATOM     24  N   UNL     1       1.452  -0.125   2.182  0.00  0.00    -0.269 N 
ATOM     25  C   UNL     1       2.166  -0.641   1.162  0.00  0.00    +0.307 C 
ATOM     26  O   UNL     1       3.311  -1.007   1.345  0.00  0.00    -0.252 OA
ATOM     27  N   UNL     1       1.611  -0.751  -0.061  0.00  0.00    -0.274 N 
ATOM     28  H   UNL     1       0.512   0.081   2.061  0.00  0.00    +0.156 HD
BRANCH  24  34
ATOM     29  C   UNL     1       1.086   0.449   7.052  0.00  0.00    +0.044 C 
ATOM     30  C   UNL     1       1.913   0.395   5.793  0.00  0.00    -0.046 A 
ATOM     31  C   UNL     1       3.282   0.582   5.858  0.00  0.00    +0.004 A 
ATOM     32  C   UNL     1       4.044   0.534   4.705  0.00  0.00    +0.002 A 
ATOM     33  C   UNL     1       3.441   0.294   3.486  0.00  0.00    +0.023 A 
ATOM     34  C   UNL     1       2.067   0.112   3.417  0.00  0.00    +0.038 A 
ATOM     35  C   UNL     1       1.304   0.161   4.576  0.00  0.00    -0.026 A 
ATOM     36  C   UNL     1      -0.188  -0.042   4.507  0.00  0.00    +0.046 C 
ENDBRANCH  24  34
BRANCH  27  37
ATOM     37  C   UNL     1       2.328  -1.450  -1.131  0.00  0.00    +0.078 C 
ATOM     38  C   UNL     1       3.502  -2.344  -0.727  0.00  0.00    +0.024 C 
ATOM     39  C   UNL     1       3.762  -1.007  -1.426  0.00  0.00    +0.024 C 
ENDBRANCH  27  37
ENDBRANCH  23  27
ENDBRANCH   1  23
TORSDOF 5
