REMARK  Name = ZINC35969956
REMARK  11 active torsions:
REMARK  status: ('A' for Active; 'I' for Inactive)
REMARK    1  A    between atoms: C_1  and  C_2
REMARK    2  A    between atoms: C_5  and  C_8
REMARK    3  A    between atoms: C_10  and  C_33
REMARK    4  A    between atoms: C_11  and  C_32
REMARK    5  A    between atoms: C_15  and  C_18
REMARK    6  A    between atoms: C_19  and  N_21
REMARK    7  A    between atoms: N_24  and  C_27
REMARK    8  A    between atoms: C_33  and  O_35
REMARK    9  A    between atoms: O_35  and  C_36
REMARK   10  A    between atoms: C_36  and  C_37
REMARK   11  A    between atoms: C_36  and  C_38
REMARK                            x       y       z     vdW  Elec       q    Type
REMARK                         _______ _______ _______ _____ _____    ______ ____
ROOT
ATOM      1  C   UNL     1      -0.070  -4.030   0.046  0.00  0.00    +0.150 C 
ATOM      2  C   UNL     1       1.271  -4.668  -0.241  0.00  0.00    +0.082 C 
ATOM      3  C   UNL     1       1.620  -5.790   0.486  0.00  0.00    +0.053 C 
ATOM      4  N   UNL     1       0.798  -6.279   1.399  0.00  0.00    -0.230 NA
ATOM      5  C   UNL     1      -0.381  -5.773   1.698  0.00  0.00    +0.166 C 
ATOM      6  N   UNL     1      -0.910  -4.667   1.095  0.00  0.00    -0.267 N 
ATOM      7  C   UNL     1      -2.160  -4.260   1.519  0.00  0.00    +0.048 C 
ATOM      8  C   UNL     1      -2.757  -4.982   2.492  0.00  0.00    +0.072 C 
ATOM      9  S   UNL     1      -1.546  -6.247   2.809  0.00  0.00    -0.060 S 
ATOM     10  C   UNL     1       2.946  -6.461   0.236  0.00  0.00    +0.066 C 
ENDROOT
BRANCH   1  15
ATOM     11  C   UNL     1       0.862   1.457   1.601  0.00  0.00    +0.044 C 
ATOM     12  C   UNL     1       0.619   0.026   1.196  0.00  0.00    -0.050 A 
ATOM     13  C   UNL     1       0.164  -0.264  -0.077  0.00  0.00    +0.004 A 
ATOM     14  C   UNL     1      -0.059  -1.577  -0.449  0.00  0.00    +0.006 A 
ATOM     15  C   UNL     1       0.174  -2.599   0.451  0.00  0.00    -0.022 A 
ATOM     16  C   UNL     1       0.630  -2.309   1.724  0.00  0.00    +0.006 A 
ATOM     17  C   UNL     1       0.857  -0.997   2.094  0.00  0.00    +0.004 A 
ENDBRANCH   1  15
BRANCH   7  18
ATOM     18  C   UNL     1      -2.816  -3.082   0.934  0.00  0.00    +0.091 C 
ATOM     19  C   UNL     1      -4.088  -2.786   1.264  0.00  0.00    +0.241 C 
ATOM     20  O   UNL     1      -4.723  -3.502   2.223  0.00  0.00    -0.271 OA
BRANCH  19  21
ATOM     21  N   UNL     1      -4.747  -1.751   0.622  0.00  0.00    -0.302 N 
ATOM     22  C   UNL     1      -4.445  -1.415  -0.778  0.00  0.00    +0.089 C 
ATOM     23  C   UNL     1      -5.764  -1.339  -1.554  0.00  0.00    -0.059 C 
ATOM     24  N   UNL     1      -6.670  -0.396  -0.886  0.00  0.00    +0.384 N 
ATOM     25  C   UNL     1      -7.024  -0.901   0.447  0.00  0.00    -0.059 C 
ATOM     26  C   UNL     1      -5.772  -0.959   1.320  0.00  0.00    +0.089 C 
ATOM     27  H   UNL     1      -6.214   0.499  -0.794  0.00  0.00    -0.081 HD
BRANCH  24  28
ATOM     28  C   UNL     1      -7.891  -0.240  -1.688  0.00  0.00    -0.068 C 
ATOM     29  C   UNL     1      -7.545   0.368  -3.063  0.00  0.00    -0.015 C 
ATOM     30  C   UNL     1      -8.733   1.313  -3.371  0.00  0.00    -0.002 C 
ATOM     31  C   UNL     1      -9.056   1.919  -1.982  0.00  0.00    -0.002 C 
ATOM     32  C   UNL     1      -8.851   0.746  -1.001  0.00  0.00    -0.015 C 
ENDBRANCH  24  28
ENDBRANCH  19  21
ENDBRANCH   7  18
BRANCH   2  33
ATOM     33  C   UNL     1       2.130  -4.139  -1.212  0.00  0.00    +0.339 C 
ATOM     34  O   UNL     1       3.252  -4.595  -1.347  0.00  0.00    -0.245 OA
BRANCH  33  35
ATOM     35  O   UNL     1       1.715  -3.122  -2.000  0.00  0.00    -0.459 OA
BRANCH  35  36
ATOM     36  C   UNL     1       2.644  -2.632  -2.969  0.00  0.00    +0.171 C 
ATOM     37  C   UNL     1       2.474  -3.408  -4.277  0.00  0.00    +0.052 C 
ATOM     38  C   UNL     1       2.382  -1.146  -3.220  0.00  0.00    +0.052 C 
ENDBRANCH  35  36
ENDBRANCH  33  35
ENDBRANCH   2  33
TORSDOF 7
