REMARK  Name = ZINC45548420
REMARK  9 active torsions:
REMARK  status: ('A' for Active; 'I' for Inactive)
REMARK    1  A    between atoms: C_1  and  C_2
REMARK    2  A    between atoms: C_3  and  C_31
REMARK    3  A    between atoms: N_4  and  C_25
REMARK    4  A    between atoms: C_5  and  N_9
REMARK    5  A    between atoms: C_6  and  C_7
REMARK    6  A    between atoms: C_10  and  C_12
REMARK    7  A    between atoms: C_12  and  N_13
REMARK    8  A    between atoms: C_16  and  C_19
REMARK    9  A    between atoms: C_25  and  C_26
REMARK                            x       y       z     vdW  Elec       q    Type
REMARK                         _______ _______ _______ _____ _____    ______ ____
ROOT
ATOM      1  N   UNL     1       0.056  -3.346   1.432  0.00  0.00    -0.272 N 
ATOM      2  C   UNL     1       0.172  -4.543   0.823  0.00  0.00    +0.202 C 
ATOM      3  O   UNL     1       0.350  -4.598  -0.376  0.00  0.00    -0.278 OA
ATOM      4  H   UNL     1       0.000  -3.298   2.399  0.00  0.00    +0.156 HD
ENDROOT
BRANCH   1   9
ATOM      5  C   UNL     1      -0.693  -0.015  -2.293  0.00  0.00    +0.047 C 
ATOM      6  C   UNL     1      -0.306  -0.655  -0.985  0.00  0.00    -0.011 A 
ATOM      7  C   UNL     1       0.265  -0.047   0.068  0.00  0.00    +0.022 A 
ATOM      8  N   UNL     1       0.461  -0.962   1.067  0.00  0.00    -0.324 N 
ATOM      9  C   UNL     1       0.017  -2.184   0.677  0.00  0.00    +0.124 A 
ATOM     10  C   UNL     1      -0.487  -2.063  -0.611  0.00  0.00    +0.095 A 
ATOM     11  C   UNL     1       0.633   1.413   0.137  0.00  0.00    +0.064 C 
BRANCH  10  12
ATOM     12  C   UNL     1      -1.063  -3.101  -1.412  0.00  0.00    +0.103 C 
ATOM     13  N   UNL     1      -1.520  -3.924  -2.047  0.00  0.00    -0.191 NA
ENDBRANCH  10  12
BRANCH   8  14
ATOM     14  C   UNL     1       1.063  -0.664   2.370  0.00  0.00    +0.197 C 
BRANCH  14  15
ATOM     15  C   UNL     1       0.002  -0.146   3.307  0.00  0.00    +0.124 A 
ATOM     16  C   UNL     1      -0.756  -0.894   4.128  0.00  0.00    +0.046 A 
ATOM     17  C   UNL     1      -1.611  -0.006   4.820  0.00  0.00    +0.041 A 
ATOM     18  C   UNL     1      -1.324   1.232   4.379  0.00  0.00    +0.195 A 
ATOM     19  O   UNL     1      -0.343   1.142   3.467  0.00  0.00    -0.466 OA
ENDBRANCH  14  15
ENDBRANCH   8  14
ENDBRANCH   1   9
BRANCH   2  20
ATOM     20  C   UNL     1       0.081  -5.812   1.630  0.00  0.00    +0.019 C 
BRANCH  20  21
ATOM     21  N   UNL     1       0.237  -6.971   0.741  0.00  0.00    +0.385 N 
ATOM     22  C   UNL     1      -0.888  -7.018  -0.201  0.00  0.00    -0.078 C 
ATOM     23  C   UNL     1      -0.689  -8.175  -1.182  0.00  0.00    -0.011 C 
ATOM     24  C   UNL     1      -0.618  -9.492  -0.402  0.00  0.00    +0.016 C 
ATOM     25  C   UNL     1       0.511  -9.403   0.628  0.00  0.00    -0.011 C 
ATOM     26  C   UNL     1       0.268  -8.200   1.542  0.00  0.00    -0.078 C 
ATOM     27  H   UNL     1       1.100  -6.884   0.226  0.00  0.00    -0.081 HD
BRANCH  24  28
ATOM     28  C   UNL     1      -0.344 -10.627  -1.354  0.00  0.00    -0.044 A 
ATOM     29  C   UNL     1       0.813 -10.631  -2.110  0.00  0.00    +0.004 A 
ATOM     30  C   UNL     1       1.065 -11.673  -2.983  0.00  0.00    +0.000 A 
ATOM     31  C   UNL     1       0.159 -12.711  -3.100  0.00  0.00    +0.000 A 
ATOM     32  C   UNL     1      -0.998 -12.707  -2.343  0.00  0.00    +0.000 A 
ATOM     33  C   UNL     1      -1.247 -11.668  -1.467  0.00  0.00    +0.004 A 
ENDBRANCH  24  28
ENDBRANCH  20  21
ENDBRANCH   2  20
TORSDOF 7
