REMARK  Name = ZINC08453095
REMARK  7 active torsions:
REMARK  status: ('A' for Active; 'I' for Inactive)
REMARK    1  A    between atoms: C_1  and  C_2
REMARK    2  A    between atoms: N_7  and  C_8
REMARK    3  A    between atoms: C_8  and  C_10
REMARK    4  A    between atoms: C_8  and  C_20
REMARK    5  A    between atoms: C_14  and  N_16
REMARK    6  A    between atoms: C_26  and  C_31
REMARK    7  A    between atoms: C_29  and  O_30
REMARK                            x       y       z     vdW  Elec       q    Type
REMARK                         _______ _______ _______ _____ _____    ______ ____
ROOT
ATOM      1  C   UNL     1       0.345   3.138   7.005  0.00  0.00    +0.136 C 
ENDROOT
BRANCH   1   2
ATOM      2  C   UNL     1      -0.528   2.791   5.827  0.00  0.00    +0.021 A 
ATOM      3  C   UNL     1      -1.912   2.894   5.945  0.00  0.00    +0.010 A 
ATOM      4  C   UNL     1      -2.728   2.588   4.899  0.00  0.00    +0.010 A 
ATOM      5  C   UNL     1      -2.171   2.161   3.682  0.00  0.00    +0.004 A 
ATOM      6  C   UNL     1      -2.983   1.836   2.579  0.00  0.00    +0.012 A 
ATOM      7  C   UNL     1      -2.371   1.433   1.426  0.00  0.00    +0.023 A 
ATOM      8  C   UNL     1      -0.982   1.345   1.370  0.00  0.00    +0.039 A 
ATOM      9  N   UNL     1      -0.230   1.648   2.400  0.00  0.00    -0.248 NA
ATOM     10  C   UNL     1      -0.765   2.054   3.555  0.00  0.00    +0.113 A 
ATOM     11  C   UNL     1       0.050   2.380   4.660  0.00  0.00    +0.148 A 
ATOM     12  C   UNL     1      -0.326   0.893   0.091  0.00  0.00    +0.065 C 
BRANCH  11  13
ATOM     13  O   UNL     1       1.401   2.284   4.564  0.00  0.00    -0.504 OA
ATOM     14  H   UNL     1       1.832   3.095   4.260  0.00  0.00    +0.292 HD
ENDBRANCH  11  13
ENDBRANCH   1   2
BRANCH   1  21
ATOM     15  C   UNL     1       4.007   5.650   9.562  0.00  0.00    +0.044 C 
ATOM     16  C   UNL     1       2.502   5.718   9.514  0.00  0.00    -0.046 A 
ATOM     17  C   UNL     1       1.807   6.631  10.296  0.00  0.00    +0.021 A 
ATOM     18  C   UNL     1       0.429   6.668  10.228  0.00  0.00    +0.084 A 
ATOM     19  C   UNL     1       0.394   4.964   8.673  0.00  0.00    +0.097 A 
ATOM     20  C   UNL     1       1.782   4.872   8.690  0.00  0.00    +0.045 A 
ATOM     21  N   UNL     1      -0.342   4.120   7.849  0.00  0.00    -0.320 N 
ATOM     22  H   UNL     1      -1.310   4.180   7.834  0.00  0.00    +0.148 HD
ATOM     23  N   UNL     1      -0.311   5.856   9.426  0.00  0.00    -0.350 N 
ATOM     24  H   UNL     1      -1.335   5.912   9.390  0.00  0.00    +0.166 HD
ENDBRANCH   1  21
BRANCH   1  25
ATOM     25  C   UNL     1       0.624   1.893   7.808  0.00  0.00    -0.021 A 
ATOM     26  C   UNL     1      -0.324   1.416   8.694  0.00  0.00    +0.007 A 
ATOM     27  C   UNL     1      -0.069   0.274   9.430  0.00  0.00    +0.022 A 
ATOM     28  C   UNL     1       1.135  -0.391   9.280  0.00  0.00    +0.071 A 
ATOM     29  C   UNL     1       2.083   0.088   8.393  0.00  0.00    +0.145 A 
ATOM     30  C   UNL     1       1.824   1.226   7.653  0.00  0.00    +0.040 A 
ATOM     31 CL   UNL     1       1.457  -1.824  10.205  0.00  0.00    -0.081 Cl
BRANCH  29  32
ATOM     32  N   UNL     1       3.371  -0.623   8.231  0.00  0.00    +0.058 N 
ATOM     33  O   UNL     1       4.205  -0.202   7.450  0.00  0.00    -0.126 OA
ATOM     34  O   UNL     1       3.597  -1.630   8.879  0.00  0.00    -0.126 OA
ENDBRANCH  29  32
ENDBRANCH   1  25
TORSDOF 5
