REMARK  Name = ZINC33788489
REMARK  8 active torsions:
REMARK  status: ('A' for Active; 'I' for Inactive)
REMARK    1  A    between atoms: C_1  and  C_2
REMARK    2  A    between atoms: C_9  and  N_29
REMARK    3  A    between atoms: C_10  and  C_13
REMARK    4  A    between atoms: N_17  and  C_21
REMARK    5  A    between atoms: N_29  and  C_30
REMARK    6  A    between atoms: C_30  and  C_31
REMARK    7  A    between atoms: C_31  and  C_32
REMARK    8  A    between atoms: C_31  and  C_33
REMARK                            x       y       z     vdW  Elec       q    Type
REMARK                         _______ _______ _______ _____ _____    ______ ____
ROOT
ATOM      1  C   UNL     1      -4.947  -4.088   0.334  0.00  0.00    +0.047 C 
ATOM      2  C   UNL     1      -4.899  -2.584   0.253  0.00  0.00    -0.007 A 
ATOM      3  C   UNL     1      -6.054  -1.861   0.242  0.00  0.00    +0.008 A 
ATOM      4  C   UNL     1      -5.994  -0.462   0.167  0.00  0.00    +0.019 A 
ATOM      5  C   UNL     1      -4.796   0.162   0.106  0.00  0.00    +0.096 A 
ATOM      6  N   UNL     1      -3.635  -0.552   0.117  0.00  0.00    -0.267 N 
ATOM      7  C   UNL     1      -3.663  -1.917   0.189  0.00  0.00    +0.145 A 
ATOM      8  N   UNL     1      -2.538  -2.634   0.200  0.00  0.00    -0.214 NA
ATOM      9  C   UNL     1      -1.346  -2.058   0.141  0.00  0.00    +0.134 A 
ATOM     10  C   UNL     1      -1.256  -0.648   0.065  0.00  0.00    +0.081 A 
ATOM     11  C   UNL     1      -2.456   0.103   0.060  0.00  0.00    +0.267 A 
ATOM     12  O   UNL     1      -2.425   1.320   0.001  0.00  0.00    -0.267 OA
ENDROOT
BRANCH  10  13
ATOM     13  C   UNL     1       0.002  -0.004   0.002  0.00  0.00    +0.037 C 
ATOM     14  C   UNL     1       0.367   0.671  -1.127  0.00  0.00    +0.077 C 
ATOM     15  C   UNL     1      -0.300   0.766  -2.381  0.00  0.00    +0.259 C 
ATOM     16  O   UNL     1      -1.360   0.196  -2.572  0.00  0.00    -0.269 OA
ATOM     17  N   UNL     1       0.260   1.495  -3.331  0.00  0.00    -0.251 N 
ATOM     18  C   UNL     1       1.439   2.122  -3.121  0.00  0.00    +0.121 C 
ATOM     19  S   UNL     1       2.340   3.101  -4.199  0.00  0.00    -0.027 S 
ATOM     20  S   UNL     1       1.817   1.670  -1.435  0.00  0.00    -0.061 S 
BRANCH  17  21
ATOM     21  C   UNL     1      -0.404   1.619  -4.631  0.00  0.00    +0.105 C 
ATOM     22  C   UNL     1      -0.695   3.102  -4.916  0.00  0.00    +0.047 C 
ATOM     23  C   UNL     1      -1.104   3.237  -6.410  0.00  0.00    +0.168 C 
ATOM     24  S   UNL     1       0.097   2.081  -7.193  0.00  0.00    -0.029 S 
ATOM     25  O   UNL     1       1.251   2.810  -7.588  0.00  0.00    -0.174 OA
ATOM     26  O   UNL     1      -0.587   1.281  -8.149  0.00  0.00    -0.174 OA
ATOM     27  C   UNL     1       0.516   1.043  -5.734  0.00  0.00    +0.188 C 
ENDBRANCH  17  21
ENDBRANCH  10  13
BRANCH   9  28
ATOM     28  N   UNL     1      -0.203  -2.826   0.154  0.00  0.00    -0.328 N 
ATOM     29  H   UNL     1       0.785  -2.344   0.106  0.00  0.00    +0.147 HD
BRANCH  28  30
ATOM     30  C   UNL     1      -0.302  -4.286   0.233  0.00  0.00    +0.106 C 
BRANCH  30  31
ATOM     31  C   UNL     1       1.102  -4.893   0.232  0.00  0.00    -0.000 C 
ATOM     32  C   UNL     1       1.843  -4.469   1.501  0.00  0.00    +0.009 C 
ATOM     33  C   UNL     1       0.998  -6.419   0.188  0.00  0.00    +0.009 C 
ENDBRANCH  30  31
ENDBRANCH  28  30
ENDBRANCH   9  28
TORSDOF 5
