REMARK  Name = ZINC35355900
REMARK  4 active torsions:
REMARK  status: ('A' for Active; 'I' for Inactive)
REMARK    1  A    between atoms: C_1  and  C_2
REMARK    2  A    between atoms: C_5  and  N_9
REMARK    3  A    between atoms: N_9  and  C_10
REMARK    4  A    between atoms: C_15  and  N_16
REMARK                            x       y       z     vdW  Elec       q    Type
REMARK                         _______ _______ _______ _____ _____    ______ ____
ROOT
ATOM      1  C   UNL     1      -0.032  -4.816  -1.261  0.00  0.00    +0.054 A 
ATOM      2  C   UNL     1      -0.034  -4.076  -2.433  0.00  0.00    +0.048 A 
ATOM      3  C   UNL     1      -0.123  -4.720  -3.659  0.00  0.00    +0.038 A 
ATOM      4  C   UNL     1      -0.210  -6.106  -3.712  0.00  0.00    -0.024 A 
ATOM      5  C   UNL     1      -0.208  -6.846  -2.544  0.00  0.00    +0.030 A 
ATOM      6  C   UNL     1      -0.114  -6.207  -1.317  0.00  0.00    +0.046 A 
ATOM      7  C   UNL     1      -0.305  -6.800  -5.045  0.00  0.00    +0.046 C 
ATOM      8  C   UNL     1      -1.099  -5.930  -6.020  0.00  0.00    +0.101 C 
ATOM      9  C   UNL     1      -0.575  -4.519  -5.991  0.00  0.00    +0.218 C 
ATOM     10  O   UNL     1      -0.557  -3.865  -7.012  0.00  0.00    -0.275 OA
ATOM     11  N   UNL     1      -0.125  -3.975  -4.845  0.00  0.00    -0.285 N 
ATOM     12  H   UNL     1       0.199  -3.061  -4.840  0.00  0.00    +0.155 HD
ENDROOT
BRANCH   6  13
ATOM     13  N   UNL     1      -0.106  -6.959  -0.134  0.00  0.00    -0.357 N 
ATOM     14  H   UNL     1      -0.044  -6.512   0.725  0.00  0.00    +0.142 HD
ATOM     15  H   UNL     1      -0.164  -7.927  -0.174  0.00  0.00    +0.142 HD
ENDBRANCH   6  13
BRANCH   1  16
ATOM     16  N   UNL     1       0.059  -4.168  -0.023  0.00  0.00    -0.312 N 
ATOM     17  H   UNL     1      -0.023  -4.678   0.798  0.00  0.00    +0.152 HD
BRANCH  16  22
ATOM     18  C   UNL     1       0.901   1.437   0.190  0.00  0.00    +0.044 C 
ATOM     19  C   UNL     1       0.677  -0.053   0.134  0.00  0.00    -0.049 A 
ATOM     20  C   UNL     1       1.397  -0.826  -0.759  0.00  0.00    +0.005 A 
ATOM     21  C   UNL     1       1.194  -2.191  -0.813  0.00  0.00    +0.024 A 
ATOM     22  C   UNL     1       0.266  -2.788   0.030  0.00  0.00    +0.046 A 
ATOM     23  C   UNL     1      -0.456  -2.008   0.926  0.00  0.00    +0.039 A 
ATOM     24  C   UNL     1      -0.244  -0.644   0.979  0.00  0.00    +0.020 A 
ATOM     25 BR   UNL     1      -1.721  -2.815   2.077  0.00  0.00    -0.048 Br
ENDBRANCH  16  22
ENDBRANCH   1  16
TORSDOF 3
