REMARK  Name = ZINC00091443
REMARK  4 active torsions:
REMARK  status: ('A' for Active; 'I' for Inactive)
REMARK    1  A    between atoms: C_5  and  C_7
REMARK    2  A    between atoms: C_10  and  C_21
REMARK    3  A    between atoms: C_16  and  N_20
REMARK    4  A    between atoms: C_17  and  C_18
REMARK                            x       y       z     vdW  Elec       q    Type
REMARK                         _______ _______ _______ _____ _____    ______ ____
ROOT
ATOM      1  C   UNL     1       1.228  -2.186  -0.022  0.00  0.00    +0.104 C 
ATOM      2  C   UNL     1       0.525  -2.711   1.203  0.00  0.00    +0.056 A 
ATOM      3  C   UNL     1       0.946  -2.704   2.536  0.00  0.00    +0.118 A 
ATOM      4  N   UNL     1       0.001  -3.271   3.263  0.00  0.00    -0.169 NA
ATOM      5  N   UNL     1      -1.044  -3.653   2.409  0.00  0.00    -0.246 N 
ATOM      6  H   UNL     1      -1.867  -4.092   2.675  0.00  0.00    +0.192 HD
ATOM      7  C   UNL     1      -0.704  -3.303   1.151  0.00  0.00    +0.223 A 
ATOM      8  O   UNL     1      -1.389  -3.468  -0.008  0.00  0.00    -0.423 OA
ATOM      9  C   UNL     1      -0.717  -3.283  -1.163  0.00  0.00    +0.200 C 
ATOM     10  C   UNL     1       0.500  -2.698  -1.240  0.00  0.00    +0.098 C 
ENDROOT
BRANCH   1  15
ATOM     11  C   UNL     1      -0.017   1.378   0.010  0.00  0.00    +0.000 A 
ATOM     12  C   UNL     1       1.171   2.087   0.002  0.00  0.00    +0.003 A 
ATOM     13  C   UNL     1       2.377   1.414  -0.013  0.00  0.00    +0.038 A 
ATOM     14  C   UNL     1       2.397   0.029  -0.021  0.00  0.00    +0.127 A 
ATOM     15  C   UNL     1       1.208  -0.679  -0.013  0.00  0.00    +0.001 A 
ATOM     16  C   UNL     1       0.002  -0.004   0.002  0.00  0.00    +0.007 A 
ATOM     17  F   UNL     1       3.577  -0.630  -0.036  0.00  0.00    -0.205 F 
ENDBRANCH   1  15
BRANCH   3  18
ATOM     18  C   UNL     1       2.227  -2.156   3.044  0.00  0.00    +0.091 A 
ATOM     19  C   UNL     1       2.323  -1.737   4.370  0.00  0.00    +0.030 A 
ATOM     20  C   UNL     1       3.525  -1.228   4.829  0.00  0.00    +0.004 A 
ATOM     21  C   UNL     1       4.594  -1.154   3.946  0.00  0.00    +0.020 A 
ATOM     22  C   UNL     1       4.429  -1.588   2.644  0.00  0.00    +0.111 A 
ATOM     23  N   UNL     1       3.274  -2.073   2.234  0.00  0.00    -0.253 NA
ENDBRANCH   3  18
BRANCH   9  24
ATOM     24  N   UNL     1      -1.302  -3.712  -2.328  0.00  0.00    -0.328 N 
ATOM     25  H   UNL     1      -2.175  -4.136  -2.305  0.00  0.00    +0.145 HD
ATOM     26  H   UNL     1      -0.843  -3.593  -3.174  0.00  0.00    +0.145 HD
ENDBRANCH   9  24
BRANCH  10  27
ATOM     27  C   UNL     1       1.120  -2.559  -2.523  0.00  0.00    +0.101 C 
ATOM     28  N   UNL     1       1.612  -2.449  -3.541  0.00  0.00    -0.191 NA
ENDBRANCH  10  27
TORSDOF 4
