REMARK  Name = ZINC11995489
REMARK  6 active torsions:
REMARK  status: ('A' for Active; 'I' for Inactive)
REMARK    1  A    between atoms: C_1  and  C_2
REMARK    2  A    between atoms: C_3  and  C_13
REMARK    3  A    between atoms: C_4  and  C_7
REMARK    4  A    between atoms: N_15  and  C_16
REMARK    5  A    between atoms: C_16  and  C_17
REMARK    6  A    between atoms: C_24  and  C_27
REMARK                            x       y       z     vdW  Elec       q    Type
REMARK                         _______ _______ _______ _____ _____    ______ ____
ROOT
ATOM      1  C   UNL     1      -0.013   1.086   0.008  0.00  0.00    +0.149 C 
ENDROOT
BRANCH   1   2
ATOM      2  C   UNL     1      -0.753   1.593  -1.232  0.00  0.00    +0.195 C 
ATOM      3  C   UNL     1      -0.089   1.058  -2.523  0.00  0.00    +0.088 C 
ATOM      4  C   UNL     1      -1.291   0.823  -3.417  0.00  0.00    +0.034 A 
ATOM      5  C   UNL     1      -1.408   0.622  -4.778  0.00  0.00    +0.130 A 
ATOM      6  C   UNL     1      -2.657   0.435  -5.351  0.00  0.00    +0.039 A 
ATOM      7  C   UNL     1      -3.786   0.449  -4.559  0.00  0.00    +0.015 A 
ATOM      8  C   UNL     1      -3.676   0.648  -3.186  0.00  0.00    +0.024 A 
ATOM      9  C   UNL     1      -2.413   0.835  -2.602  0.00  0.00    +0.135 A 
ATOM     10  O   UNL     1      -2.077   1.037  -1.297  0.00  0.00    -0.486 OA
ATOM     11  F   UNL     1      -0.302   0.608  -5.554  0.00  0.00    -0.205 F 
BRANCH   8  12
ATOM     12  C   UNL     1      -4.893   0.663  -2.340  0.00  0.00    -0.012 A 
ATOM     13  C   UNL     1      -4.973  -0.119  -1.183  0.00  0.00    +0.028 A 
ATOM     14  C   UNL     1      -6.123  -0.071  -0.422  0.00  0.00    +0.111 A 
ATOM     15  N   UNL     1      -7.140   0.690  -0.778  0.00  0.00    -0.263 NA
ATOM     16  C   UNL     1      -7.107   1.438  -1.865  0.00  0.00    +0.111 A 
ATOM     17  C   UNL     1      -5.995   1.454  -2.680  0.00  0.00    +0.028 A 
ENDBRANCH   8  12
ENDBRANCH   1   2
BRANCH   1  20
ATOM     18  C   UNL     1      -0.222   1.232   2.431  0.00  0.00    +0.250 C 
ATOM     19  O   UNL     1       0.777   0.546   2.530  0.00  0.00    -0.270 OA
ATOM     20  N   UNL     1      -0.698   1.558   1.213  0.00  0.00    -0.308 N 
ATOM     21  H   UNL     1      -1.495   2.106   1.135  0.00  0.00    +0.149 HD
BRANCH  18  24
ATOM     22  C   UNL     1      -2.575  -0.219   4.027  0.00  0.00    +0.090 C 
ATOM     23  C   UNL     1      -1.923   1.102   4.345  0.00  0.00    +0.147 A 
ATOM     24  C   UNL     1      -0.911   1.707   3.643  0.00  0.00    +0.106 A 
ATOM     25  C   UNL     1      -0.689   2.957   4.400  0.00  0.00    +0.126 A 
ATOM     26  N   UNL     1      -1.546   2.915   5.388  0.00  0.00    -0.077 NA
ATOM     27  O   UNL     1      -2.216   1.911   5.365  0.00  0.00    -0.359 OA
BRANCH  25  28
ATOM     28  C   UNL     1       0.294   4.028   4.104  0.00  0.00    +0.004 A 
ATOM     29  C   UNL     1       1.542   3.705   3.574  0.00  0.00    +0.010 A 
ATOM     30  C   UNL     1       2.450   4.706   3.295  0.00  0.00    +0.001 A 
ATOM     31  C   UNL     1       2.128   6.027   3.551  0.00  0.00    +0.000 A 
ATOM     32  C   UNL     1       0.892   6.353   4.082  0.00  0.00    +0.001 A 
ATOM     33  C   UNL     1      -0.025   5.360   4.359  0.00  0.00    +0.010 A 
ENDBRANCH  25  28
ENDBRANCH  18  24
ENDBRANCH   1  20
TORSDOF 5
