REMARK  Name = ZINC09103250
REMARK  14 active torsions:
REMARK  status: ('A' for Active; 'I' for Inactive)
REMARK    1  A    between atoms: C_1  and  C_2
REMARK    2  A    between atoms: C_2  and  C_3
REMARK    3  A    between atoms: C_3  and  C_5
REMARK    4  A    between atoms: C_3  and  C_6
REMARK    5  A    between atoms: C_9  and  N_12
REMARK    6  A    between atoms: C_13  and  C_15
REMARK    7  A    between atoms: C_15  and  S_16
REMARK    8  A    between atoms: S_16  and  C_17
REMARK    9  A    between atoms: C_20  and  C_29
REMARK   10  A    between atoms: N_21  and  C_22
REMARK   11  A    between atoms: C_29  and  C_31
REMARK   12  A    between atoms: C_29  and  N_62
REMARK   13  A    between atoms: C_32  and  N_62
REMARK   14  A    between atoms: C_33  and  N_62
REMARK                            x       y       z     vdW  Elec       q    Type
REMARK                         _______ _______ _______ _____ _____    ______ ____
ROOT
ATOM      1  C   UNL     1      -5.749   3.559  10.836  0.00  0.00    +0.197 A 
ATOM      2  N   UNL     1      -6.812   4.281  10.566  0.00  0.00    -0.122 NA
ATOM      3  N   UNL     1      -7.397   4.625  11.658  0.00  0.00    -0.135 NA
ATOM      4  C   UNL     1      -6.749   4.149  12.683  0.00  0.00    +0.125 A 
ATOM      5  N   UNL     1      -5.678   3.447  12.198  0.00  0.00    -0.275 N 
ENDROOT
BRANCH   5   6
ATOM      6  C   UNL     1      -4.707   2.759  12.942  0.00  0.00    +0.050 A 
ATOM      7  C   UNL     1      -5.068   1.655  13.702  0.00  0.00    +0.028 A 
ATOM      8  C   UNL     1      -4.110   0.976  14.430  0.00  0.00    +0.022 A 
ATOM      9  C   UNL     1      -2.794   1.402  14.410  0.00  0.00    +0.041 A 
ATOM     10  C   UNL     1      -2.433   2.506  13.657  0.00  0.00    +0.022 A 
ATOM     11  C   UNL     1      -3.386   3.184  12.923  0.00  0.00    +0.028 A 
ATOM     12 CL   UNL     1      -1.593   0.551  15.330  0.00  0.00    -0.084 Cl
ENDBRANCH   5   6
BRANCH   4  13
ATOM     13  C   UNL     1      -7.114   4.331  14.134  0.00  0.00    -0.003 C 
ATOM     14  C   UNL     1      -8.308   3.438  14.476  0.00  0.00    -0.005 C 
BRANCH  13  17
ATOM     15  C   UNL     1      -8.696   6.101  13.659  0.00  0.00    -0.096 C 
ATOM     16  C   UNL     1      -7.599   6.005  15.815  0.00  0.00    -0.096 C 
ATOM     17  N   UNL     1      -7.447   5.753  14.367  0.00  0.00    +0.382 N 
ATOM     18  H   UNL     1      -6.684   6.337  14.005  0.00  0.00    -0.082 HD
ENDBRANCH  13  17
ENDBRANCH   4  13
BRANCH   1  19
ATOM     19  S   UNL     1      -4.632   2.861   9.667  0.00  0.00    -0.076 S 
BRANCH  19  20
ATOM     20  C   UNL     1      -5.390   3.434   8.127  0.00  0.00    +0.173 C 
BRANCH  20  22
ATOM     21  N   UNL     1      -4.959   3.248   5.698  0.00  0.00    -0.285 N 
ATOM     22  C   UNL     1      -4.581   2.942   6.955  0.00  0.00    +0.227 C 
ATOM     23  O   UNL     1      -3.589   2.270   7.142  0.00  0.00    -0.275 OA
ATOM     24  H   UNL     1      -5.707   3.848   5.549  0.00  0.00    +0.155 HD
BRANCH  21  28
ATOM     25  C   UNL     1      -2.918   1.620   2.452  0.00  0.00    -0.044 A 
ATOM     26  C   UNL     1      -3.448   2.894   2.365  0.00  0.00    +0.006 A 
ATOM     27  C   UNL     1      -4.130   3.435   3.437  0.00  0.00    +0.023 A 
ATOM     28  C   UNL     1      -4.274   2.701   4.608  0.00  0.00    +0.033 A 
ATOM     29  C   UNL     1      -3.735   1.424   4.694  0.00  0.00    +0.023 A 
ATOM     30  C   UNL     1      -3.059   0.887   3.616  0.00  0.00    +0.006 A 
BRANCH  25  31
ATOM     31  C   UNL     1      -2.179   1.031   1.278  0.00  0.00    +0.016 C 
ATOM     32  C   UNL     1      -0.978   1.916   0.935  0.00  0.00    +0.012 C 
BRANCH  31  34
ATOM     33  C   UNL     1      -2.406   0.244  -1.083  0.00  0.00    +0.004 C 
ATOM     34  C   UNL     1      -3.116   0.955   0.071  0.00  0.00    +0.004 C 
ENDBRANCH  31  34
ENDBRANCH  25  31
ENDBRANCH  21  28
ENDBRANCH  20  22
ENDBRANCH  19  20
ENDBRANCH   1  19
TORSDOF 9
