REMARK  Name = ZINC09972775
REMARK  10 active torsions:
REMARK  status: ('A' for Active; 'I' for Inactive)
REMARK    1  A    between atoms: C_1  and  C_2
REMARK    2  A    between atoms: C_2  and  O_3
REMARK    3  A    between atoms: O_3  and  C_4
REMARK    4  A    between atoms: C_6  and  C_14
REMARK    5  A    between atoms: C_9  and  O_10
REMARK    6  A    between atoms: O_10  and  C_11
REMARK    7  A    between atoms: C_11  and  C_12
REMARK    8  A    between atoms: C_11  and  C_13
REMARK    9  A    between atoms: C_14  and  C_15
REMARK   10  A    between atoms: C_14  and  C_27
REMARK                            x       y       z     vdW  Elec       q    Type
REMARK                         _______ _______ _______ _____ _____    ______ ____
ROOT
ATOM      1  C   UNL     1       0.634  -4.974  -0.021  0.00  0.00    +0.101 C 
ENDROOT
BRANCH   1   2
ATOM      2  C   UNL     1       0.801  -5.734   1.269  0.00  0.00    +0.096 A 
ATOM      3  C   UNL     1       1.899  -6.526   1.462  0.00  0.00    +0.200 A 
ATOM      4  C   UNL     1       2.014  -7.247   2.739  0.00  0.00    +0.065 A 
ATOM      5  C   UNL     1       3.110  -8.073   3.004  0.00  0.00    +0.015 A 
ATOM      6  C   UNL     1       3.188  -8.734   4.210  0.00  0.00    +0.001 A 
ATOM      7  C   UNL     1       2.186  -8.583   5.157  0.00  0.00    +0.004 A 
ATOM      8  C   UNL     1       1.099  -7.771   4.908  0.00  0.00    +0.047 A 
ATOM      9  C   UNL     1       1.001  -7.095   3.699  0.00  0.00    +0.143 A 
ATOM     10  O   UNL     1      -0.056  -6.296   3.439  0.00  0.00    -0.422 OA
ATOM     11  C   UNL     1      -0.167  -5.629   2.279  0.00  0.00    +0.345 A 
ATOM     12  O   UNL     1      -1.139  -4.917   2.096  0.00  0.00    -0.245 OA
ATOM     13  O   UNL     1       2.851  -6.642   0.508  0.00  0.00    -0.287 OA
ENDBRANCH   1   2
BRANCH   1  14
ATOM     14  C   UNL     1       0.690  -5.934  -1.182  0.00  0.00    +0.096 A 
ATOM     15  C   UNL     1       0.281  -7.229  -1.021  0.00  0.00    +0.200 A 
ATOM     16  C   UNL     1       0.356  -8.126  -2.185  0.00  0.00    +0.065 A 
ATOM     17  C   UNL     1      -0.046  -9.461  -2.093  0.00  0.00    +0.015 A 
ATOM     18  C   UNL     1       0.037 -10.274  -3.201  0.00  0.00    +0.001 A 
ATOM     19  C   UNL     1       0.515  -9.774  -4.403  0.00  0.00    +0.004 A 
ATOM     20  C   UNL     1       0.915  -8.458  -4.507  0.00  0.00    +0.047 A 
ATOM     21  C   UNL     1       0.840  -7.621  -3.402  0.00  0.00    +0.143 A 
ATOM     22  O   UNL     1       1.227  -6.329  -3.487  0.00  0.00    -0.422 OA
ATOM     23  C   UNL     1       1.157  -5.502  -2.432  0.00  0.00    +0.345 A 
ATOM     24  O   UNL     1       1.514  -4.344  -2.563  0.00  0.00    -0.245 OA
ATOM     25  O   UNL     1      -0.178  -7.672   0.171  0.00  0.00    -0.287 OA
ENDBRANCH   1  14
BRANCH   1  28
ATOM     26  C   UNL     1      -1.976  -2.254   0.230  0.00  0.00    +0.162 A 
ATOM     27  C   UNL     1      -0.754  -2.907   0.227  0.00  0.00    +0.054 A 
ATOM     28  C   UNL     1      -0.696  -4.266  -0.019  0.00  0.00    -0.031 A 
ATOM     29  C   UNL     1      -1.856  -4.977  -0.264  0.00  0.00    +0.008 A 
ATOM     30  C   UNL     1      -3.079  -4.332  -0.263  0.00  0.00    +0.050 A 
ATOM     31  C   UNL     1      -3.144  -2.971  -0.011  0.00  0.00    +0.162 A 
BRANCH  26  32
ATOM     32  O   UNL     1      -2.034  -0.918   0.472  0.00  0.00    -0.489 OA
BRANCH  32  34
ATOM     33  C   UNL     1      -1.060   1.239   0.963  0.00  0.00    +0.048 C 
ATOM     34  C   UNL     1      -0.795  -0.247   0.711  0.00  0.00    +0.226 C 
ENDBRANCH  32  34
ENDBRANCH  26  32
BRANCH  31  35
ATOM     35  O   UNL     1      -4.347  -2.336  -0.004  0.00  0.00    -0.486 OA
BRANCH  35  36
ATOM     36  C   UNL     1      -5.512  -3.152  -0.147  0.00  0.00    +0.167 C 
ATOM     37  C   UNL     1      -6.712  -2.441   0.481  0.00  0.00    +0.051 C 
ATOM     38  C   UNL     1      -5.784  -3.396  -1.633  0.00  0.00    +0.051 C 
ENDBRANCH  35  36
ENDBRANCH  31  35
ENDBRANCH   1  28
TORSDOF 7
