REMARK  Name = ZINC00975950
REMARK  8 active torsions:
REMARK  status: ('A' for Active; 'I' for Inactive)
REMARK    1  A    between atoms: C_1  and  C_2
REMARK    2  A    between atoms: C_2  and  C_4
REMARK    3  A    between atoms: C_8  and  C_10
REMARK    4  A    between atoms: C_10  and  C_11
REMARK    5  A    between atoms: C_10  and  C_12
REMARK    6  A    between atoms: C_10  and  N_13
REMARK    7  A    between atoms: N_16  and  C_17
REMARK    8  A    between atoms: C_17  and  C_18
REMARK                            x       y       z     vdW  Elec       q    Type
REMARK                         _______ _______ _______ _____ _____    ______ ____
ROOT
ATOM      1  N   UNL     1       8.223  -1.625   0.572  0.00  0.00    -0.290 N 
ATOM      2  C   UNL     1       7.368  -1.168   1.508  0.00  0.00    +0.301 C 
ATOM      3  O   UNL     1       7.773  -0.897   2.622  0.00  0.00    -0.253 OA
ATOM      4  N   UNL     1       6.063  -1.010   1.210  0.00  0.00    -0.295 N 
ATOM      5  H   UNL     1       7.899  -1.841  -0.316  0.00  0.00    +0.151 HD
ATOM      6  H   UNL     1       5.739  -1.226   0.321  0.00  0.00    +0.151 HD
ENDROOT
BRANCH   1   7
ATOM      7  C   UNL     1       9.641  -1.796   0.897  0.00  0.00    +0.056 C 
ATOM      8  C   UNL     1      10.242  -0.444   1.286  0.00  0.00    +0.036 C 
ATOM      9  C   UNL     1       9.782  -2.773   2.066  0.00  0.00    +0.036 C 
BRANCH   7  14
ATOM     10  C   UNL     1      10.354  -3.567  -2.370  0.00  0.00    -0.022 A 
ATOM     11  C   UNL     1      11.724  -3.339  -2.510  0.00  0.00    +0.008 A 
ATOM     12  C   UNL     1      12.402  -2.617  -1.549  0.00  0.00    +0.001 A 
ATOM     13  C   UNL     1      11.725  -2.115  -0.452  0.00  0.00    +0.006 A 
ATOM     14  C   UNL     1      10.369  -2.342  -0.305  0.00  0.00    -0.024 A 
ATOM     15  C   UNL     1       9.679  -3.063  -1.259  0.00  0.00    +0.014 A 
BRANCH  10  17
ATOM     16  C   UNL     1       9.942  -5.795  -3.615  0.00  0.00    +0.044 C 
ATOM     17  C   UNL     1       9.622  -4.339  -3.396  0.00  0.00    -0.050 C 
ATOM     18  C   UNL     1       8.684  -3.750  -4.125  0.00  0.00    +0.012 C 
ENDBRANCH  10  17
ENDBRANCH   7  14
ENDBRANCH   1   7
BRANCH   4  19
ATOM     19  C   UNL     1       5.133  -0.513   2.227  0.00  0.00    +0.141 C 
BRANCH  19  20
ATOM     20  C   UNL     1       3.747  -0.429   1.643  0.00  0.00    -0.027 A 
ATOM     21  C   UNL     1       2.896  -1.516   1.728  0.00  0.00    +0.009 A 
ATOM     22  C   UNL     1       1.623  -1.444   1.193  0.00  0.00    +0.050 A 
ATOM     23  C   UNL     1       1.197  -0.282   0.571  0.00  0.00    +0.166 A 
ATOM     24  C   UNL     1       2.054   0.813   0.486  0.00  0.00    +0.167 A 
ATOM     25  C   UNL     1       3.328   0.734   1.024  0.00  0.00    +0.054 A 
ATOM     26  O   UNL     1       1.408   1.824  -0.165  0.00  0.00    -0.453 OA
ATOM     27  C   UNL     1       0.010   1.480  -0.116  0.00  0.00    +0.466 C 
ATOM     28  O   UNL     1       0.014   0.043  -0.027  0.00  0.00    -0.453 OA
ENDBRANCH  19  20
ENDBRANCH   4  19
TORSDOF 5
