REMARK  Name = ZINC40149305
REMARK  13 active torsions:
REMARK  status: ('A' for Active; 'I' for Inactive)
REMARK    1  A    between atoms: C_1  and  C_2
REMARK    2  A    between atoms: C_2  and  N_3
REMARK    3  A    between atoms: N_6  and  C_9
REMARK    4  A    between atoms: C_9  and  C_10
REMARK    5  A    between atoms: C_10  and  C_12
REMARK    6  A    between atoms: C_10  and  C_13
REMARK    7  A    between atoms: C_13  and  N_14
REMARK    8  A    between atoms: N_14  and  C_15
REMARK    9  A    between atoms: C_18  and  S_24
REMARK   10  A    between atoms: C_20  and  N_21
REMARK   11  A    between atoms: S_24  and  N_27
REMARK   12  A    between atoms: C_29  and  C_36
REMARK   13  A    between atoms: C_32  and  C_35
REMARK                            x       y       z     vdW  Elec       q    Type
REMARK                         _______ _______ _______ _____ _____    ______ ____
ROOT
ATOM      1  C   UNL     1      -7.559  -6.749   0.020  0.00  0.00    +0.058 A 
ATOM      2  C   UNL     1      -8.749  -6.038   0.114  0.00  0.00    +0.027 A 
ATOM      3  C   UNL     1      -9.957  -6.704   0.042  0.00  0.00    +0.030 A 
ATOM      4  C   UNL     1      -9.982  -8.077  -0.122  0.00  0.00    +0.108 A 
ATOM      5  C   UNL     1      -8.800  -8.787  -0.215  0.00  0.00    +0.063 A 
ATOM      6  C   UNL     1      -7.588  -8.127  -0.150  0.00  0.00    +0.149 A 
ENDROOT
BRANCH   6   7
ATOM      7  N   UNL     1      -6.323  -8.888  -0.256  0.00  0.00    +0.058 N 
ATOM      8  O   UNL     1      -5.383  -8.417  -0.851  0.00  0.00    -0.126 OA
ATOM      9  O   UNL     1      -6.231  -9.981   0.253  0.00  0.00    -0.126 OA
ENDBRANCH   6   7
BRANCH   4  10
ATOM     10  S   UNL     1     -11.526  -8.922  -0.212  0.00  0.00    +0.061 S 
ATOM     11  O   UNL     1     -11.277 -10.265   0.180  0.00  0.00    -0.153 OA
ATOM     12  O   UNL     1     -12.478  -8.100   0.448  0.00  0.00    -0.153 OA
BRANCH  10  13
ATOM     13  N   UNL     1     -11.965  -8.969  -1.808  0.00  0.00    -0.176 NA
ATOM     14  C   UNL     1     -12.769  -7.888  -2.395  0.00  0.00    +0.112 C 
ATOM     15  C   UNL     1     -12.049  -7.357  -3.638  0.00  0.00    +0.002 C 
ATOM     16  C   UNL     1     -11.764  -8.519  -4.593  0.00  0.00    +0.009 C 
ATOM     17  C   UNL     1     -10.852  -9.537  -3.904  0.00  0.00    +0.002 C 
ATOM     18  C   UNL     1     -11.554 -10.089  -2.665  0.00  0.00    +0.112 C 
ATOM     19  C   UNL     1     -10.541 -10.681  -4.871  0.00  0.00    +0.009 C 
ATOM     20  C   UNL     1     -12.933  -6.324  -4.339  0.00  0.00    +0.009 C 
ENDBRANCH  10  13
ENDBRANCH   4  10
BRANCH   1  21
ATOM     21  N   UNL     1      -6.336  -6.079   0.091  0.00  0.00    -0.342 N 
ATOM     22  H   UNL     1      -5.507  -6.582   0.112  0.00  0.00    +0.146 HD
BRANCH  21  23
ATOM     23  C   UNL     1      -6.304  -4.615   0.136  0.00  0.00    +0.103 C 
BRANCH  23  24
ATOM     24  C   UNL     1      -4.852  -4.138   0.211  0.00  0.00    -0.014 C 
ATOM     25  C   UNL     1      -4.122  -4.520  -1.079  0.00  0.00    +0.007 C 
BRANCH  24  26
ATOM     26  C   UNL     1      -4.823  -2.618   0.382  0.00  0.00    -0.074 C 
BRANCH  26  30
ATOM     27  N   UNL     1      -1.408  -0.803   2.047  0.00  0.00    -0.306 NA
ATOM     28  C   UNL     1      -1.947  -0.242   0.800  0.00  0.00    +0.066 C 
ATOM     29  C   UNL     1      -3.394  -0.706   0.619  0.00  0.00    -0.063 C 
ATOM     30  N   UNL     1      -3.436  -2.174   0.574  0.00  0.00    +0.382 N 
ATOM     31  C   UNL     1      -2.917  -2.719   1.836  0.00  0.00    -0.063 C 
ATOM     32  C   UNL     1      -1.467  -2.272   2.027  0.00  0.00    +0.066 C 
ATOM     33  H   UNL     1      -2.868  -2.503  -0.192  0.00  0.00    -0.082 HD
BRANCH  27  35
ATOM     34  C   UNL     1      -0.051   1.173   2.549  0.00  0.00    +0.020 C 
ATOM     35  C   UNL     1      -0.037  -0.334   2.286  0.00  0.00    +0.081 C 
ENDBRANCH  27  35
ENDBRANCH  26  30
ENDBRANCH  24  26
ENDBRANCH  23  24
ENDBRANCH  21  23
ENDBRANCH   1  21
TORSDOF 9
