REMARK  Name = ZINC06086390
REMARK  6 active torsions:
REMARK  status: ('A' for Active; 'I' for Inactive)
REMARK    1  A    between atoms: C_8  and  S_10
REMARK    2  A    between atoms: S_10  and  C_11
REMARK    3  A    between atoms: C_11  and  C_12
REMARK    4  A    between atoms: N_14  and  C_15
REMARK    5  A    between atoms: N_14  and  C_21
REMARK    6  A    between atoms: C_15  and  C_16
REMARK                            x       y       z     vdW  Elec       q    Type
REMARK                         _______ _______ _______ _____ _____    ______ ____
ROOT
ATOM      1  C   UNL     1       1.076  -0.618   0.483  0.00  0.00    +0.230 C 
ATOM      2  O   UNL     1       1.971   0.018   0.998  0.00  0.00    -0.274 OA
ATOM      3  N   UNL     1      -0.009   0.017  -0.004  0.00  0.00    -0.267 N 
ENDROOT
BRANCH   3   4
ATOM      4  C   UNL     1      -1.083  -0.719  -0.497  0.00  0.00    +0.010 C 
ATOM      5  C   UNL     1      -1.751  -1.463   0.340  0.00  0.00    -0.008 C 
ATOM      6  C   UNL     1      -2.924  -2.316  -0.049  0.00  0.00    +0.029 C 
ATOM      7  C   UNL     1      -3.470  -1.872  -1.407  0.00  0.00    +0.004 C 
ATOM      8  C   UNL     1      -2.299  -1.769  -2.392  0.00  0.00    +0.006 C 
ATOM      9  C   UNL     1      -1.406  -0.603  -1.958  0.00  0.00    +0.051 C 
ENDBRANCH   3   4
BRANCH   1  10
ATOM     10  C   UNL     1       1.178  -2.119   0.386  0.00  0.00    +0.175 C 
BRANCH  10  11
ATOM     11  S   UNL     1       2.800  -2.653   0.984  0.00  0.00    -0.058 S 
BRANCH  11  19
ATOM     12  C   UNL     1       1.618  -8.712  -0.036  0.00  0.00    +0.002 A 
ATOM     13  C   UNL     1       2.900  -8.891   0.458  0.00  0.00    +0.004 A 
ATOM     14  C   UNL     1       3.654  -7.805   0.857  0.00  0.00    +0.048 A 
ATOM     15  C   UNL     1       3.128  -6.527   0.763  0.00  0.00    +0.156 A 
ATOM     16  C   UNL     1       1.831  -6.342   0.263  0.00  0.00    +0.110 A 
ATOM     17  C   UNL     1       1.079  -7.448  -0.137  0.00  0.00    +0.031 A 
ATOM     18  N   UNL     1       1.589  -5.003   0.294  0.00  0.00    -0.203 NA
ATOM     19  C   UNL     1       2.648  -4.395   0.765  0.00  0.00    +0.258 A 
ATOM     20  O   UNL     1       3.602  -5.296   1.063  0.00  0.00    -0.431 OA
ENDBRANCH  11  19
ENDBRANCH  10  11
ENDBRANCH   1  10
BRANCH   3  21
ATOM     21  C   UNL     1      -0.058   1.481  -0.013  0.00  0.00    +0.187 C 
BRANCH  21  22
ATOM     22  C   UNL     1      -0.771   1.968   1.222  0.00  0.00    +0.122 A 
ATOM     23  C   UNL     1      -0.194   2.257   2.401  0.00  0.00    +0.046 A 
ATOM     24  C   UNL     1      -1.227   2.674   3.272  0.00  0.00    +0.041 A 
ATOM     25  C   UNL     1      -2.374   2.615   2.572  0.00  0.00    +0.195 A 
ATOM     26  O   UNL     1      -2.091   2.192   1.329  0.00  0.00    -0.466 OA
ENDBRANCH  21  22
ENDBRANCH   3  21
TORSDOF 6
