REMARK  Name = ZINC35882927
REMARK  9 active torsions:
REMARK  status: ('A' for Active; 'I' for Inactive)
REMARK    1  A    between atoms: C_1  and  C_2
REMARK    2  A    between atoms: C_17  and  C_37
REMARK    3  A    between atoms: C_22  and  C_23
REMARK    4  A    between atoms: C_22  and  O_36
REMARK    5  A    between atoms: C_23  and  N_24
REMARK    6  A    between atoms: C_25  and  C_26
REMARK    7  A    between atoms: C_30  and  O_33
REMARK    8  A    between atoms: C_31  and  O_32
REMARK    9  A    between atoms: O_33  and  C_34
REMARK                            x       y       z     vdW  Elec       q    Type
REMARK                         _______ _______ _______ _____ _____    ______ ____
ROOT
ATOM      1  C   UNL     1       0.397   0.918   1.316  0.00  0.00    +0.012 C 
ATOM      2  C   UNL     1       0.223  -0.586   1.074  0.00  0.00    -0.026 C 
ATOM      3  C   UNL     1       1.074  -1.009  -0.121  0.00  0.00    +0.007 C 
ATOM      4  C   UNL     1       2.557  -0.781   0.177  0.00  0.00    +0.001 C 
ATOM      5  C   UNL     1       2.972  -1.554   1.429  0.00  0.00    +0.000 C 
ATOM      6  C   UNL     1       2.122  -1.108   2.623  0.00  0.00    +0.004 C 
ATOM      7  C   UNL     1       0.651  -1.379   2.306  0.00  0.00    -0.005 C 
ATOM      8  C   UNL     1      -0.228  -1.063   3.511  0.00  0.00    +0.004 C 
ATOM      9  C   UNL     1      -1.694  -1.384   3.187  0.00  0.00    +0.004 C 
ATOM     10  C   UNL     1      -1.769  -1.915   1.756  0.00  0.00    -0.004 C 
ATOM     11  C   UNL     1      -1.265  -0.841   0.797  0.00  0.00    -0.001 C 
ATOM     12  C   UNL     1      -1.524  -1.186  -0.654  0.00  0.00    +0.005 C 
ATOM     13  C   UNL     1      -2.989  -1.538  -0.951  0.00  0.00    +0.010 C 
ATOM     14  C   UNL     1      -3.818  -1.573   0.302  0.00  0.00    +0.001 C 
ATOM     15  C   UNL     1      -3.125  -2.427   1.381  0.00  0.00    +0.001 C 
ATOM     16  C   UNL     1      -4.192  -2.483   2.482  0.00  0.00    +0.007 C 
ATOM     17  C   UNL     1      -5.516  -2.632   1.684  0.00  0.00    +0.037 C 
ATOM     18  C   UNL     1      -5.188  -2.275   0.210  0.00  0.00    +0.089 C 
ATOM     19  C   UNL     1      -4.126  -0.151   0.791  0.00  0.00    +0.014 C 
ENDROOT
BRANCH  18  20
ATOM     20  O   UNL     1      -6.158  -1.359  -0.300  0.00  0.00    -0.386 OA
ATOM     21  H   UNL     1      -7.046  -1.733  -0.384  0.00  0.00    +0.210 HD
ENDBRANCH  18  20
BRANCH  18  22
ATOM     22  C   UNL     1      -5.135  -3.533  -0.643  0.00  0.00    +0.147 C 
BRANCH  22  23
ATOM     23  N   UNL     1      -6.464  -4.148  -0.689  0.00  0.00    -0.387 N 
ATOM     24  C   UNL     1      -7.108  -4.216  -1.809  0.00  0.00    +0.090 C 
ATOM     25  H   UNL     1      -6.862  -4.505   0.121  0.00  0.00    +0.159 HD
BRANCH  24  26
ATOM     26  C   UNL     1      -8.502  -4.695  -1.830  0.00  0.00    +0.037 A 
ATOM     27  C   UNL     1      -9.161  -4.885  -3.049  0.00  0.00    +0.028 A 
ATOM     28  C   UNL     1     -10.464  -5.333  -3.064  0.00  0.00    +0.022 A 
ATOM     29  C   UNL     1     -11.127  -5.599  -1.877  0.00  0.00    +0.064 A 
ATOM     30  C   UNL     1     -10.487  -5.415  -0.662  0.00  0.00    +0.163 A 
ATOM     31  C   UNL     1      -9.170  -4.968  -0.631  0.00  0.00    +0.167 A 
ATOM     32 BR   UNL     1     -11.352  -5.588  -4.715  0.00  0.00    -0.050 Br
BRANCH  31  33
ATOM     33  O   UNL     1      -8.537  -4.793   0.558  0.00  0.00    -0.503 OA
ATOM     34  H   UNL     1      -8.642  -3.907   0.932  0.00  0.00    +0.292 HD
ENDBRANCH  31  33
BRANCH  30  35
ATOM     35  O   UNL     1     -11.144  -5.677   0.499  0.00  0.00    -0.491 OA
ATOM     36  C   UNL     1     -12.493  -6.138   0.392  0.00  0.00    +0.277 C 
ENDBRANCH  30  35
ENDBRANCH  24  26
ENDBRANCH  22  23
ENDBRANCH  18  22
TORSDOF 6
