REMARK  Name = ZINC08820360
REMARK  7 active torsions:
REMARK  status: ('A' for Active; 'I' for Inactive)
REMARK    1  A    between atoms: C_4  and  C_7
REMARK    2  A    between atoms: C_8  and  C_9
REMARK    3  A    between atoms: N_13  and  C_17
REMARK    4  A    between atoms: C_17  and  C_18
REMARK    5  A    between atoms: N_20  and  C_21
REMARK    6  A    between atoms: C_24  and  N_28
REMARK    7  A    between atoms: C_26  and  O_27
REMARK                            x       y       z     vdW  Elec       q    Type
REMARK                         _______ _______ _______ _____ _____    ______ ____
ROOT
ATOM      1  C   UNL     1      -0.919   4.305   3.691  0.00  0.00    +0.020 C 
ATOM      2  C   UNL     1      -1.061   3.171   2.947  0.00  0.00    +0.077 C 
ATOM      3  C   UNL     1      -0.333   2.743   1.738  0.00  0.00    +0.259 C 
ATOM      4  O   UNL     1       0.545   3.426   1.245  0.00  0.00    -0.269 OA
ATOM      5  N   UNL     1      -0.685   1.581   1.213  0.00  0.00    -0.246 N 
ATOM      6  C   UNL     1      -1.655   0.823   1.766  0.00  0.00    +0.121 C 
ATOM      7  S   UNL     1      -2.242  -0.698   1.245  0.00  0.00    -0.027 S 
ATOM      8  S   UNL     1      -2.176   1.792   3.172  0.00  0.00    -0.061 S 
ENDROOT
BRANCH   1  10
ATOM      9  C   UNL     1      -1.587   5.634   5.566  0.00  0.00    +0.008 C 
ATOM     10  C   UNL     1      -1.728   4.508   4.827  0.00  0.00    +0.002 C 
BRANCH   9  14
ATOM     11  C   UNL     1      -4.024   6.247   8.982  0.00  0.00    +0.000 A 
ATOM     12  C   UNL     1      -3.086   7.200   8.626  0.00  0.00    +0.001 A 
ATOM     13  C   UNL     1      -2.289   7.009   7.516  0.00  0.00    +0.008 A 
ATOM     14  C   UNL     1      -2.432   5.846   6.750  0.00  0.00    -0.025 A 
ATOM     15  C   UNL     1      -3.386   4.890   7.114  0.00  0.00    +0.008 A 
ATOM     16  C   UNL     1      -4.170   5.094   8.230  0.00  0.00    +0.001 A 
ENDBRANCH   9  14
ENDBRANCH   1  10
BRANCH   5  17
ATOM     17  C   UNL     1      -0.002   1.103   0.008  0.00  0.00    +0.211 C 
BRANCH  17  18
ATOM     18  C   UNL     1      -0.738   1.591  -1.213  0.00  0.00    +0.235 C 
ATOM     19  O   UNL     1      -1.734   2.272  -1.089  0.00  0.00    -0.274 OA
ATOM     20  N   UNL     1      -0.288   1.272  -2.443  0.00  0.00    -0.281 N 
ATOM     21  H   UNL     1       0.543   0.783  -2.544  0.00  0.00    +0.155 HD
BRANCH  20  22
ATOM     22  C   UNL     1      -1.023   1.647  -3.576  0.00  0.00    +0.076 A 
ATOM     23  C   UNL     1      -1.723   2.844  -3.587  0.00  0.00    +0.029 A 
ATOM     24  C   UNL     1      -2.446   3.212  -4.705  0.00  0.00    +0.035 A 
ATOM     25  C   UNL     1      -2.474   2.389  -5.816  0.00  0.00    +0.130 A 
ATOM     26  C   UNL     1      -1.778   1.194  -5.813  0.00  0.00    +0.080 A 
ATOM     27  C   UNL     1      -1.046   0.821  -4.697  0.00  0.00    +0.140 A 
BRANCH  25  28
ATOM     28  N   UNL     1      -3.250   2.788  -7.012  0.00  0.00    +0.057 N 
ATOM     29  O   UNL     1      -3.863   3.840  -7.016  0.00  0.00    -0.126 OA
ATOM     30  O   UNL     1      -3.275   2.064  -7.991  0.00  0.00    -0.126 OA
ENDBRANCH  25  28
BRANCH  27  31
ATOM     31  O   UNL     1      -0.357  -0.351  -4.695  0.00  0.00    -0.505 OA
ATOM     32  H   UNL     1      -0.868  -1.107  -4.372  0.00  0.00    +0.292 HD
ENDBRANCH  27  31
ENDBRANCH  20  22
ENDBRANCH  17  18
ENDBRANCH   5  17
TORSDOF 7
