REMARK  Name = ZINC35397032
REMARK  13 active torsions:
REMARK  status: ('A' for Active; 'I' for Inactive)
REMARK    1  A    between atoms: C_1  and  C_2
REMARK    2  A    between atoms: C_2  and  C_3
REMARK    3  A    between atoms: C_3  and  C_5
REMARK    4  A    between atoms: C_3  and  N_15
REMARK    5  A    between atoms: C_5  and  N_6
REMARK    6  A    between atoms: N_6  and  C_7
REMARK    7  A    between atoms: N_6  and  C_8
REMARK    8  A    between atoms: C_8  and  C_9
REMARK    9  A    between atoms: C_16  and  C_18
REMARK   10  A    between atoms: C_18  and  C_19
REMARK   11  A    between atoms: C_19  and  C_20
REMARK   12  A    between atoms: C_20  and  N_21
REMARK   13  A    between atoms: N_32  and  C_35
REMARK                            x       y       z     vdW  Elec       q    Type
REMARK                         _______ _______ _______ _____ _____    ______ ____
ROOT
ATOM      1  N   UNL     1      -1.936  -0.073   1.259  0.00  0.00    -0.314 N 
ATOM      2  C   UNL     1      -2.631   1.071   1.413  0.00  0.00    +0.213 C 
ATOM      3  O   UNL     1      -2.809   1.805   0.464  0.00  0.00    -0.276 OA
ATOM      4  H   UNL     1      -1.794  -0.660   2.019  0.00  0.00    +0.149 HD
ENDROOT
BRANCH   1   5
ATOM      5  C   UNL     1      -1.396  -0.431  -0.055  0.00  0.00    +0.056 C 
BRANCH   5   7
ATOM      6  C   UNL     1       0.338   1.364   0.051  0.00  0.00    +0.005 C 
ATOM      7  C   UNL     1       0.106  -0.142  -0.085  0.00  0.00    +0.017 C 
ENDBRANCH   5   7
BRANCH   5   8
ATOM      8  C   UNL     1      -1.635  -1.920  -0.315  0.00  0.00    -0.056 C 
BRANCH   8   9
ATOM      9  N   UNL     1      -3.066  -2.219  -0.175  0.00  0.00    +0.382 N 
ATOM     10  C   UNL     1      -3.278  -3.668  -0.293  0.00  0.00    -0.096 C 
ATOM     11  H   UNL     1      -3.388  -1.904   0.728  0.00  0.00    -0.082 HD
BRANCH   9  12
ATOM     12  C   UNL     1      -3.817  -1.527  -1.231  0.00  0.00    -0.043 C 
BRANCH  12  13
ATOM     13  C   UNL     1      -5.294  -1.733  -1.014  0.00  0.00    -0.064 A 
ATOM     14  C   UNL     1      -5.931  -2.818  -1.586  0.00  0.00    +0.002 A 
ATOM     15  C   UNL     1      -7.286  -3.007  -1.387  0.00  0.00    +0.000 A 
ATOM     16  C   UNL     1      -8.004  -2.111  -0.617  0.00  0.00    +0.000 A 
ATOM     17  C   UNL     1      -7.366  -1.026  -0.045  0.00  0.00    +0.000 A 
ATOM     18  C   UNL     1      -6.010  -0.839  -0.240  0.00  0.00    +0.002 A 
ENDBRANCH  12  13
ENDBRANCH   9  12
ENDBRANCH   8   9
ENDBRANCH   5   8
ENDBRANCH   1   5
BRANCH   2  19
ATOM     19  C   UNL     1      -3.186   1.440   2.765  0.00  0.00    +0.097 C 
BRANCH  19  20
ATOM     20  C   UNL     1      -3.926   2.775   2.665  0.00  0.00    +0.031 C 
BRANCH  20  21
ATOM     21  C   UNL     1      -4.490   3.150   4.037  0.00  0.00    +0.123 C 
BRANCH  21  22
ATOM     22  N   UNL     1      -5.198   4.428   3.942  0.00  0.00    -0.335 N 
ATOM     23  C   UNL     1      -4.620   5.666   4.130  0.00  0.00    +0.050 A 
ATOM     24  C   UNL     1      -3.320   6.062   4.436  0.00  0.00    +0.026 A 
ATOM     25  C   UNL     1      -3.023   7.401   4.566  0.00  0.00    +0.002 A 
ATOM     26  C   UNL     1      -4.008   8.363   4.394  0.00  0.00    +0.001 A 
ATOM     27  C   UNL     1      -5.290   7.996   4.094  0.00  0.00    +0.010 A 
ATOM     28  C   UNL     1      -5.612   6.645   3.957  0.00  0.00    +0.009 A 
ATOM     29  C   UNL     1      -6.855   5.925   3.648  0.00  0.00    +0.033 A 
ATOM     30  C   UNL     1      -6.537   4.567   3.647  0.00  0.00    +0.118 A 
ATOM     31  C   UNL     1      -7.562   3.633   3.368  0.00  0.00    +0.291 A 
ATOM     32  O   UNL     1      -7.321   2.437   3.362  0.00  0.00    -0.264 OA
ATOM     33  N   UNL     1      -8.808   4.078   3.108  0.00  0.00    -0.231 N 
ATOM     34  N   UNL     1      -9.098   5.446   3.112  0.00  0.00    -0.176 NA
ATOM     35  C   UNL     1      -8.178   6.332   3.374  0.00  0.00    +0.143 A 
ATOM     36  C   UNL     1      -9.873   3.115   2.818  0.00  0.00    +0.176 C 
ENDBRANCH  21  22
ENDBRANCH  20  21
ENDBRANCH  19  20
ENDBRANCH   2  19
TORSDOF 10
