REMARK  Name = ZINC63900310
REMARK  10 active torsions:
REMARK  status: ('A' for Active; 'I' for Inactive)
REMARK    1  A    between atoms: C_4  and  C_7
REMARK    2  A    between atoms: N_8  and  N_9
REMARK    3  A    between atoms: N_9  and  C_10
REMARK    4  A    between atoms: C_14  and  C_16
REMARK    5  A    between atoms: C_20  and  C_22
REMARK    6  A    between atoms: C_22  and  O_23
REMARK    7  A    between atoms: O_23  and  C_24
REMARK    8  A    between atoms: C_24  and  C_26
REMARK    9  A    between atoms: C_26  and  C_27
REMARK   10  A    between atoms: C_27  and  C_28
REMARK                            x       y       z     vdW  Elec       q    Type
REMARK                         _______ _______ _______ _____ _____    ______ ____
ROOT
ATOM      1  N   UNL     1       4.933  -2.660  -0.166  0.00  0.00    -0.158 N 
ATOM      2  C   UNL     1       4.919  -3.964  -0.507  0.00  0.00    +0.277 C 
ATOM      3  O   UNL     1       5.933  -4.497  -0.908  0.00  0.00    -0.270 OA
ENDROOT
BRANCH   1   4
ATOM      4  C   UNL     1       6.139  -1.950  -0.164  0.00  0.00    +0.061 A 
ATOM      5  C   UNL     1       6.944  -1.941  -1.296  0.00  0.00    +0.025 A 
ATOM      6  C   UNL     1       8.133  -1.239  -1.290  0.00  0.00    +0.002 A 
ATOM      7  C   UNL     1       8.524  -0.546  -0.158  0.00  0.00    +0.012 A 
ATOM      8  C   UNL     1       7.725  -0.554   0.971  0.00  0.00    +0.057 A 
ATOM      9  C   UNL     1       6.531  -1.248   0.969  0.00  0.00    +0.037 A 
BRANCH   8  10
ATOM     10  C   UNL     1       8.155   0.202   2.201  0.00  0.00    +0.417 C 
ATOM     11  F   UNL     1       9.384   0.825   1.961  0.00  0.00    -0.166 F 
ATOM     12  F   UNL     1       7.194   1.170   2.513  0.00  0.00    -0.166 F 
ATOM     13  F   UNL     1       8.285  -0.688   3.273  0.00  0.00    -0.166 F 
ENDBRANCH   8  10
ENDBRANCH   1   4
BRANCH   1  15
ATOM     14  C   UNL     1       3.734  -0.736   0.405  0.00  0.00    +0.139 C 
ATOM     15  N   UNL     1       3.740  -2.015   0.185  0.00  0.00    -0.180 NA
BRANCH  14  19
ATOM     16  C   UNL     1       0.109   1.226   1.417  0.00  0.00    +0.000 A 
ATOM     17  C   UNL     1       1.282   1.953   1.322  0.00  0.00    +0.001 A 
ATOM     18  C   UNL     1       2.464   1.323   0.994  0.00  0.00    +0.009 A 
ATOM     19  C   UNL     1       2.474  -0.054   0.757  0.00  0.00    -0.005 A 
ATOM     20  C   UNL     1       1.286  -0.782   0.855  0.00  0.00    +0.009 A 
ATOM     21  C   UNL     1       0.112  -0.138   1.184  0.00  0.00    +0.001 A 
ENDBRANCH  14  19
ENDBRANCH   1  15
BRANCH   2  22
ATOM     22  C   UNL     1       3.645  -4.760  -0.389  0.00  0.00    +0.330 C 
BRANCH  22  23
ATOM     23  O   UNL     1       3.885  -6.106  -0.806  0.00  0.00    -0.455 OA
BRANCH  23  24
ATOM     24  C   UNL     1       2.843  -6.952  -0.761  0.00  0.00    +0.308 C 
ATOM     25  O   UNL     1       1.765  -6.562  -0.381  0.00  0.00    -0.251 OA
BRANCH  24  26
ATOM     26  C   UNL     1       3.020  -8.387  -1.185  0.00  0.00    +0.125 C 
BRANCH  26  27
ATOM     27  C   UNL     1       1.690  -9.129  -1.039  0.00  0.00    +0.044 C 
BRANCH  27  28
ATOM     28  C   UNL     1       1.867 -10.565  -1.463  0.00  0.00    -0.041 C 
ATOM     29  C   UNL     1       2.126 -11.623  -0.662  0.00  0.00    -0.001 A 
ATOM     30  C   UNL     1       2.314 -11.750   0.788  0.00  0.00    +0.010 A 
ATOM     31  C   UNL     1       2.567 -12.971   1.312  0.00  0.00    +0.001 A 
ATOM     32  C   UNL     1       2.654 -14.115   0.507  0.00  0.00    +0.002 A 
ATOM     33  C   UNL     1       2.492 -14.078  -0.832  0.00  0.00    +0.026 A 
ATOM     34  C   UNL     1       2.222 -12.847  -1.490  0.00  0.00    +0.043 A 
ATOM     35  N   UNL     1       2.030 -12.556  -2.754  0.00  0.00    -0.380 N 
ATOM     36  C   UNL     1       1.784 -11.114  -2.870  0.00  0.00    +0.144 C 
ATOM     37  H   UNL     1       2.044 -13.188  -3.489  0.00  0.00    +0.160 HD
ENDBRANCH  27  28
ENDBRANCH  26  27
ENDBRANCH  24  26
ENDBRANCH  23  24
ENDBRANCH  22  23
ENDBRANCH   2  22
TORSDOF 10
