REMARK  Name = ZINC33175424
REMARK  6 active torsions:
REMARK  status: ('A' for Active; 'I' for Inactive)
REMARK    1  A    between atoms: C_1  and  C_2
REMARK    2  A    between atoms: C_5  and  N_8
REMARK    3  A    between atoms: C_22  and  C_25
REMARK    4  A    between atoms: N_27  and  C_28
REMARK    5  A    between atoms: C_28  and  C_29
REMARK    6  A    between atoms: C_32  and  C_34
REMARK                            x       y       z     vdW  Elec       q    Type
REMARK                         _______ _______ _______ _____ _____    ______ ____
ROOT
ATOM      1  N   UNL     1       1.258  -0.593   0.297  0.00  0.00    -0.248 N 
ATOM      2  C   UNL     1       0.101   0.062   0.553  0.00  0.00    +0.274 A 
ATOM      3  O   UNL     1      -0.850  -0.519   1.049  0.00  0.00    -0.266 OA
ATOM      4  C   UNL     1       0.024   1.416   0.237  0.00  0.00    +0.103 A 
ATOM      5  C   UNL     1       1.111   2.101  -0.335  0.00  0.00    +0.087 A 
ATOM      6  C   UNL     1       0.895   3.460  -0.602  0.00  0.00    +0.036 A 
ATOM      7  C   UNL     1      -0.295   4.028  -0.311  0.00  0.00    +0.048 A 
ATOM      8  S   UNL     1      -1.227   2.666   0.368  0.00  0.00    -0.090 S 
ATOM      9  N   UNL     1       2.242   1.358  -0.559  0.00  0.00    -0.215 NA
ATOM     10  C   UNL     1       2.304   0.089  -0.259  0.00  0.00    +0.206 A 
ATOM     11  N   UNL     1       3.471  -0.590  -0.512  0.00  0.00    -0.300 N 
ATOM     12  C   UNL     1       3.304  -1.522  -1.635  0.00  0.00    +0.108 C 
ATOM     13  C   UNL     1       4.574  -2.362  -1.795  0.00  0.00    +0.020 C 
ATOM     14  C   UNL     1       5.765  -1.435  -2.050  0.00  0.00    +0.016 C 
ATOM     15  C   UNL     1       5.887  -0.443  -0.889  0.00  0.00    +0.092 C 
ATOM     16  C   UNL     1       4.580   0.341  -0.756  0.00  0.00    +0.120 C 
ENDROOT
BRANCH   1  21
ATOM     17  C   UNL     1       1.760  -6.112   1.520  0.00  0.00    +0.044 C 
ATOM     18  C   UNL     1       1.627  -4.646   1.195  0.00  0.00    -0.050 A 
ATOM     19  C   UNL     1       2.377  -3.715   1.889  0.00  0.00    +0.005 A 
ATOM     20  C   UNL     1       2.257  -2.371   1.594  0.00  0.00    +0.026 A 
ATOM     21  C   UNL     1       1.382  -1.956   0.599  0.00  0.00    +0.053 A 
ATOM     22  C   UNL     1       0.627  -2.893  -0.093  0.00  0.00    +0.026 A 
ATOM     23  C   UNL     1       0.755  -4.236   0.203  0.00  0.00    +0.005 A 
ENDBRANCH   1  21
BRANCH  15  24
ATOM     24  C   UNL     1       7.021   0.511  -1.161  0.00  0.00    +0.218 C 
ATOM     25  O   UNL     1       6.806   1.702  -1.236  0.00  0.00    -0.275 OA
ATOM     26  N   UNL     1       8.274   0.041  -1.319  0.00  0.00    -0.308 N 
ATOM     27  H   UNL     1       8.469  -1.040  -1.251  0.00  0.00    +0.149 HD
BRANCH  26  28
ATOM     28  C   UNL     1       9.377   0.969  -1.583  0.00  0.00    +0.178 C 
BRANCH  28  29
ATOM     29  C   UNL     1      10.663   0.195  -1.719  0.00  0.00    +0.122 A 
ATOM     30  C   UNL     1      11.161  -0.308  -2.863  0.00  0.00    +0.046 A 
ATOM     31  C   UNL     1      12.375  -0.953  -2.533  0.00  0.00    +0.045 A 
ATOM     32  C   UNL     1      12.546  -0.805  -1.206  0.00  0.00    +0.102 A 
ATOM     33  O   UNL     1      11.509  -0.104  -0.720  0.00  0.00    -0.463 OA
ATOM     34  C   UNL     1      13.708  -1.331  -0.404  0.00  0.00    +0.086 C 
ENDBRANCH  28  29
ENDBRANCH  26  28
ENDBRANCH  15  24
TORSDOF 4
