REMARK  Name = ZINC10553279
REMARK  12 active torsions:
REMARK  status: ('A' for Active; 'I' for Inactive)
REMARK    1  A    between atoms: C_1  and  C_2
REMARK    2  A    between atoms: C_2  and  C_3
REMARK    3  A    between atoms: C_2  and  C_4
REMARK    4  A    between atoms: C_2  and  C_5
REMARK    5  A    between atoms: C_8  and  O_11
REMARK    6  A    between atoms: O_11  and  C_12
REMARK    7  A    between atoms: C_12  and  C_13
REMARK    8  A    between atoms: C_16  and  C_19
REMARK    9  A    between atoms: C_19  and  O_21
REMARK   10  A    between atoms: O_21  and  C_22
REMARK   11  A    between atoms: C_22  and  C_23
REMARK   12  A    between atoms: N_28  and  C_31
REMARK                            x       y       z     vdW  Elec       q    Type
REMARK                         _______ _______ _______ _____ _____    ______ ____
ROOT
ATOM      1  C   UNL     1      -6.465   4.863  -4.288  0.00  0.00    +0.340 C 
ATOM      2  O   UNL     1      -6.708   3.702  -4.549  0.00  0.00    -0.245 OA
ENDROOT
BRANCH   1   6
ATOM      3  C   UNL     1      -8.401   7.971  -6.438  0.00  0.00    -0.010 A 
ATOM      4  C   UNL     1      -8.680   6.650  -6.738  0.00  0.00    +0.008 A 
ATOM      5  C   UNL     1      -8.054   5.635  -6.043  0.00  0.00    +0.015 A 
ATOM      6  C   UNL     1      -7.138   5.944  -5.036  0.00  0.00    +0.059 A 
ATOM      7  C   UNL     1      -6.866   7.280  -4.734  0.00  0.00    +0.015 A 
ATOM      8  C   UNL     1      -7.494   8.285  -5.441  0.00  0.00    +0.008 A 
BRANCH   3   9
ATOM      9  C   UNL     1      -9.088   9.075  -7.201  0.00  0.00    +0.264 C 
BRANCH   9  10
ATOM     10  O   UNL     1     -10.303   9.428  -6.537  0.00  0.00    -0.487 OA
BRANCH  10  14
ATOM     11  C   UNL     1     -12.567  12.424  -8.245  0.00  0.00    -0.042 A 
ATOM     12  C   UNL     1     -12.996  11.812  -7.082  0.00  0.00    +0.008 A 
ATOM     13  C   UNL     1     -12.240  10.809  -6.508  0.00  0.00    +0.046 A 
ATOM     14  C   UNL     1     -11.049  10.415  -7.100  0.00  0.00    +0.121 A 
ATOM     15  C   UNL     1     -10.617  11.034  -8.264  0.00  0.00    +0.046 A 
ATOM     16  C   UNL     1     -11.380  12.033  -8.837  0.00  0.00    +0.008 A 
BRANCH  11  18
ATOM     17  C   UNL     1     -13.544  14.673  -7.877  0.00  0.00    +0.015 C 
ATOM     18  C   UNL     1     -13.394  13.518  -8.869  0.00  0.00    -0.013 C 
ATOM     19  C   UNL     1     -12.701  14.022 -10.137  0.00  0.00    +0.015 C 
ATOM     20  C   UNL     1     -14.777  12.971  -9.227  0.00  0.00    +0.015 C 
ENDBRANCH  11  18
ENDBRANCH  10  14
ENDBRANCH   9  10
ENDBRANCH   3   9
ENDBRANCH   1   6
BRANCH   1  21
ATOM     21  O   UNL     1      -5.582   5.165  -3.316  0.00  0.00    -0.452 OA
BRANCH  21  22
ATOM     22  C   UNL     1      -4.959   4.051  -2.623  0.00  0.00    +0.328 C 
BRANCH  22  23
ATOM     23  C   UNL     1      -4.009   4.579  -1.578  0.00  0.00    +0.253 C 
ATOM     24  O   UNL     1      -3.871   5.775  -1.433  0.00  0.00    -0.272 OA
ATOM     25  N   UNL     1      -3.313   3.721  -0.806  0.00  0.00    -0.296 N 
ATOM     26  C   UNL     1      -2.381   4.214   0.219  0.00  0.00    +0.127 C 
ATOM     27  C   UNL     1      -1.031   3.514   0.026  0.00  0.00    +0.125 C 
ATOM     28  N   UNL     1      -1.233   2.059   0.019  0.00  0.00    -0.314 N 
ATOM     29  C   UNL     1      -2.073   1.644  -1.112  0.00  0.00    +0.125 C 
ATOM     30  C   UNL     1      -3.466   2.267  -0.966  0.00  0.00    +0.127 C 
BRANCH  28  31
ATOM     31  C   UNL     1      -0.017   1.387   0.010  0.00  0.00    +0.099 A 
ATOM     32  C   UNL     1       0.002  -0.004   0.002  0.00  0.00    +0.042 A 
ATOM     33  C   UNL     1       1.220  -0.660  -0.013  0.00  0.00    +0.005 A 
ATOM     34  C   UNL     1       2.382   0.100  -0.020  0.00  0.00    +0.018 A 
ATOM     35  C   UNL     1       2.289   1.477  -0.012  0.00  0.00    +0.084 A 
ATOM     36  N   UNL     1       1.111   2.155   0.003  0.00  0.00    -0.350 N 
ATOM     37  H   UNL     1       1.072   3.181   0.009  0.00  0.00    +0.166 HD
ENDBRANCH  28  31
ENDBRANCH  22  23
ENDBRANCH  21  22
ENDBRANCH   1  21
TORSDOF 9
