REMARK  Name = ZINC20236709
REMARK  8 active torsions:
REMARK  status: ('A' for Active; 'I' for Inactive)
REMARK    1  A    between atoms: C_1  and  C_2
REMARK    2  A    between atoms: C_2  and  O_3
REMARK    3  A    between atoms: O_3  and  C_4
REMARK    4  A    between atoms: C_6  and  C_19
REMARK    5  A    between atoms: C_9  and  O_10
REMARK    6  A    between atoms: O_10  and  C_11
REMARK    7  A    between atoms: C_11  and  C_13
REMARK    8  A    between atoms: C_29  and  C_31
REMARK                            x       y       z     vdW  Elec       q    Type
REMARK                         _______ _______ _______ _____ _____    ______ ____
ROOT
ATOM      1  C   UNL     1      -1.810  -2.117  -0.440  0.00  0.00    +0.164 A 
ATOM      2  C   UNL     1      -0.638  -2.808  -0.208  0.00  0.00    +0.057 A 
ATOM      3  C   UNL     1      -0.632  -4.209  -0.263  0.00  0.00    -0.019 A 
ATOM      4  C   UNL     1      -1.816  -4.900  -0.554  0.00  0.00    +0.027 A 
ATOM      5  C   UNL     1      -2.981  -4.201  -0.784  0.00  0.00    +0.064 A 
ATOM      6  C   UNL     1      -2.986  -2.812  -0.723  0.00  0.00    +0.187 A 
ATOM      7 BR   UNL     1      -4.578  -5.134  -1.177  0.00  0.00    -0.046 Br
ENDROOT
BRANCH   3   8
ATOM      8  C   UNL     1       0.609  -4.948  -0.018  0.00  0.00    +0.025 C 
ATOM      9  C   UNL     1       0.575  -6.145   0.660  0.00  0.00    +0.084 C 
ATOM     10  C   UNL     1       1.776  -7.027   0.778  0.00  0.00    +0.176 C 
ATOM     11  N   UNL     1       3.003  -6.577   0.811  0.00  0.00    -0.280 NA
ATOM     12  N   UNL     1       1.450  -8.374   0.851  0.00  0.00    -0.142 N 
ATOM     13  C   UNL     1       0.210  -8.786   1.269  0.00  0.00    +0.168 C 
ATOM     14  N   UNL     1      -0.802  -7.960   1.527  0.00  0.00    -0.156 NA
ATOM     15  C   UNL     1      -0.656  -6.640   1.326  0.00  0.00    +0.273 C 
ATOM     16  O   UNL     1      -1.524  -5.858   1.681  0.00  0.00    -0.268 OA
ATOM     17  C   UNL     1       0.258 -10.186   1.337  0.00  0.00    +0.091 C 
ATOM     18  C   UNL     1       1.474 -10.592   0.913  0.00  0.00    +0.134 C 
ATOM     19  O   UNL     1       2.206  -9.520   0.568  0.00  0.00    -0.375 OA
ATOM     20  C   UNL     1       1.938 -12.024   0.838  0.00  0.00    +0.089 C 
ATOM     21  H   UNL     1       3.172  -5.624   0.757  0.00  0.00    +0.188 HD
ENDBRANCH   3   8
BRANCH   1  22
ATOM     22  O   UNL     1      -1.821  -0.758  -0.386  0.00  0.00    -0.488 OA
BRANCH  22  24
ATOM     23  C   UNL     1      -0.788   1.404  -0.073  0.00  0.00    +0.048 C 
ATOM     24  C   UNL     1      -0.581  -0.112  -0.091  0.00  0.00    +0.226 C 
ENDBRANCH  22  24
ENDBRANCH   1  22
BRANCH   6  25
ATOM     25  O   UNL     1      -4.139  -2.130  -0.946  0.00  0.00    -0.417 OA
BRANCH  25  26
ATOM     26  C   UNL     1      -4.424  -1.764  -2.213  0.00  0.00    +0.351 C 
ATOM     27  O   UNL     1      -3.658  -2.047  -3.115  0.00  0.00    -0.244 OA
BRANCH  26  28
ATOM     28  C   UNL     1      -5.655  -1.026  -2.503  0.00  0.00    +0.097 A 
ATOM     29  C   UNL     1      -6.133  -0.567  -3.722  0.00  0.00    +0.022 A 
ATOM     30  C   UNL     1      -7.332   0.101  -3.678  0.00  0.00    +0.008 A 
ATOM     31  C   UNL     1      -7.954   0.263  -2.484  0.00  0.00    +0.046 A 
ATOM     32  S   UNL     1      -6.934  -0.491  -1.383  0.00  0.00    -0.090 S 
ENDBRANCH  26  28
ENDBRANCH  25  26
ENDBRANCH   6  25
TORSDOF 6
