REMARK  Name = ZINC03375885
REMARK  7 active torsions:
REMARK  status: ('A' for Active; 'I' for Inactive)
REMARK    1  A    between atoms: C_1  and  C_2
REMARK    2  A    between atoms: C_9  and  N_13
REMARK    3  A    between atoms: C_10  and  C_11
REMARK    4  A    between atoms: C_14  and  C_16
REMARK    5  A    between atoms: C_16  and  O_17
REMARK    6  A    between atoms: O_17  and  C_18
REMARK    7  A    between atoms: C_18  and  C_20
REMARK                            x       y       z     vdW  Elec       q    Type
REMARK                         _______ _______ _______ _____ _____    ______ ____
ROOT
ATOM      1  N   UNL     1       1.932  -5.847  -1.734  0.00  0.00    -0.276 N 
ATOM      2  C   UNL     1       2.229  -6.109  -3.022  0.00  0.00    +0.255 C 
ATOM      3  O   UNL     1       2.201  -5.218  -3.844  0.00  0.00    -0.272 OA
ATOM      4  H   UNL     1       1.955  -6.559  -1.076  0.00  0.00    +0.155 HD
ENDROOT
BRANCH   1  12
ATOM      5  C   UNL     1      -0.019   1.526   0.010  0.00  0.00    +0.008 C 
ATOM      6  C   UNL     1       0.002  -0.004   0.002  0.00  0.00    -0.009 C 
ATOM      7  C   UNL     1       0.742  -0.514   1.242  0.00  0.00    +0.008 C 
ATOM      8  C   UNL     1       0.556  -2.027   1.373  0.00  0.00    +0.037 C 
ATOM      9  C   UNL     1       0.941  -2.684   0.054  0.00  0.00    -0.018 A 
ATOM     10  C   UNL     1       1.008  -1.965  -1.089  0.00  0.00    -0.004 A 
ATOM     11  S   UNL     1       1.485  -3.134  -2.331  0.00  0.00    -0.077 S 
ATOM     12  C   UNL     1       1.593  -4.557  -1.349  0.00  0.00    +0.090 A 
ATOM     13  C   UNL     1       1.258  -4.095  -0.084  0.00  0.00    +0.084 A 
ATOM     14  C   UNL     1       0.736  -0.502  -1.252  0.00  0.00    +0.046 C 
BRANCH  13  15
ATOM     15  C   UNL     1       1.226  -4.977   1.044  0.00  0.00    +0.102 C 
ATOM     16  N   UNL     1       1.200  -5.676   1.938  0.00  0.00    -0.191 NA
ENDBRANCH  13  15
ENDBRANCH   1  12
BRANCH   2  17
ATOM     17  C   UNL     1       2.598  -7.509  -3.440  0.00  0.00    +0.328 C 
BRANCH  17  18
ATOM     18  O   UNL     1       2.872  -7.532  -4.865  0.00  0.00    -0.452 OA
BRANCH  18  19
ATOM     19  C   UNL     1       3.219  -8.718  -5.402  0.00  0.00    +0.340 C 
ATOM     20  O   UNL     1       3.290  -9.706  -4.699  0.00  0.00    -0.245 OA
BRANCH  19  21
ATOM     21  C   UNL     1       3.512  -8.818  -6.847  0.00  0.00    +0.060 A 
ATOM     22  C   UNL     1       3.872 -10.045  -7.407  0.00  0.00    +0.015 A 
ATOM     23  C   UNL     1       4.144 -10.131  -8.756  0.00  0.00    +0.002 A 
ATOM     24  C   UNL     1       4.062  -9.005  -9.555  0.00  0.00    +0.014 A 
ATOM     25  C   UNL     1       3.705  -7.785  -9.007  0.00  0.00    +0.014 A 
ATOM     26  C   UNL     1       3.426  -7.686  -7.659  0.00  0.00    +0.029 A 
ATOM     27  I   UNL     1       3.583  -6.086 -10.228  0.00  0.00    -0.044 I 
ENDBRANCH  19  21
ENDBRANCH  18  19
ENDBRANCH  17  18
ENDBRANCH   2  17
TORSDOF 6
