REMARK  Name = ZINC32734116
REMARK  13 active torsions:
REMARK  status: ('A' for Active; 'I' for Inactive)
REMARK    1  A    between atoms: C_1  and  C_2
REMARK    2  A    between atoms: C_2  and  C_3
REMARK    3  A    between atoms: C_6  and  C_9
REMARK    4  A    between atoms: C_9  and  C_11
REMARK    5  A    between atoms: C_9  and  N_31
REMARK    6  A    between atoms: C_11  and  N_12
REMARK    7  A    between atoms: C_13  and  C_15
REMARK    8  A    between atoms: C_15  and  N_16
REMARK    9  A    between atoms: C_19  and  C_23
REMARK   10  A    between atoms: C_19  and  C_24
REMARK   11  A    between atoms: C_27  and  C_30
REMARK   12  A    between atoms: N_31  and  C_32
REMARK   13  A    between atoms: N_31  and  C_33
REMARK                            x       y       z     vdW  Elec       q    Type
REMARK                         _______ _______ _______ _____ _____    ______ ____
ROOT
ATOM      1  N   UNL     1       4.940   0.376   0.959  0.00  0.00    -0.315 N 
ATOM      2  C   UNL     1       5.919   0.263   1.878  0.00  0.00    +0.231 C 
ATOM      3  O   UNL     1       5.734   0.649   3.012  0.00  0.00    -0.274 OA
ATOM      4  H   UNL     1       5.108   0.025  -0.070  0.00  0.00    +0.149 HD
ENDROOT
BRANCH   1   5
ATOM      5  C   UNL     1       3.651   0.965   1.331  0.00  0.00    +0.093 C 
BRANCH   5   6
ATOM      6  C   UNL     1       2.725   0.975   0.113  0.00  0.00    -0.021 C 
BRANCH   6  10
ATOM      7  C   UNL     1      -0.902   3.005   1.101  0.00  0.00    -0.048 A 
ATOM      8  C   UNL     1       0.318   3.587   1.393  0.00  0.00    +0.004 A 
ATOM      9  C   UNL     1       1.491   2.933   1.068  0.00  0.00    +0.002 A 
ATOM     10  C   UNL     1       1.445   1.692   0.461  0.00  0.00    -0.059 A 
ATOM     11  C   UNL     1       0.226   1.108   0.173  0.00  0.00    +0.002 A 
ATOM     12  C   UNL     1      -0.948   1.764   0.493  0.00  0.00    +0.004 A 
BRANCH   7  14
ATOM     13  C   UNL     1      -2.616   3.329   2.864  0.00  0.00    +0.009 C 
ATOM     14  C   UNL     1      -2.181   3.721   1.450  0.00  0.00    +0.032 C 
ENDBRANCH   7  14
ENDBRANCH   6  10
BRANCH   6  15
ATOM     15  N   UNL     1       3.386   1.668  -1.000  0.00  0.00    +0.382 N 
ATOM     16  C   UNL     1       2.600   1.551  -2.235  0.00  0.00    -0.096 C 
ATOM     17  C   UNL     1       3.639   3.077  -0.668  0.00  0.00    -0.096 C 
ATOM     18  H   UNL     1       4.358   1.182  -1.171  0.00  0.00    -0.082 HD
ENDBRANCH   6  15
ENDBRANCH   5   6
ENDBRANCH   1   5
BRANCH   2  19
ATOM     19  C   UNL     1       7.245  -0.344   1.495  0.00  0.00    +0.213 C 
BRANCH  19  20
ATOM     20  N   UNL     1       8.132  -0.353   2.661  0.00  0.00    -0.215 N 
ATOM     21  C   UNL     1       8.210  -1.367   3.545  0.00  0.00    +0.251 C 
ATOM     22  O   UNL     1       7.582  -2.404   3.527  0.00  0.00    -0.272 OA
ATOM     23  C   UNL     1       9.245  -0.942   4.567  0.00  0.00    +0.135 C 
ATOM     24  N   UNL     1       9.671   0.388   4.096  0.00  0.00    -0.281 N 
ATOM     25  C   UNL     1       8.969   0.642   2.976  0.00  0.00    +0.310 C 
ATOM     26  O   UNL     1       9.081   1.662   2.326  0.00  0.00    -0.252 OA
ATOM     27  C   UNL     1       8.619  -0.844   5.959  0.00  0.00    +0.047 C 
ATOM     28  H   UNL     1      10.430   0.953   4.657  0.00  0.00    +0.152 HD
BRANCH  23  29
ATOM     29  C   UNL     1      10.409  -1.899   4.573  0.00  0.00    -0.015 A 
ATOM     30  C   UNL     1      10.212  -3.229   4.253  0.00  0.00    +0.006 A 
ATOM     31  C   UNL     1      11.280  -4.106   4.253  0.00  0.00    +0.004 A 
ATOM     32  C   UNL     1      12.544  -3.656   4.585  0.00  0.00    -0.050 A 
ATOM     33  C   UNL     1      12.741  -2.327   4.911  0.00  0.00    +0.004 A 
ATOM     34  C   UNL     1      11.673  -1.448   4.905  0.00  0.00    +0.006 A 
ATOM     35  C   UNL     1      13.708  -4.613   4.591  0.00  0.00    +0.044 C 
ENDBRANCH  23  29
ENDBRANCH  19  20
ENDBRANCH   2  19
TORSDOF 8
