REMARK  Name = ZINC35089604
REMARK  11 active torsions:
REMARK  status: ('A' for Active; 'I' for Inactive)
REMARK    1  A    between atoms: C_1  and  C_2
REMARK    2  A    between atoms: C_2  and  C_4
REMARK    3  A    between atoms: C_2  and  N_25
REMARK    4  A    between atoms: N_14  and  C_15
REMARK    5  A    between atoms: N_25  and  C_26
REMARK    6  A    between atoms: C_26  and  C_27
REMARK    7  A    between atoms: C_27  and  N_28
REMARK    8  A    between atoms: N_28  and  C_29
REMARK    9  A    between atoms: N_28  and  C_30
REMARK   10  A    between atoms: C_31  and  C_33
REMARK   11  A    between atoms: C_34  and  C_35
REMARK                            x       y       z     vdW  Elec       q    Type
REMARK                         _______ _______ _______ _____ _____    ______ ____
ROOT
ATOM      1  C   UNL     1       0.649  -0.923   1.208  0.00  0.00    +0.138 A 
ATOM      2  N   UNL     1       0.277  -0.631   2.417  0.00  0.00    -0.231 NA
ATOM      3  C   UNL     1       1.152  -0.647   3.454  0.00  0.00    +0.078 A 
ATOM      4  C   UNL     1       0.752  -0.334   4.755  0.00  0.00    +0.028 A 
ATOM      5  C   UNL     1       1.673  -0.364   5.777  0.00  0.00    +0.002 A 
ATOM      6  C   UNL     1       2.998  -0.701   5.532  0.00  0.00    +0.001 A 
ATOM      7  C   UNL     1       3.417  -1.014   4.258  0.00  0.00    +0.015 A 
ATOM      8  C   UNL     1       2.500  -0.991   3.209  0.00  0.00    +0.065 A 
ATOM      9  C   UNL     1       2.889  -1.316   1.829  0.00  0.00    +0.266 A 
ATOM     10  O   UNL     1       4.035  -1.620   1.550  0.00  0.00    -0.267 OA
ATOM     11  N   UNL     1       1.924  -1.270   0.881  0.00  0.00    -0.263 N 
ENDROOT
BRANCH  11  12
ATOM     12  C   UNL     1       2.241  -1.576  -0.448  0.00  0.00    +0.052 A 
ATOM     13  C   UNL     1       2.620  -0.551  -1.323  0.00  0.00    +0.027 A 
ATOM     14  C   UNL     1       2.932  -0.820  -2.618  0.00  0.00    +0.010 A 
ATOM     15  C   UNL     1       2.877  -2.142  -3.094  0.00  0.00    -0.018 A 
ATOM     16  C   UNL     1       3.195  -2.449  -4.428  0.00  0.00    +0.008 A 
ATOM     17  C   UNL     1       3.132  -3.739  -4.856  0.00  0.00    +0.001 A 
ATOM     18  C   UNL     1       2.755  -4.765  -3.991  0.00  0.00    +0.001 A 
ATOM     19  C   UNL     1       2.440  -4.506  -2.692  0.00  0.00    +0.008 A 
ATOM     20  C   UNL     1       2.494  -3.185  -2.214  0.00  0.00    -0.016 A 
ATOM     21  C   UNL     1       2.181  -2.882  -0.878  0.00  0.00    +0.034 A 
ENDBRANCH  11  12
BRANCH   1  23
ATOM     22  C   UNL     1      -1.066   0.488   0.106  0.00  0.00    +0.036 C 
ATOM     23  C   UNL     1      -0.384  -0.881   0.112  0.00  0.00    +0.140 C 
BRANCH  23  24
ATOM     24  N   UNL     1      -1.385  -1.925   0.345  0.00  0.00    -0.290 N 
ATOM     25  C   UNL     1      -1.579  -2.891  -0.574  0.00  0.00    +0.240 C 
ATOM     26  O   UNL     1      -0.922  -2.896  -1.598  0.00  0.00    -0.271 OA
BRANCH  25  27
ATOM     27  C   UNL     1      -2.580  -3.934  -0.341  0.00  0.00    +0.068 C 
ATOM     28  C   UNL     1      -2.773  -4.900  -1.261  0.00  0.00    +0.013 C 
BRANCH  28  29
ATOM     29  C   UNL     1      -3.780  -5.949  -1.026  0.00  0.00    -0.025 A 
ATOM     30  C   UNL     1      -4.541  -5.942   0.147  0.00  0.00    +0.008 A 
ATOM     31  C   UNL     1      -5.482  -6.928   0.359  0.00  0.00    +0.001 A 
ATOM     32  C   UNL     1      -5.673  -7.921  -0.585  0.00  0.00    +0.000 A 
ATOM     33  C   UNL     1      -4.924  -7.935  -1.748  0.00  0.00    +0.001 A 
ATOM     34  C   UNL     1      -3.983  -6.953  -1.978  0.00  0.00    +0.008 A 
ENDBRANCH  28  29
ENDBRANCH  25  27
BRANCH  24  35
ATOM     35  C   UNL     1      -2.177  -1.918   1.579  0.00  0.00    +0.090 C 
BRANCH  35  36
ATOM     36  C   UNL     1      -3.452  -1.101   1.362  0.00  0.00    -0.060 C 
BRANCH  36  37
ATOM     37  N   UNL     1      -4.245  -1.094   2.598  0.00  0.00    +0.377 N 
ATOM     38  C   UNL     1      -5.408  -0.212   2.429  0.00  0.00    -0.097 C 
ATOM     39  C   UNL     1      -4.704  -2.458   2.893  0.00  0.00    -0.097 C 
ATOM     40  H   UNL     1      -3.677  -0.758   3.361  0.00  0.00    -0.083 HD
ENDBRANCH  36  37
ENDBRANCH  35  36
ENDBRANCH  24  35
ENDBRANCH  23  24
ENDBRANCH   1  23
TORSDOF 8
