REMARK  Name = ZINC35003755
REMARK  7 active torsions:
REMARK  status: ('A' for Active; 'I' for Inactive)
REMARK    1  A    between atoms: C_1  and  C_2
REMARK    2  A    between atoms: C_2  and  C_3
REMARK    3  A    between atoms: C_3  and  N_4
REMARK    4  A    between atoms: N_4  and  C_5
REMARK    5  A    between atoms: C_5  and  C_6
REMARK    6  A    between atoms: C_17  and  C_19
REMARK    7  A    between atoms: N_22  and  C_23
REMARK                            x       y       z     vdW  Elec       q    Type
REMARK                         _______ _______ _______ _____ _____    ______ ____
ROOT
ATOM      1  N   UNL     1      -1.420  -1.998   0.005  0.00  0.00    -0.277 N 
ATOM      2  C   UNL     1      -1.414  -2.666  -1.166  0.00  0.00    +0.307 C 
ATOM      3  O   UNL     1      -1.388  -3.881  -1.173  0.00  0.00    -0.252 OA
ATOM      4  N   UNL     1      -1.436  -1.986  -2.329  0.00  0.00    -0.269 N 
ATOM      5  H   UNL     1      -1.523  -1.020  -2.325  0.00  0.00    +0.156 HD
ENDROOT
BRANCH   4   6
ATOM      6  C   UNL     1      -1.332  -2.674  -3.544  0.00  0.00    +0.036 A 
ATOM      7  C   UNL     1      -0.649  -2.104  -4.610  0.00  0.00    +0.023 A 
ATOM      8  C   UNL     1      -0.548  -2.785  -5.807  0.00  0.00    +0.003 A 
ATOM      9  C   UNL     1      -1.126  -4.033  -5.946  0.00  0.00    +0.015 A 
ATOM     10  C   UNL     1      -1.808  -4.604  -4.886  0.00  0.00    +0.020 A 
ATOM     11  C   UNL     1      -1.908  -3.929  -3.683  0.00  0.00    +0.038 A 
ATOM     12 BR   UNL     1      -2.599  -6.311  -5.080  0.00  0.00    -0.050 Br
ENDBRANCH   4   6
BRANCH   1  13
ATOM     13  C   UNL     1      -1.451  -0.534   0.013  0.00  0.00    +0.109 C 
BRANCH  13  15
ATOM     14  C   UNL     1      -0.052   1.536   0.014  0.00  0.00    +0.005 C 
ATOM     15  C   UNL     1      -0.019   0.007   0.006  0.00  0.00    +0.016 C 
ENDBRANCH  13  15
ENDBRANCH   1  13
BRANCH   1  16
ATOM     16  C   UNL     1      -1.396  -2.737   1.270  0.00  0.00    +0.205 C 
BRANCH  16  17
ATOM     17  C   UNL     1      -2.808  -3.021   1.713  0.00  0.00    +0.233 C 
ATOM     18  O   UNL     1      -3.743  -2.643   1.038  0.00  0.00    -0.274 OA
ATOM     19  N   UNL     1      -3.033  -3.694   2.858  0.00  0.00    -0.293 N 
ATOM     20  C   UNL     1      -1.920  -4.162   3.702  0.00  0.00    +0.113 C 
ATOM     21  C   UNL     1      -1.954  -5.689   3.721  0.00  0.00    +0.054 C 
ATOM     22  C   UNL     1      -3.348  -6.191   3.989  0.00  0.00    -0.041 A 
ATOM     23  C   UNL     1      -3.485  -7.493   4.456  0.00  0.00    +0.004 A 
ATOM     24  C   UNL     1      -4.734  -8.018   4.713  0.00  0.00    +0.000 A 
ATOM     25  C   UNL     1      -5.862  -7.246   4.504  0.00  0.00    +0.000 A 
ATOM     26  C   UNL     1      -5.728  -5.952   4.043  0.00  0.00    +0.006 A 
ATOM     27  C   UNL     1      -4.471  -5.420   3.790  0.00  0.00    -0.024 A 
ATOM     28  C   UNL     1      -4.395  -3.986   3.317  0.00  0.00    +0.103 C 
ATOM     29  C   UNL     1      -4.756  -3.046   4.469  0.00  0.00    +0.033 C 
ENDBRANCH  16  17
ENDBRANCH   1  16
TORSDOF 5
