REMARK  Name = ZINC35265879
REMARK  12 active torsions:
REMARK  status: ('A' for Active; 'I' for Inactive)
REMARK    1  A    between atoms: C_1  and  C_2
REMARK    2  A    between atoms: C_2  and  C_3
REMARK    3  A    between atoms: C_3  and  N_4
REMARK    4  A    between atoms: C_5  and  C_34
REMARK    5  A    between atoms: C_6  and  C_30
REMARK    6  A    between atoms: C_7  and  C_12
REMARK    7  A    between atoms: C_16  and  N_18
REMARK    8  A    between atoms: N_21  and  C_22
REMARK    9  A    between atoms: C_26  and  C_28
REMARK   10  A    between atoms: C_28  and  C_29
REMARK   11  A    between atoms: C_30  and  O_32
REMARK   12  A    between atoms: O_32  and  C_33
REMARK                            x       y       z     vdW  Elec       q    Type
REMARK                         _______ _______ _______ _____ _____    ______ ____
ROOT
ATOM      1  C   UNL     1       1.415  -5.555  -2.440  0.00  0.00    -0.021 A 
ATOM      2  C   UNL     1       1.538  -5.064  -3.728  0.00  0.00    +0.006 A 
ATOM      3  C   UNL     1       2.019  -5.878  -4.737  0.00  0.00    +0.002 A 
ATOM      4  C   UNL     1       2.377  -7.183  -4.463  0.00  0.00    +0.023 A 
ATOM      5  C   UNL     1       2.255  -7.678  -3.171  0.00  0.00    +0.035 A 
ATOM      6  C   UNL     1       1.777  -6.857  -2.158  0.00  0.00    +0.029 A 
ENDROOT
BRANCH   1  10
ATOM      7  N   UNL     1       0.681  -1.909  -1.441  0.00  0.00    -0.259 N 
ATOM      8  C   UNL     1       1.846  -2.436  -0.962  0.00  0.00    +0.024 C 
ATOM      9  C   UNL     1       2.025  -3.772  -0.883  0.00  0.00    +0.078 C 
ATOM     10  C   UNL     1       0.890  -4.665  -1.343  0.00  0.00    +0.144 C 
ATOM     11  N   UNL     1      -0.323  -3.997  -1.843  0.00  0.00    -0.288 N 
ATOM     12  C   UNL     1      -0.354  -2.650  -1.856  0.00  0.00    +0.307 C 
ATOM     13  O   UNL     1      -1.353  -2.089  -2.263  0.00  0.00    -0.252 OA
ATOM     14  C   UNL     1       2.949  -1.512  -0.515  0.00  0.00    +0.061 C 
ATOM     15  H   UNL     1      -1.084  -4.514  -2.151  0.00  0.00    +0.151 HD
BRANCH   9  16
ATOM     16  C   UNL     1       3.231  -4.320  -0.387  0.00  0.00    +0.339 C 
ATOM     17  O   UNL     1       4.130  -3.584  -0.023  0.00  0.00    -0.245 OA
BRANCH  16  18
ATOM     18  O   UNL     1       3.386  -5.659  -0.318  0.00  0.00    -0.465 OA
ATOM     19  C   UNL     1       4.630  -6.143   0.193  0.00  0.00    +0.280 C 
ENDBRANCH  16  18
ENDBRANCH   9  16
BRANCH   7  20
ATOM     20  C   UNL     1       0.555  -0.450  -1.499  0.00  0.00    +0.114 C 
BRANCH  20  22
ATOM     21  C   UNL     1       1.053   1.588  -2.856  0.00  0.00    +0.005 C 
ATOM     22  C   UNL     1       1.184   0.065  -2.795  0.00  0.00    +0.016 C 
ENDBRANCH  20  22
ENDBRANCH   7  20
ENDBRANCH   1  10
BRANCH   5  23
ATOM     23  N   UNL     1       2.617  -9.000  -2.890  0.00  0.00    -0.269 N 
ATOM     24  C   UNL     1       1.925  -9.709  -1.976  0.00  0.00    +0.308 C 
ATOM     25  O   UNL     1       1.039  -9.175  -1.337  0.00  0.00    -0.252 OA
ATOM     26  N   UNL     1       2.216 -11.008  -1.769  0.00  0.00    -0.269 N 
ATOM     27  H   UNL     1       3.366  -9.407  -3.353  0.00  0.00    +0.156 HD
ATOM     28  H   UNL     1       2.975 -11.413  -2.218  0.00  0.00    +0.156 HD
BRANCH  26  29
ATOM     29  C   UNL     1       1.424 -11.774  -0.906  0.00  0.00    +0.035 A 
ATOM     30  C   UNL     1       0.057 -11.543  -0.828  0.00  0.00    +0.023 A 
ATOM     31  C   UNL     1      -0.722 -12.300   0.025  0.00  0.00    +0.002 A 
ATOM     32  C   UNL     1      -0.142 -13.288   0.800  0.00  0.00    +0.004 A 
ATOM     33  C   UNL     1       1.219 -13.520   0.725  0.00  0.00    -0.046 A 
ATOM     34  C   UNL     1       2.003 -12.770  -0.131  0.00  0.00    +0.027 A 
BRANCH  33  35
ATOM     35  C   UNL     1       1.847 -14.597   1.572  0.00  0.00    +0.032 C 
ATOM     36  C   UNL     1       1.837 -15.920   0.804  0.00  0.00    +0.009 C 
ENDBRANCH  33  35
ENDBRANCH  26  29
ENDBRANCH   5  23
TORSDOF 8
