REMARK  Name = ZINC28696748
REMARK  6 active torsions:
REMARK  status: ('A' for Active; 'I' for Inactive)
REMARK    1  A    between atoms: C_6  and  C_7
REMARK    2  A    between atoms: C_8  and  C_9
REMARK    3  A    between atoms: C_9  and  O_11
REMARK    4  A    between atoms: O_11  and  C_12
REMARK    5  A    between atoms: C_12  and  C_13
REMARK    6  A    between atoms: N_18  and  C_19
REMARK                            x       y       z     vdW  Elec       q    Type
REMARK                         _______ _______ _______ _____ _____    ______ ____
ROOT
ATOM      1  C   UNL     1       4.832  -4.006   0.226  0.00  0.00    +0.258 C 
ATOM      2  O   UNL     1       3.790  -4.627   0.235  0.00  0.00    -0.272 OA
ATOM      3  N   UNL     1       4.814  -2.662   0.133  0.00  0.00    -0.237 N 
ATOM      4  C   UNL     1       3.639  -2.008   0.049  0.00  0.00    +0.310 C 
ATOM      5  O   UNL     1       2.595  -2.630   0.058  0.00  0.00    -0.252 OA
ATOM      6  N   UNL     1       3.622  -0.663  -0.045  0.00  0.00    -0.269 N 
ATOM      7  H   UNL     1       5.759  -2.099   0.124  0.00  0.00    +0.159 HD
ATOM      8  H   UNL     1       4.565  -0.106  -0.141  0.00  0.00    +0.156 HD
ENDROOT
BRANCH   6   9
ATOM      9  C   UNL     1       2.401   0.025  -0.019  0.00  0.00    +0.038 A 
ATOM     10  C   UNL     1       1.346  -0.460   0.741  0.00  0.00    +0.027 A 
ATOM     11  C   UNL     1       0.142   0.218   0.766  0.00  0.00    +0.051 A 
ATOM     12  C   UNL     1      -0.016   1.384   0.032  0.00  0.00    +0.162 A 
ATOM     13  C   UNL     1       1.040   1.873  -0.728  0.00  0.00    +0.164 A 
ATOM     14  C   UNL     1       2.247   1.192  -0.754  0.00  0.00    +0.072 A 
ATOM     15  O   UNL     1       0.906   3.021  -1.448  0.00  0.00    -0.485 OA
ATOM     16  C   UNL     1      -0.429   3.474  -1.696  0.00  0.00    +0.270 C 
ATOM     17  C   UNL     1      -1.215   3.396  -0.380  0.00  0.00    +0.270 C 
ATOM     18  O   UNL     1      -1.212   2.034   0.062  0.00  0.00    -0.485 OA
ENDBRANCH   6   9
BRANCH   1  19
ATOM     19  C   UNL     1       6.146  -4.738   0.320  0.00  0.00    +0.328 C 
BRANCH  19  20
ATOM     20  O   UNL     1       5.903  -6.144   0.409  0.00  0.00    -0.452 OA
BRANCH  20  21
ATOM     21  C   UNL     1       6.983  -6.947   0.500  0.00  0.00    +0.332 C 
ATOM     22  O   UNL     1       8.100  -6.466   0.503  0.00  0.00    -0.246 OA
BRANCH  21  24
ATOM     23  C   UNL     1       7.890  -9.200   0.685  0.00  0.00    +0.015 C 
ATOM     24  C   UNL     1       6.810  -8.396   0.595  0.00  0.00    +0.092 C 
BRANCH  23  30
ATOM     25  C   UNL     1       8.834 -11.493   0.875  0.00  0.00    +0.009 A 
ATOM     26  C   UNL     1       8.664 -12.859   0.964  0.00  0.00    +0.022 A 
ATOM     27  C   UNL     1       7.391 -13.404   0.960  0.00  0.00    +0.059 A 
ATOM     28  C   UNL     1       6.278 -12.581   0.867  0.00  0.00    +0.060 A 
ATOM     29  C   UNL     1       6.433 -11.213   0.783  0.00  0.00    +0.029 A 
ATOM     30  C   UNL     1       7.717 -10.658   0.781  0.00  0.00    -0.023 A 
ATOM     31 CL   UNL     1       4.686 -13.275   0.862  0.00  0.00    -0.082 Cl
ATOM     32 CL   UNL     1       7.187 -15.124   1.073  0.00  0.00    -0.082 Cl
ENDBRANCH  23  30
ENDBRANCH  21  24
ENDBRANCH  20  21
ENDBRANCH  19  20
ENDBRANCH   1  19
TORSDOF 6
