REMARK  Name = ZINC14461611
REMARK  6 active torsions:
REMARK  status: ('A' for Active; 'I' for Inactive)
REMARK    1  A    between atoms: C_1  and  C_2
REMARK    2  A    between atoms: C_2  and  N_3
REMARK    3  A    between atoms: N_3  and  C_4
REMARK    4  A    between atoms: N_3  and  C_6
REMARK    5  A    between atoms: C_4  and  C_5
REMARK    6  A    between atoms: C_9  and  C_12
REMARK                            x       y       z     vdW  Elec       q    Type
REMARK                         _______ _______ _______ _____ _____    ______ ____
ROOT
ATOM      1  C   UNL     1      -4.872  -1.538  -3.472  0.00  0.00    +0.105 C 
ATOM      2  C   UNL     1      -6.125  -1.440  -2.599  0.00  0.00    +0.029 C 
ATOM      3  C   UNL     1      -6.423   0.067  -2.364  0.00  0.00    +0.033 C 
ATOM      4  C   UNL     1      -5.495   0.439  -1.224  0.00  0.00    -0.030 C 
ATOM      5  C   UNL     1      -5.135  -0.629  -0.558  0.00  0.00    -0.023 C 
ATOM      6  C   UNL     1      -5.765  -1.865  -1.159  0.00  0.00    +0.050 C 
ATOM      7  C   UNL     1      -4.797  -3.011  -1.150  0.00  0.00    +0.002 A 
ATOM      8  C   UNL     1      -4.192  -3.487  -2.299  0.00  0.00    +0.051 A 
ATOM      9  C   UNL     1      -3.297  -4.554  -2.222  0.00  0.00    +0.064 A 
ATOM     10  C   UNL     1      -3.012  -5.140  -1.005  0.00  0.00    +0.043 A 
ATOM     11  C   UNL     1      -3.619  -4.665   0.144  0.00  0.00    +0.061 A 
ATOM     12  C   UNL     1      -4.505  -3.607   0.071  0.00  0.00    +0.065 A 
ATOM     13 CL   UNL     1      -5.261  -3.018   1.518  0.00  0.00    -0.082 Cl
ATOM     14 CL   UNL     1      -3.266  -5.398   1.678  0.00  0.00    -0.082 Cl
ATOM     15 CL   UNL     1      -2.537  -5.150  -3.665  0.00  0.00    -0.082 Cl
ATOM     16  N   UNL     1      -4.445  -2.936  -3.556  0.00  0.00    -0.335 N 
ATOM     17  H   UNL     1      -5.117  -3.489  -4.066  0.00  0.00    +0.147 HD
ENDROOT
BRANCH   1  21
ATOM     18  C   UNL     1      -1.744   0.806  -1.744  0.00  0.00    +0.030 A 
ATOM     19  C   UNL     1      -1.773  -0.569  -1.547  0.00  0.00    +0.023 A 
ATOM     20  C   UNL     1      -2.789  -1.323  -2.103  0.00  0.00    +0.007 A 
ATOM     21  C   UNL     1      -3.769  -0.712  -2.862  0.00  0.00    -0.027 A 
ATOM     22  C   UNL     1      -3.740   0.656  -3.064  0.00  0.00    +0.007 A 
ATOM     23  C   UNL     1      -2.731   1.416  -2.507  0.00  0.00    +0.023 A 
BRANCH  18  24
ATOM     24  N   UNL     1      -0.722   1.572  -1.179  0.00  0.00    -0.330 N 
BRANCH  24  26
ATOM     25  C   UNL     1      -0.118   0.894   1.092  0.00  0.00    +0.024 C 
ATOM     26  C   UNL     1       0.318   0.926  -0.374  0.00  0.00    +0.102 C 
ENDBRANCH  24  26
BRANCH  24  27
ATOM     27  C   UNL     1      -0.689   3.021  -1.393  0.00  0.00    +0.102 C 
ATOM     28  C   UNL     1       0.121   3.333  -2.652  0.00  0.00    +0.024 C 
ENDBRANCH  24  27
ENDBRANCH  18  24
ENDBRANCH   1  21
TORSDOF 4
