REMARK  Name = ZINC06127865
REMARK  7 active torsions:
REMARK  status: ('A' for Active; 'I' for Inactive)
REMARK    1  A    between atoms: C_1  and  C_2
REMARK    2  A    between atoms: C_2  and  C_4
REMARK    3  A    between atoms: C_2  and  N_14
REMARK    4  A    between atoms: C_15  and  C_17
REMARK    5  A    between atoms: C_17  and  O_18
REMARK    6  A    between atoms: O_18  and  C_19
REMARK    7  A    between atoms: C_24  and  C_25
REMARK                            x       y       z     vdW  Elec       q    Type
REMARK                         _______ _______ _______ _____ _____    ______ ____
ROOT
ATOM      1  N   UNL     1      -2.157   1.539  -3.717  0.00  0.00    -0.309 N 
ATOM      2  C   UNL     1      -2.835   1.407  -4.874  0.00  0.00    +0.251 C 
ATOM      3  O   UNL     1      -2.308   1.709  -5.924  0.00  0.00    -0.272 OA
ATOM      4  H   UNL     1      -2.579   1.298  -2.877  0.00  0.00    +0.149 HD
ENDROOT
BRANCH   1   6
ATOM      5  C   UNL     1      -0.803   3.576  -3.719  0.00  0.00    +0.028 C 
ATOM      6  C   UNL     1      -0.782   2.046  -3.727  0.00  0.00    +0.076 C 
BRANCH   6   7
ATOM      7  C   UNL     1      -0.043   1.539  -2.488  0.00  0.00    -0.010 C 
ATOM      8  C   UNL     1      -0.759   2.033  -1.229  0.00  0.00    +0.012 C 
ATOM      9  C   UNL     1      -0.019   1.526   0.010  0.00  0.00    -0.010 C 
ATOM     10  C   UNL     1       1.417   2.055  -0.000  0.00  0.00    +0.007 C 
ATOM     11  C   UNL     1       2.133   1.562  -1.259  0.00  0.00    -0.010 C 
ATOM     12  C   UNL     1       1.393   2.069  -2.499  0.00  0.00    +0.012 C 
ATOM     13  C   UNL     1       2.154   0.032  -1.268  0.00  0.00    +0.007 C 
ATOM     14  C   UNL     1       0.718  -0.497  -1.257  0.00  0.00    -0.010 C 
ATOM     15  C   UNL     1       0.002  -0.004   0.002  0.00  0.00    +0.007 C 
ATOM     16  C   UNL     1      -0.022   0.009  -2.496  0.00  0.00    +0.012 C 
ENDBRANCH   6   7
ENDBRANCH   1   6
BRANCH   2  17
ATOM     17  C   UNL     1      -4.249   0.886  -4.863  0.00  0.00    +0.324 C 
BRANCH  17  18
ATOM     18  O   UNL     1      -4.750   0.838  -6.201  0.00  0.00    -0.482 OA
BRANCH  18  19
ATOM     19  C   UNL     1      -6.019   0.388  -6.369  0.00  0.00    +0.133 A 
ATOM     20  C   UNL     1      -6.770  -0.001  -5.270  0.00  0.00    +0.048 A 
ATOM     21  C   UNL     1      -8.061  -0.458  -5.441  0.00  0.00    +0.023 A 
ATOM     22  C   UNL     1      -8.616  -0.533  -6.709  0.00  0.00    +0.042 A 
ATOM     23  C   UNL     1      -7.883  -0.150  -7.812  0.00  0.00    +0.036 A 
ATOM     24  C   UNL     1      -6.577   0.320  -7.652  0.00  0.00    +0.079 A 
ATOM     25 CL   UNL     1     -10.241  -1.110  -6.909  0.00  0.00    -0.084 Cl
BRANCH  24  26
ATOM     26  C   UNL     1      -5.789   0.737  -8.827  0.00  0.00    +0.245 C 
ATOM     27  O   UNL     1      -4.652   1.142  -8.684  0.00  0.00    -0.270 OA
ATOM     28  N   UNL     1      -6.330   0.670 -10.060  0.00  0.00    -0.325 N 
ATOM     29  H   UNL     1      -7.238   0.347 -10.174  0.00  0.00    +0.145 HD
ATOM     30  H   UNL     1      -5.812   0.944 -10.832  0.00  0.00    +0.145 HD
ENDBRANCH  24  26
ENDBRANCH  18  19
ENDBRANCH  17  18
ENDBRANCH   2  17
TORSDOF 6
