REMARK  Name = ZINC00941743
REMARK  12 active torsions:
REMARK  status: ('A' for Active; 'I' for Inactive)
REMARK    1  A    between atoms: C_1  and  C_2
REMARK    2  A    between atoms: C_2  and  O_3
REMARK    3  A    between atoms: O_3  and  C_4
REMARK    4  A    between atoms: C_4  and  C_6
REMARK    5  A    between atoms: C_10  and  N_11
REMARK    6  A    between atoms: C_12  and  C_14
REMARK    7  A    between atoms: C_14  and  O_15
REMARK    8  A    between atoms: O_15  and  C_16
REMARK    9  A    between atoms: C_16  and  C_18
REMARK   10  A    between atoms: C_18  and  C_20
REMARK   11  A    between atoms: C_18  and  N_21
REMARK   12  A    between atoms: C_33  and  C_37
REMARK                            x       y       z     vdW  Elec       q    Type
REMARK                         _______ _______ _______ _____ _____    ______ ____
ROOT
ATOM      1  N   UNL     1       1.217   3.792  -2.476  0.00  0.00    -0.277 N 
ATOM      2  C   UNL     1       1.240   4.657  -3.509  0.00  0.00    +0.255 C 
ATOM      3  O   UNL     1       1.288   5.851  -3.300  0.00  0.00    -0.272 OA
ATOM      4  H   UNL     1       1.179   2.837  -2.644  0.00  0.00    +0.155 HD
ENDROOT
BRANCH   1   9
ATOM      5  C   UNL     1       1.232   3.540   0.009  0.00  0.00    +0.091 A 
ATOM      6  C   UNL     1       1.268   4.287   1.256  0.00  0.00    -0.021 A 
ATOM      7  C   UNL     1       1.324   5.629   1.120  0.00  0.00    -0.004 A 
ATOM      8  S   UNL     1       1.317   5.909  -0.628  0.00  0.00    -0.077 S 
ATOM      9  C   UNL     1       1.249   4.266  -1.174  0.00  0.00    +0.086 A 
ATOM     10  C   UNL     1       1.375   6.646   2.218  0.00  0.00    +0.046 C 
ATOM     11  C   UNL     1       1.724   5.929   3.528  0.00  0.00    -0.009 C 
ATOM     12  C   UNL     1       0.839   4.687   3.667  0.00  0.00    +0.008 C 
ATOM     13  C   UNL     1       1.249   3.637   2.634  0.00  0.00    +0.037 C 
ATOM     14  C   UNL     1       1.479   6.869   4.711  0.00  0.00    +0.008 C 
BRANCH   5  15
ATOM     15  C   UNL     1       1.176   2.076   0.002  0.00  0.00    +0.342 C 
ATOM     16  O   UNL     1       2.205   1.428  -0.011  0.00  0.00    -0.245 OA
BRANCH  15  17
ATOM     17  O   UNL     1      -0.018   1.448   0.010  0.00  0.00    -0.461 OA
BRANCH  17  19
ATOM     18  C   UNL     1      -1.433  -0.534   0.013  0.00  0.00    +0.048 C 
ATOM     19  C   UNL     1       0.002  -0.004   0.002  0.00  0.00    +0.229 C 
ENDBRANCH  17  19
ENDBRANCH  15  17
ENDBRANCH   5  15
ENDBRANCH   1   9
BRANCH   2  20
ATOM     20  C   UNL     1       1.206   4.142  -4.925  0.00  0.00    +0.328 C 
BRANCH  20  21
ATOM     21  O   UNL     1       1.240   5.261  -5.849  0.00  0.00    -0.454 OA
BRANCH  21  22
ATOM     22  C   UNL     1       1.216   4.971  -7.159  0.00  0.00    +0.328 C 
ATOM     23  O   UNL     1       1.168   3.820  -7.522  0.00  0.00    -0.249 OA
BRANCH  22  24
ATOM     24  C   UNL     1       1.248   6.082  -8.178  0.00  0.00    +0.190 C 
ATOM     25  C   UNL     1       2.532   6.896  -8.003  0.00  0.00    +0.040 C 
BRANCH  24  26
ATOM     26  N   UNL     1       1.213   5.509  -9.525  0.00  0.00    -0.220 N 
ATOM     27  C   UNL     1       2.140   4.669 -10.021  0.00  0.00    +0.255 C 
ATOM     28  O   UNL     1       3.123   4.271  -9.430  0.00  0.00    -0.270 OA
ATOM     29  C   UNL     1       1.760   4.310 -11.403  0.00  0.00    +0.049 A 
ATOM     30  C   UNL     1       2.317   3.501 -12.380  0.00  0.00    +0.014 A 
ATOM     31  C   UNL     1       1.691   3.381 -13.611  0.00  0.00    +0.001 A 
ATOM     32  C   UNL     1       0.516   4.062 -13.870  0.00  0.00    +0.001 A 
ATOM     33  C   UNL     1      -0.052   4.875 -12.902  0.00  0.00    +0.014 A 
ATOM     34  C   UNL     1       0.562   5.004 -11.666  0.00  0.00    +0.049 A 
ATOM     35  C   UNL     1       0.252   5.759 -10.433  0.00  0.00    +0.255 C 
ATOM     36  O   UNL     1      -0.709   6.482 -10.268  0.00  0.00    -0.270 OA
ENDBRANCH  24  26
ENDBRANCH  22  24
ENDBRANCH  21  22
ENDBRANCH  20  21
ENDBRANCH   2  20
TORSDOF 9
