REMARK  Name = ZINC02061985
REMARK  8 active torsions:
REMARK  status: ('A' for Active; 'I' for Inactive)
REMARK    1  A    between atoms: C_1  and  C_2
REMARK    2  A    between atoms: C_3  and  C_29
REMARK    3  A    between atoms: C_4  and  C_22
REMARK    4  A    between atoms: C_10  and  C_15
REMARK    5  A    between atoms: C_29  and  O_31
REMARK    6  A    between atoms: O_31  and  C_32
REMARK    7  A    between atoms: C_32  and  C_33
REMARK    8  A    between atoms: C_33  and  C_34
REMARK                            x       y       z     vdW  Elec       q    Type
REMARK                         _______ _______ _______ _____ _____    ______ ____
ROOT
ATOM      1  C   UNL     1      -1.564  10.771  -3.705  0.00  0.00    +0.061 C 
ATOM      2  C   UNL     1      -1.249  10.084  -2.402  0.00  0.00    +0.016 C 
ATOM      3  C   UNL     1      -1.276  10.783  -1.254  0.00  0.00    +0.065 C 
ATOM      4  C   UNL     1      -0.959  10.135   0.061  0.00  0.00    +0.095 C 
ATOM      5  C   UNL     1      -1.054   8.633  -0.039  0.00  0.00    +0.024 C 
ATOM      6  C   UNL     1      -1.037   8.020  -1.241  0.00  0.00    +0.016 C 
ATOM      7  N   UNL     1      -0.938   8.752  -2.394  0.00  0.00    -0.321 N 
ATOM      8  C   UNL     1      -1.131   6.518  -1.349  0.00  0.00    +0.059 C 
ATOM      9  C   UNL     1      -0.497   5.874  -0.115  0.00  0.00    +0.032 C 
ATOM     10  C   UNL     1      -1.225   6.390   1.131  0.00  0.00    +0.088 C 
ATOM     11  C   UNL     1      -1.154   7.892   1.152  0.00  0.00    +0.162 C 
ATOM     12  O   UNL     1      -1.184   8.476   2.217  0.00  0.00    -0.292 OA
ATOM     13  H   UNL     1      -0.604   8.260  -3.319  0.00  0.00    +0.152 HD
ENDROOT
BRANCH   9  14
ATOM     14  C   UNL     1      -0.636   4.375  -0.198  0.00  0.00    -0.043 A 
ATOM     15  C   UNL     1       0.493   3.577  -0.207  0.00  0.00    +0.005 A 
ATOM     16  C   UNL     1       0.366   2.202  -0.284  0.00  0.00    +0.020 A 
ATOM     17  C   UNL     1      -0.890   1.626  -0.350  0.00  0.00    +0.041 A 
ATOM     18  C   UNL     1      -2.018   2.426  -0.346  0.00  0.00    +0.020 A 
ATOM     19  C   UNL     1      -1.891   3.800  -0.263  0.00  0.00    +0.005 A 
ATOM     20 CL   UNL     1      -1.049  -0.100  -0.447  0.00  0.00    -0.084 Cl
ENDBRANCH   9  14
BRANCH   4  21
ATOM     21  C   UNL     1       0.438  10.516   0.477  0.00  0.00    -0.000 A 
ATOM     22  C   UNL     1       1.516  10.157  -0.310  0.00  0.00    +0.007 A 
ATOM     23  C   UNL     1       2.797  10.511   0.068  0.00  0.00    +0.000 A 
ATOM     24  C   UNL     1       3.003  11.216   1.240  0.00  0.00    +0.003 A 
ATOM     25  C   UNL     1       1.928  11.572   2.031  0.00  0.00    +0.038 A 
ATOM     26  C   UNL     1       0.643  11.222   1.650  0.00  0.00    +0.127 A 
ATOM     27  F   UNL     1      -0.409  11.569   2.423  0.00  0.00    -0.205 F 
ENDBRANCH   4  21
BRANCH   3  28
ATOM     28  C   UNL     1      -1.609  12.158  -1.288  0.00  0.00    +0.338 C 
ATOM     29  O   UNL     1      -2.701  12.528  -0.900  0.00  0.00    -0.245 OA
BRANCH  28  30
ATOM     30  O   UNL     1      -0.716  13.057  -1.750  0.00  0.00    -0.461 OA
BRANCH  30  31
ATOM     31  C   UNL     1      -1.120  14.428  -1.755  0.00  0.00    +0.237 C 
BRANCH  31  32
ATOM     32  C   UNL     1       0.015  15.292  -2.309  0.00  0.00    +0.076 C 
BRANCH  32  33
ATOM     33  C   UNL     1      -0.411  16.738  -2.315  0.00  0.00    -0.044 A 
ATOM     34  C   UNL     1      -1.039  17.269  -3.425  0.00  0.00    +0.004 A 
ATOM     35  C   UNL     1      -1.434  18.594  -3.429  0.00  0.00    +0.000 A 
ATOM     36  C   UNL     1      -1.191  19.390  -2.325  0.00  0.00    +0.000 A 
ATOM     37  C   UNL     1      -0.558  18.860  -1.216  0.00  0.00    +0.000 A 
ATOM     38  C   UNL     1      -0.168  17.534  -1.211  0.00  0.00    +0.004 A 
ENDBRANCH  32  33
ENDBRANCH  31  32
ENDBRANCH  30  31
ENDBRANCH  28  30
ENDBRANCH   3  28
TORSDOF 7
