REMARK  Name = ZINC09443172
REMARK  8 active torsions:
REMARK  status: ('A' for Active; 'I' for Inactive)
REMARK    1  A    between atoms: C_1  and  C_2
REMARK    2  A    between atoms: C_3  and  C_19
REMARK    3  A    between atoms: C_4  and  C_10
REMARK    4  A    between atoms: C_13  and  O_18
REMARK    5  A    between atoms: C_14  and  O_16
REMARK    6  A    between atoms: O_16  and  C_17
REMARK    7  A    between atoms: N_21  and  C_22
REMARK    8  A    between atoms: C_27  and  C_28
REMARK                            x       y       z     vdW  Elec       q    Type
REMARK                         _______ _______ _______ _____ _____    ______ ____
ROOT
ATOM      1  C   UNL     1       7.583   2.063   0.350  0.00  0.00    +0.061 C 
ATOM      2  C   UNL     1       6.254   2.767   0.439  0.00  0.00    +0.017 C 
ATOM      3  C   UNL     1       5.253   2.404  -0.391  0.00  0.00    +0.056 C 
ATOM      4  C   UNL     1       3.934   3.138  -0.268  0.00  0.00    +0.139 C 
ATOM      5  N   UNL     1       3.851   4.196   0.753  0.00  0.00    -0.315 N 
ATOM      6  C   UNL     1       4.940   4.445   1.508  0.00  0.00    +0.135 C 
ATOM      7  S   UNL     1       4.858   5.673   2.698  0.00  0.00    -0.019 S 
ATOM      8  N   UNL     1       6.082   3.764   1.357  0.00  0.00    -0.300 N 
ATOM      9  H   UNL     1       3.033   4.702   0.879  0.00  0.00    +0.149 HD
ATOM     10  H   UNL     1       6.830   3.991   1.931  0.00  0.00    +0.154 HD
ENDROOT
BRANCH   4  11
ATOM     11  C   UNL     1       2.862   2.121   0.029  0.00  0.00    -0.019 A 
ATOM     12  C   UNL     1       2.776   1.557   1.288  0.00  0.00    +0.009 A 
ATOM     13  C   UNL     1       1.791   0.628   1.567  0.00  0.00    +0.049 A 
ATOM     14  C   UNL     1       0.894   0.252   0.580  0.00  0.00    +0.158 A 
ATOM     15  C   UNL     1       0.980   0.820  -0.688  0.00  0.00    +0.162 A 
ATOM     16  C   UNL     1       1.966   1.755  -0.959  0.00  0.00    +0.055 A 
BRANCH  15  17
ATOM     17  O   UNL     1       0.098   0.459  -1.658  0.00  0.00    -0.491 OA
ATOM     18  C   UNL     1       0.194   1.142  -2.909  0.00  0.00    +0.277 C 
ENDBRANCH  15  17
BRANCH  14  19
ATOM     19  O   UNL     1      -0.072  -0.666   0.851  0.00  0.00    -0.503 OA
ATOM     20  H   UNL     1       0.193  -1.580   0.676  0.00  0.00    +0.292 HD
ENDBRANCH  14  19
ENDBRANCH   4  11
BRANCH   3  21
ATOM     21  C   UNL     1       5.431   1.371  -1.343  0.00  0.00    +0.248 C 
ATOM     22  O   UNL     1       5.609   1.648  -2.515  0.00  0.00    -0.270 OA
ATOM     23  N   UNL     1       5.403   0.081  -0.952  0.00  0.00    -0.281 N 
ATOM     24  H   UNL     1       5.180  -0.143  -0.035  0.00  0.00    +0.155 HD
BRANCH  23  25
ATOM     25  C   UNL     1       5.696  -0.934  -1.868  0.00  0.00    +0.045 A 
ATOM     26  C   UNL     1       6.399  -0.641  -3.030  0.00  0.00    +0.024 A 
ATOM     27  C   UNL     1       6.690  -1.647  -3.931  0.00  0.00    +0.002 A 
ATOM     28  C   UNL     1       6.275  -2.942  -3.682  0.00  0.00    +0.001 A 
ATOM     29  C   UNL     1       5.571  -3.236  -2.529  0.00  0.00    +0.014 A 
ATOM     30  C   UNL     1       5.280  -2.236  -1.621  0.00  0.00    +0.076 A 
BRANCH  30  31
ATOM     31  C   UNL     1       4.513  -2.557  -0.364  0.00  0.00    +0.419 C 
ATOM     32  F   UNL     1       4.151  -3.908  -0.372  0.00  0.00    -0.166 F 
ATOM     33  F   UNL     1       5.316  -2.295   0.751  0.00  0.00    -0.166 F 
ATOM     34  F   UNL     1       3.361  -1.766  -0.306  0.00  0.00    -0.166 F 
ENDBRANCH  30  31
ENDBRANCH  23  25
ENDBRANCH   3  21
TORSDOF 6
