REMARK  Name = ZINC12606718
REMARK  5 active torsions:
REMARK  status: ('A' for Active; 'I' for Inactive)
REMARK    1  A    between atoms: C_1  and  C_2
REMARK    2  A    between atoms: C_11  and  N_29
REMARK    3  A    between atoms: C_13  and  C_15
REMARK    4  A    between atoms: C_15  and  C_16
REMARK    5  A    between atoms: C_16  and  N_17
REMARK                            x       y       z     vdW  Elec       q    Type
REMARK                         _______ _______ _______ _____ _____    ______ ____
ROOT
ATOM      1  C   UNL     1       4.951  -2.118  -2.333  0.00  0.00    +0.008 C 
ATOM      2  C   UNL     1       3.520  -1.619  -2.120  0.00  0.00    -0.009 C 
ATOM      3  C   UNL     1       2.848  -2.442  -1.017  0.00  0.00    +0.008 C 
ATOM      4  C   UNL     1       1.354  -2.121  -0.968  0.00  0.00    +0.037 C 
ATOM      5  C   UNL     1       1.178  -0.609  -0.860  0.00  0.00    -0.025 A 
ATOM      6  C   UNL     1       2.184   0.227  -1.191  0.00  0.00    -0.004 A 
ATOM      7  S   UNL     1       1.542   1.856  -0.912  0.00  0.00    -0.073 S 
ATOM      8  C   UNL     1      -0.081   1.411  -0.350  0.00  0.00    +0.114 A 
ATOM      9  C   UNL     1      -0.069   0.003  -0.398  0.00  0.00    +0.051 A 
ATOM     10  C   UNL     1      -1.274  -0.632   0.011  0.00  0.00    +0.128 A 
ATOM     11  N   UNL     1      -2.296   0.114   0.397  0.00  0.00    -0.217 NA
ATOM     12  C   UNL     1      -2.236   1.434   0.417  0.00  0.00    +0.134 A 
ATOM     13  N   UNL     1      -1.147   2.079   0.045  0.00  0.00    -0.225 NA
ATOM     14  C   UNL     1       3.548  -0.146  -1.686  0.00  0.00    +0.046 C 
ENDROOT
BRANCH  10  15
ATOM     15  N   UNL     1      -1.376  -2.012   0.005  0.00  0.00    -0.343 N 
ATOM     16  H   UNL     1      -2.312  -2.495   0.323  0.00  0.00    +0.144 HD
ATOM     17  H   UNL     1      -0.522  -2.625  -0.317  0.00  0.00    +0.144 HD
ENDBRANCH  10  15
BRANCH  12  18
ATOM     18  C   UNL     1      -3.440   2.220   0.868  0.00  0.00    +0.091 C 
BRANCH  18  19
ATOM     19  C   UNL     1      -3.365   2.444   2.380  0.00  0.00    +0.092 C 
BRANCH  19  20
ATOM     20  N   UNL     1      -4.539   3.210   2.820  0.00  0.00    -0.299 NA
ATOM     21  C   UNL     1      -4.517   4.571   2.267  0.00  0.00    +0.103 C 
ATOM     22  C   UNL     1      -5.792   5.308   2.682  0.00  0.00    +0.122 C 
ATOM     23  N   UNL     1      -5.881   5.340   4.149  0.00  0.00    -0.314 N 
ATOM     24  C   UNL     1      -5.902   3.979   4.702  0.00  0.00    +0.122 C 
ATOM     25  C   UNL     1      -4.627   3.242   4.287  0.00  0.00    +0.103 C 
ATOM     26  C   UNL     1      -6.991   6.065   4.565  0.00  0.00    +0.099 A 
ATOM     27  C   UNL     1      -7.152   7.382   4.145  0.00  0.00    +0.042 A 
ATOM     28  C   UNL     1      -8.262   8.091   4.567  0.00  0.00    +0.005 A 
ATOM     29  C   UNL     1      -9.177   7.458   5.398  0.00  0.00    +0.018 A 
ATOM     30  C   UNL     1      -8.954   6.149   5.776  0.00  0.00    +0.084 A 
ATOM     31  N   UNL     1      -7.889   5.495   5.354  0.00  0.00    -0.350 N 
ATOM     32  H   UNL     1      -7.757   4.450   5.672  0.00  0.00    +0.166 HD
ENDBRANCH  19  20
ENDBRANCH  18  19
ENDBRANCH  12  18
TORSDOF 4
