REMARK  Name = ZINC24652104
REMARK  9 active torsions:
REMARK  status: ('A' for Active; 'I' for Inactive)
REMARK    1  A    between atoms: C_4  and  N_7
REMARK    2  A    between atoms: C_9  and  C_21
REMARK    3  A    between atoms: C_10  and  C_12
REMARK    4  A    between atoms: C_15  and  N_18
REMARK    5  A    between atoms: C_21  and  C_22
REMARK    6  A    between atoms: N_24  and  C_25
REMARK    7  A    between atoms: C_25  and  C_26
REMARK    8  A    between atoms: C_31  and  C_32
REMARK    9  A    between atoms: C_32  and  N_33
REMARK                            x       y       z     vdW  Elec       q    Type
REMARK                         _______ _______ _______ _____ _____    ______ ____
ROOT
ATOM      1  N   UNL     1      -0.684   3.578   0.026  0.00  0.00    -0.239 N 
ATOM      2  C   UNL     1       0.675   3.601   0.014  0.00  0.00    +0.119 A 
ATOM      3  C   UNL     1       1.111   2.322   0.004  0.00  0.00    +0.007 A 
ATOM      4  C   UNL     1      -0.018   1.480   0.010  0.00  0.00    +0.097 A 
ATOM      5  N   UNL     1      -1.094   2.238   0.019  0.00  0.00    -0.166 NA
ENDROOT
BRANCH   1   9
ATOM      6  C   UNL     1      -3.190   6.907   0.066  0.00  0.00    +0.000 A 
ATOM      7  C   UNL     1      -3.733   5.635   0.064  0.00  0.00    +0.002 A 
ATOM      8  C   UNL     1      -2.905   4.530   0.051  0.00  0.00    +0.028 A 
ATOM      9  C   UNL     1      -1.526   4.697   0.040  0.00  0.00    +0.065 A 
ATOM     10  C   UNL     1      -0.985   5.975   0.047  0.00  0.00    +0.028 A 
ATOM     11  C   UNL     1      -1.818   7.077   0.053  0.00  0.00    +0.002 A 
ENDBRANCH   1   9
BRANCH   4  12
ATOM     12  C   UNL     1       0.002  -0.004   0.002  0.00  0.00    +0.003 A 
ATOM     13  C   UNL     1       0.989  -0.686  -0.707  0.00  0.00    +0.012 A 
ATOM     14  C   UNL     1       1.005  -2.066  -0.708  0.00  0.00    +0.033 A 
ATOM     15  C   UNL     1       0.039  -2.772  -0.014  0.00  0.00    +0.126 A 
ATOM     16  C   UNL     1      -0.946  -2.100   0.687  0.00  0.00    +0.033 A 
ATOM     17  C   UNL     1      -0.969  -0.720   0.699  0.00  0.00    +0.012 A 
BRANCH  15  18
ATOM     18  N   UNL     1       0.059  -4.252  -0.022  0.00  0.00    +0.056 N 
ATOM     19  O   UNL     1      -0.791  -4.876   0.587  0.00  0.00    -0.126 OA
ATOM     20  O   UNL     1       0.925  -4.846  -0.639  0.00  0.00    -0.126 OA
ENDBRANCH  15  18
ENDBRANCH   4  12
BRANCH   3  21
ATOM     21  C   UNL     1       2.550   1.877  -0.012  0.00  0.00    +0.134 C 
BRANCH  21  22
ATOM     22  C   UNL     1       2.980   1.617  -1.433  0.00  0.00    +0.218 C 
ATOM     23  O   UNL     1       2.195   1.779  -2.343  0.00  0.00    -0.275 OA
ATOM     24  N   UNL     1       4.237   1.206  -1.693  0.00  0.00    -0.311 N 
ATOM     25  H   UNL     1       4.949   1.060  -0.867  0.00  0.00    +0.149 HD
BRANCH  24  26
ATOM     26  C   UNL     1       4.655   0.954  -3.074  0.00  0.00    +0.139 C 
BRANCH  26  27
ATOM     27  C   UNL     1       6.094   0.508  -3.090  0.00  0.00    -0.029 A 
ATOM     28  C   UNL     1       7.093   1.409  -3.410  0.00  0.00    +0.005 A 
ATOM     29  C   UNL     1       8.414   1.001  -3.420  0.00  0.00    +0.000 A 
ATOM     30  C   UNL     1       8.735  -0.310  -3.121  0.00  0.00    +0.000 A 
ATOM     31  C   UNL     1       7.736  -1.212  -2.806  0.00  0.00    +0.002 A 
ATOM     32  C   UNL     1       6.415  -0.802  -2.791  0.00  0.00    -0.059 A 
BRANCH  32  33
ATOM     33  C   UNL     1       5.326  -1.785  -2.448  0.00  0.00    -0.043 C 
BRANCH  33  34
ATOM     34  N   UNL     1       4.690  -2.262  -3.683  0.00  0.00    +0.382 N 
ATOM     35  C   UNL     1       5.704  -2.775  -4.640  0.00  0.00    -0.078 C 
ATOM     36  C   UNL     1       4.874  -3.679  -5.585  0.00  0.00    -0.020 C 
ATOM     37  C   UNL     1       3.854  -4.337  -4.627  0.00  0.00    -0.020 C 
ATOM     38  C   UNL     1       3.784  -3.399  -3.408  0.00  0.00    -0.078 C 
ATOM     39  H   UNL     1       4.142  -1.400  -4.090  0.00  0.00    -0.081 HD
ENDBRANCH  33  34
ENDBRANCH  32  33
ENDBRANCH  26  27
ENDBRANCH  24  26
ENDBRANCH  21  22
ENDBRANCH   3  21
TORSDOF 9
