REMARK  Name = ZINC47137549
REMARK  10 active torsions:
REMARK  status: ('A' for Active; 'I' for Inactive)
REMARK    1  A    between atoms: C_1  and  O_2
REMARK    2  A    between atoms: O_2  and  C_3
REMARK    3  A    between atoms: C_6  and  C_9
REMARK    4  A    between atoms: N_10  and  N_11
REMARK    5  A    between atoms: N_13  and  C_28
REMARK    6  A    between atoms: C_17  and  C_18
REMARK    7  A    between atoms: C_21  and  O_26
REMARK    8  A    between atoms: C_22  and  O_24
REMARK    9  A    between atoms: O_24  and  C_25
REMARK   10  A    between atoms: C_28  and  C_29
REMARK                            x       y       z     vdW  Elec       q    Type
REMARK                         _______ _______ _______ _____ _____    ______ ____
ROOT
ATOM      1  N   UNL     1       1.533  -4.622  -3.897  0.00  0.00    -0.126 NA
ATOM      2  C   UNL     1       1.807  -5.909  -3.809  0.00  0.00    +0.190 C 
ATOM      3  N   UNL     1       2.546  -6.689  -4.671  0.00  0.00    -0.237 N 
ATOM      4  C   UNL     1       2.724  -7.977  -4.430  0.00  0.00    +0.259 C 
ATOM      5  O   UNL     1       3.375  -8.680  -5.181  0.00  0.00    -0.269 OA
ATOM      6  C   UNL     1       2.099  -8.522  -3.210  0.00  0.00    +0.078 C 
ATOM      7  C   UNL     1       2.120  -9.790  -2.724  0.00  0.00    +0.028 C 
ATOM      8  S   UNL     1       1.315  -7.063  -2.539  0.00  0.00    -0.047 S 
ENDROOT
BRANCH   7   9
ATOM      9  C   UNL     1       1.283 -10.149  -1.573  0.00  0.00    -0.020 A 
ATOM     10  C   UNL     1       0.225  -9.316  -1.187  0.00  0.00    +0.012 A 
ATOM     11  C   UNL     1      -0.558  -9.655  -0.105  0.00  0.00    +0.050 A 
ATOM     12  C   UNL     1      -0.302 -10.821   0.604  0.00  0.00    +0.158 A 
ATOM     13  C   UNL     1       0.749 -11.656   0.226  0.00  0.00    +0.162 A 
ATOM     14  C   UNL     1       1.536 -11.327  -0.860  0.00  0.00    +0.057 A 
BRANCH  13  15
ATOM     15  O   UNL     1       0.995 -12.797   0.924  0.00  0.00    -0.491 OA
ATOM     16  C   UNL     1       2.088 -13.604   0.481  0.00  0.00    +0.277 C 
ENDBRANCH  13  15
BRANCH  12  17
ATOM     17  O   UNL     1      -1.078 -11.150   1.669  0.00  0.00    -0.503 OA
ATOM     18  H   UNL     1      -1.848 -11.690   1.444  0.00  0.00    +0.292 HD
ENDBRANCH  12  17
ENDBRANCH   7   9
BRANCH   1  20
ATOM     19  C   UNL     1       1.706  -2.661  -4.984  0.00  0.00    +0.143 C 
ATOM     20  N   UNL     1       1.976  -3.936  -4.896  0.00  0.00    -0.155 NA
BRANCH  19  24
ATOM     21  C   UNL     1      -0.376  -0.713  -1.842  0.00  0.00    +0.120 A 
ATOM     22  C   UNL     1      -0.218  -2.093  -1.816  0.00  0.00    +0.046 A 
ATOM     23  C   UNL     1       0.457  -2.731  -2.834  0.00  0.00    +0.013 A 
ATOM     24  C   UNL     1       0.984  -1.986  -3.895  0.00  0.00    -0.005 A 
ATOM     25  C   UNL     1       0.822  -0.596  -3.915  0.00  0.00    +0.013 A 
ATOM     26  C   UNL     1       0.141   0.031  -2.895  0.00  0.00    +0.046 A 
BRANCH  21  28
ATOM     27  C   UNL     1      -1.548  -0.914   0.217  0.00  0.00    +0.277 C 
ATOM     28  O   UNL     1      -1.042  -0.089  -0.835  0.00  0.00    -0.495 OA
ENDBRANCH  21  28
ENDBRANCH  19  24
ENDBRANCH   1  20
BRANCH   3  29
ATOM     29  C   UNL     1       3.140  -6.085  -5.866  0.00  0.00    +0.190 C 
BRANCH  29  30
ATOM     30  C   UNL     1       4.521  -5.578  -5.539  0.00  0.00    +0.123 A 
ATOM     31  C   UNL     1       5.664  -6.278  -5.652  0.00  0.00    +0.046 A 
ATOM     32  C   UNL     1       6.712  -5.422  -5.243  0.00  0.00    +0.041 A 
ATOM     33  C   UNL     1       6.146  -4.249  -4.904  0.00  0.00    +0.195 A 
ATOM     34  O   UNL     1       4.820  -4.348  -5.091  0.00  0.00    -0.466 OA
ENDBRANCH  29  30
ENDBRANCH   3  29
TORSDOF 8
