REMARK  Name = ZINC04613336
REMARK  7 active torsions:
REMARK  status: ('A' for Active; 'I' for Inactive)
REMARK    1  A    between atoms: C_1  and  C_2
REMARK    2  A    between atoms: C_2  and  C_3
REMARK    3  A    between atoms: C_2  and  C_4
REMARK    4  A    between atoms: C_2  and  C_5
REMARK    5  A    between atoms: C_12  and  N_25
REMARK    6  A    between atoms: C_13  and  C_23
REMARK    7  A    between atoms: C_14  and  C_16
REMARK                            x       y       z     vdW  Elec       q    Type
REMARK                         _______ _______ _______ _____ _____    ______ ____
ROOT
ATOM      1  C   UNL     1       1.393  -0.943  -1.968  0.00  0.00    +0.076 A 
ATOM      2  C   UNL     1       1.022  -2.266  -2.166  0.00  0.00    +0.050 A 
ATOM      3  C   UNL     1       1.391  -2.624  -3.433  0.00  0.00    +0.222 A 
ATOM      4  N   UNL     1       1.973  -1.557  -4.003  0.00  0.00    -0.246 N 
ATOM      5  H   UNL     1       2.336  -1.516  -4.902  0.00  0.00    +0.192 HD
ATOM      6  N   UNL     1       1.960  -0.509  -3.069  0.00  0.00    -0.175 NA
ATOM      7  O   UNL     1       1.164  -3.861  -3.939  0.00  0.00    -0.423 OA
ATOM      8  C   UNL     1       0.318  -4.667  -3.266  0.00  0.00    +0.200 C 
ATOM      9  C   UNL     1      -0.108  -4.425  -2.006  0.00  0.00    +0.098 C 
ATOM     10  C   UNL     1       0.336  -3.217  -1.220  0.00  0.00    +0.101 C 
ENDROOT
BRANCH  10  11
ATOM     11  C   UNL     1       1.295  -3.638  -0.137  0.00  0.00    -0.033 A 
ATOM     12  C   UNL     1       2.622  -3.880  -0.445  0.00  0.00    +0.004 A 
ATOM     13  C   UNL     1       3.502  -4.267   0.548  0.00  0.00    +0.002 A 
ATOM     14  C   UNL     1       3.058  -4.412   1.849  0.00  0.00    +0.020 A 
ATOM     15  C   UNL     1       1.731  -4.170   2.157  0.00  0.00    +0.041 A 
ATOM     16  C   UNL     1       0.851  -3.777   1.164  0.00  0.00    +0.024 A 
ATOM     17 CL   UNL     1       1.172  -4.352   3.791  0.00  0.00    -0.084 Cl
ENDBRANCH  10  11
BRANCH   1  19
ATOM     18  C   UNL     1       1.589   1.311  -0.952  0.00  0.00    +0.017 C 
ATOM     19  C   UNL     1       1.177  -0.143  -0.709  0.00  0.00    +0.007 C 
ATOM     20  C   UNL     1       2.025  -0.730   0.421  0.00  0.00    +0.017 C 
ATOM     21  C   UNL     1      -0.301  -0.196  -0.318  0.00  0.00    +0.017 C 
ENDBRANCH   1  19
BRANCH   8  22
ATOM     22  N   UNL     1      -0.139  -5.797  -3.897  0.00  0.00    -0.328 N 
ATOM     23  H   UNL     1       0.148  -5.997  -4.801  0.00  0.00    +0.145 HD
ATOM     24  H   UNL     1      -0.749  -6.395  -3.438  0.00  0.00    +0.145 HD
ENDBRANCH   8  22
BRANCH   9  25
ATOM     25  C   UNL     1      -1.012  -5.352  -1.394  0.00  0.00    +0.101 C 
ATOM     26  N   UNL     1      -1.730  -6.086  -0.909  0.00  0.00    -0.191 NA
ENDBRANCH   9  25
TORSDOF 4
