REMARK  Name = ZINC09328070
REMARK  3 active torsions:
REMARK  status: ('A' for Active; 'I' for Inactive)
REMARK    1  A    between atoms: C_1  and  C_2
REMARK    2  A    between atoms: N_23  and  C_26
REMARK    3  A    between atoms: C_30  and  N_32
REMARK                            x       y       z     vdW  Elec       q    Type
REMARK                         _______ _______ _______ _____ _____    ______ ____
ROOT
ATOM      1  C   UNL     1       4.825  -5.960   1.725  0.00  0.00    +0.047 C 
ATOM      2  C   UNL     1       4.955  -4.475   1.945  0.00  0.00    -0.011 A 
ATOM      3  C   UNL     1       5.143  -3.983   3.221  0.00  0.00    +0.046 A 
ATOM      4  C   UNL     1       5.262  -2.620   3.431  0.00  0.00    +0.020 A 
ATOM      5  C   UNL     1       5.197  -1.750   2.358  0.00  0.00    +0.006 A 
ATOM      6  C   UNL     1       5.019  -2.236   1.081  0.00  0.00    -0.027 A 
ATOM      7  C   UNL     1       4.886  -3.605   0.861  0.00  0.00    +0.040 A 
ATOM      8  N   UNL     1       4.696  -3.859  -0.499  0.00  0.00    -0.286 N 
ATOM      9  C   UNL     1       4.687  -2.729  -1.230  0.00  0.00    +0.212 C 
ATOM     10  O   UNL     1       4.534  -2.647  -2.430  0.00  0.00    -0.277 OA
ATOM     11  C   UNL     1       4.904  -1.585  -0.270  0.00  0.00    +0.053 C 
ATOM     12  C   UNL     1       3.891  -0.526  -0.353  0.00  0.00    +0.089 C 
ATOM     13  C   UNL     1       4.622   0.679   0.365  0.00  0.00    +0.074 C 
ATOM     14  C   UNL     1       5.953   0.589  -0.378  0.00  0.00    -0.054 C 
ATOM     15  C   UNL     1       7.298  -1.324   0.182  0.00  0.00    -0.076 C 
ATOM     16  C   UNL     1       8.173  -0.058   0.372  0.00  0.00    -0.020 C 
ATOM     17  C   UNL     1       7.096   1.043   0.551  0.00  0.00    -0.016 C 
ATOM     18  C   UNL     1       3.619   1.729  -0.028  0.00  0.00    +0.228 C 
ATOM     19  O   UNL     1       3.842   2.890  -0.299  0.00  0.00    -0.275 OA
ATOM     20  N   UNL     1       2.405   1.104  -0.014  0.00  0.00    -0.210 N 
ATOM     21  C   UNL     1       2.512  -0.265  -0.021  0.00  0.00    +0.229 C 
ATOM     22  O   UNL     1       1.639  -1.076   0.201  0.00  0.00    -0.275 OA
ATOM     23 CL   UNL     1       5.230  -5.076   4.567  0.00  0.00    -0.083 Cl
ATOM     24  H   UNL     1       4.584  -4.747  -0.873  0.00  0.00    +0.155 HD
ATOM     25  N   UNL     1       6.152  -0.846  -0.635  0.00  0.00    +0.395 N 
ATOM     26  H   UNL     1       6.356  -0.994  -1.631  0.00  0.00    -0.079 HD
ENDROOT
BRANCH  20  27
ATOM     27  C   UNL     1       1.180   1.787   0.000  0.00  0.00    +0.046 A 
ATOM     28  C   UNL     1      -0.013   1.076   0.008  0.00  0.00    +0.025 A 
ATOM     29  C   UNL     1      -1.217   1.750   0.017  0.00  0.00    +0.024 A 
ATOM     30  C   UNL     1      -1.237   3.134   0.029  0.00  0.00    +0.071 A 
ATOM     31  C   UNL     1      -0.050   3.845   0.022  0.00  0.00    +0.146 A 
ATOM     32  C   UNL     1       1.158   3.175   0.008  0.00  0.00    +0.058 A 
ATOM     33 CL   UNL     1      -2.753   3.980   0.047  0.00  0.00    -0.081 Cl
BRANCH  31  34
ATOM     34  N   UNL     1      -0.074   5.325   0.030  0.00  0.00    +0.058 N 
ATOM     35  O   UNL     1       0.971   5.951   0.023  0.00  0.00    -0.126 OA
ATOM     36  O   UNL     1      -1.138   5.917   0.043  0.00  0.00    -0.126 OA
ENDBRANCH  31  34
ENDBRANCH  20  27
TORSDOF 2
