REMARK  Name = ZINC64502368
REMARK  7 active torsions:
REMARK  status: ('A' for Active; 'I' for Inactive)
REMARK    1  A    between atoms: C_1  and  C_2
REMARK    2  A    between atoms: C_2  and  N_3
REMARK    3  A    between atoms: C_11  and  N_15
REMARK    4  A    between atoms: C_19  and  C_22
REMARK    5  A    between atoms: N_24  and  C_25
REMARK    6  A    between atoms: C_25  and  C_26
REMARK    7  A    between atoms: C_26  and  C_27
REMARK                            x       y       z     vdW  Elec       q    Type
REMARK                         _______ _______ _______ _____ _____    ______ ____
ROOT
ATOM      1  N   UNL     1      -4.338  -0.050  -1.222  0.00  0.00    +0.398 N 
ATOM      2  C   UNL     1      -4.103   0.801  -0.049  0.00  0.00    -0.075 C 
ATOM      3  C   UNL     1      -4.979   2.052  -0.137  0.00  0.00    -0.018 C 
ATOM      4  C   UNL     1      -6.452   1.635  -0.180  0.00  0.00    +0.009 C 
ATOM      5  C   UNL     1      -6.670   0.689  -1.364  0.00  0.00    +0.058 C 
ATOM      6  C   UNL     1      -5.731  -0.512  -1.231  0.00  0.00    -0.063 C 
ATOM      7  H   UNL     1      -4.155   0.480  -2.061  0.00  0.00    -0.078 HD
ENDROOT
BRANCH   1  16
ATOM      8  N   UNL     1      -1.372  -0.511   0.012  0.00  0.00    -0.270 N 
ATOM      9  C   UNL     1      -2.013  -0.752   1.234  0.00  0.00    +0.057 A 
ATOM     10  C   UNL     1      -1.492  -0.254   2.417  0.00  0.00    +0.025 A 
ATOM     11  C   UNL     1      -2.137  -0.507   3.614  0.00  0.00    +0.002 A 
ATOM     12  C   UNL     1      -3.300  -1.255   3.636  0.00  0.00    +0.002 A 
ATOM     13  C   UNL     1      -3.828  -1.756   2.459  0.00  0.00    +0.025 A 
ATOM     14  C   UNL     1      -3.189  -1.504   1.259  0.00  0.00    +0.048 A 
ATOM     15  N   UNL     1      -3.705  -1.986   0.048  0.00  0.00    -0.348 N 
ATOM     16  C   UNL     1      -3.439  -1.210  -1.172  0.00  0.00    +0.105 C 
ATOM     17  C   UNL     1      -2.009  -0.736  -1.153  0.00  0.00    +0.223 C 
ATOM     18  O   UNL     1      -1.422  -0.557  -2.200  0.00  0.00    -0.275 OA
ATOM     19  H   UNL     1      -4.221  -2.807   0.016  0.00  0.00    +0.145 HD
BRANCH   8  21
ATOM     20  C   UNL     1      -0.019   1.526   0.010  0.00  0.00    +0.025 C 
ATOM     21  C   UNL     1       0.002  -0.004   0.002  0.00  0.00    +0.110 C 
ENDBRANCH   8  21
ENDBRANCH   1  16
BRANCH   5  22
ATOM     22  C   UNL     1      -8.100   0.212  -1.371  0.00  0.00    +0.214 C 
ATOM     23  O   UNL     1      -8.345  -0.972  -1.282  0.00  0.00    -0.276 OA
ATOM     24  N   UNL     1      -9.106   1.103  -1.477  0.00  0.00    -0.315 N 
ATOM     25  H   UNL     1      -8.910   2.050  -1.548  0.00  0.00    +0.149 HD
BRANCH  24  26
ATOM     26  C   UNL     1     -10.496   0.639  -1.483  0.00  0.00    +0.108 C 
BRANCH  26  27
ATOM     27  C   UNL     1     -11.434   1.842  -1.612  0.00  0.00    +0.052 C 
BRANCH  27  28
ATOM     28  C   UNL     1     -12.863   1.365  -1.619  0.00  0.00    -0.040 C 
ATOM     29  C   UNL     1     -13.701   1.290  -0.559  0.00  0.00    -0.001 A 
ATOM     30  C   UNL     1     -13.537   1.617   0.863  0.00  0.00    +0.010 A 
ATOM     31  C   UNL     1     -14.580   1.431   1.703  0.00  0.00    +0.001 A 
ATOM     32  C   UNL     1     -15.811   0.935   1.251  0.00  0.00    +0.002 A 
ATOM     33  C   UNL     1     -16.038   0.613  -0.040  0.00  0.00    +0.026 A 
ATOM     34  C   UNL     1     -15.010   0.769  -1.011  0.00  0.00    +0.043 A 
ATOM     35  N   UNL     1     -14.984   0.531  -2.300  0.00  0.00    -0.380 N 
ATOM     36  C   UNL     1     -13.655   0.880  -2.813  0.00  0.00    +0.144 C 
ATOM     37  H   UNL     1     -15.721   0.185  -2.827  0.00  0.00    +0.160 HD
ENDBRANCH  27  28
ENDBRANCH  26  27
ENDBRANCH  24  26
ENDBRANCH   5  22
TORSDOF 6
