REMARK  Name = ZINC39665389
REMARK  8 active torsions:
REMARK  status: ('A' for Active; 'I' for Inactive)
REMARK    1  A    between atoms: C_1  and  C_2
REMARK    2  A    between atoms: C_2  and  C_4
REMARK    3  A    between atoms: C_2  and  O_33
REMARK    4  A    between atoms: C_4  and  N_5
REMARK    5  A    between atoms: C_6  and  C_8
REMARK    6  A    between atoms: C_19  and  C_21
REMARK    7  A    between atoms: C_24  and  C_26
REMARK    8  A    between atoms: O_33  and  C_34
REMARK                            x       y       z     vdW  Elec       q    Type
REMARK                         _______ _______ _______ _____ _____    ______ ____
ROOT
ATOM      1  C   UNL     1      -3.315  -2.683   0.002  0.00  0.00    +0.100 C 
ATOM      2  C   UNL     1      -2.702  -3.616   1.070  0.00  0.00    +0.121 C 
ATOM      3  N   UNL     1      -3.811  -3.880   2.018  0.00  0.00    -0.294 N 
ATOM      4  C   UNL     1      -5.007  -4.028   1.154  0.00  0.00    +0.115 C 
ATOM      5  C   UNL     1      -4.827  -2.959   0.057  0.00  0.00    -0.004 C 
ATOM      6  C   UNL     1      -5.583  -1.688   0.432  0.00  0.00    -0.010 C 
ATOM      7  C   UNL     1      -7.087  -1.973   0.426  0.00  0.00    -0.082 C 
ATOM      8  N   UNL     1      -7.494  -2.433  -0.908  0.00  0.00    +0.379 N 
ATOM      9  C   UNL     1      -6.833  -3.705  -1.222  0.00  0.00    -0.082 C 
ATOM     10  C   UNL     1      -5.317  -3.493  -1.285  0.00  0.00    -0.010 C 
ATOM     11  C   UNL     1      -3.747  -3.965   3.361  0.00  0.00    +0.282 C 
ATOM     12  O   UNL     1      -4.735  -4.278   3.999  0.00  0.00    -0.267 OA
ATOM     13  H   UNL     1      -8.495  -2.562  -0.927  0.00  0.00    -0.086 HD
ATOM     14  H   UNL     1      -7.234  -1.741  -1.594  0.00  0.00    -0.086 HD
ENDROOT
BRANCH  11  15
ATOM     15  C   UNL     1      -2.487  -3.682   4.053  0.00  0.00    +0.190 A 
ATOM     16  C   UNL     1      -2.256  -3.829   5.404  0.00  0.00    +0.055 A 
ATOM     17  C   UNL     1      -0.929  -3.449   5.629  0.00  0.00    +0.051 A 
ATOM     18  C   UNL     1      -0.404  -3.087   4.422  0.00  0.00    +0.139 A 
ATOM     19  O   UNL     1      -1.350  -3.236   3.479  0.00  0.00    -0.450 OA
BRANCH  18  20
ATOM     20  C   UNL     1       0.976  -2.615   4.189  0.00  0.00    +0.052 A 
ATOM     21  C   UNL     1       1.472  -1.520   4.900  0.00  0.00    +0.014 A 
ATOM     22  C   UNL     1       2.762  -1.085   4.678  0.00  0.00    +0.001 A 
ATOM     23  C   UNL     1       3.565  -1.730   3.754  0.00  0.00    +0.003 A 
ATOM     24  C   UNL     1       3.083  -2.815   3.045  0.00  0.00    +0.039 A 
ATOM     25  C   UNL     1       1.794  -3.267   3.261  0.00  0.00    +0.134 A 
ATOM     26  F   UNL     1       1.325  -4.330   2.573  0.00  0.00    -0.205 F 
ENDBRANCH  18  20
ENDBRANCH  11  15
BRANCH   1  28
ATOM     27  N   UNL     1      -3.078  -0.303  -0.627  0.00  0.00    -0.312 N 
ATOM     28  C   UNL     1      -3.032  -1.242   0.338  0.00  0.00    +0.218 C 
ATOM     29  O   UNL     1      -2.763  -0.927   1.478  0.00  0.00    -0.275 OA
ATOM     30  H   UNL     1      -3.222  -0.563  -1.551  0.00  0.00    +0.149 HD
BRANCH  27  31
ATOM     31  C   UNL     1      -2.912   1.111  -0.282  0.00  0.00    +0.148 C 
BRANCH  31  33
ATOM     32  C   UNL     1      -3.081   3.450  -1.145  0.00  0.00    +0.053 C 
ATOM     33  C   UNL     1      -3.128   1.970  -1.530  0.00  0.00    +0.187 C 
BRANCH  33  34
ATOM     34  O   UNL     1      -2.100   1.692  -2.483  0.00  0.00    -0.488 OA
BRANCH  34  35
ATOM     35  C   UNL     1      -2.390   1.931  -3.790  0.00  0.00    +0.121 A 
ATOM     36  C   UNL     1      -3.592   2.531  -4.137  0.00  0.00    +0.045 A 
ATOM     37  C   UNL     1      -3.883   2.773  -5.465  0.00  0.00    +0.004 A 
ATOM     38  C   UNL     1      -2.978   2.419  -6.449  0.00  0.00    +0.000 A 
ATOM     39  C   UNL     1      -1.780   1.821  -6.105  0.00  0.00    +0.004 A 
ATOM     40  C   UNL     1      -1.481   1.582  -4.778  0.00  0.00    +0.045 A 
ENDBRANCH  34  35
ENDBRANCH  33  34
ENDBRANCH  31  33
ENDBRANCH  27  31
ENDBRANCH   1  28
TORSDOF 7
