REMARK  Name = ZINC00215207
REMARK  3 active torsions:
REMARK  status: ('A' for Active; 'I' for Inactive)
REMARK    1  A    between atoms: C_5  and  S_7
REMARK    2  A    between atoms: S_7  and  N_10
REMARK    3  A    between atoms: N_10  and  C_11
REMARK                            x       y       z     vdW  Elec       q    Type
REMARK                         _______ _______ _______ _____ _____    ______ ____
ROOT
ATOM      1  S   UNL     1      -1.555   2.275   0.022  0.00  0.00    +0.061 S 
ATOM      2  O   UNL     1      -2.342   1.686   1.048  0.00  0.00    -0.153 OA
ATOM      3  O   UNL     1      -1.245   3.662   0.001  0.00  0.00    -0.153 OA
ENDROOT
BRANCH   1   8
ATOM      4  C   UNL     1       2.382   1.461  -0.012  0.00  0.00    +0.004 A 
ATOM      5  C   UNL     1       2.473   0.110  -0.021  0.00  0.00    +0.031 A 
ATOM      6  C   UNL     1       1.295  -0.682  -0.014  0.00  0.00    +0.102 A 
ATOM      7  C   UNL     1       0.002  -0.004   0.002  0.00  0.00    +0.126 A 
ATOM      8  C   UNL     1      -0.017   1.415   0.010  0.00  0.00    +0.133 A 
ATOM      9  C   UNL     1       1.146   2.108   0.002  0.00  0.00    +0.031 A 
ATOM     10  N   UNL     1      -1.014  -0.865   0.007  0.00  0.00    -0.189 NA
ATOM     11  S   UNL     1      -0.375  -2.296  -0.007  0.00  0.00    +0.117 S 
ATOM     12  N   UNL     1       1.165  -2.007  -0.020  0.00  0.00    -0.191 NA
ENDBRANCH   1   8
BRANCH   1  13
ATOM     13  N   UNL     1      -2.316   1.938  -1.410  0.00  0.00    -0.187 NA
ATOM     14  H   UNL     1      -2.477   2.647  -2.052  0.00  0.00    +0.148 HD
BRANCH  13  15
ATOM     15  C   UNL     1      -2.744   0.569  -1.708  0.00  0.00    +0.077 C 
ATOM     16  C   UNL     1      -1.635  -0.139  -2.511  0.00  0.00    +0.020 C 
ATOM     17  C   UNL     1      -1.822  -1.626  -2.375  0.00  0.00    +0.002 C 
ATOM     18  C   UNL     1      -2.643  -2.223  -3.534  0.00  0.00    +0.000 C 
ATOM     19  C   UNL     1      -3.848  -1.346  -3.926  0.00  0.00    +0.000 C 
ATOM     20  C   UNL     1      -4.567  -0.788  -2.729  0.00  0.00    +0.002 C 
ATOM     21  C   UNL     1      -4.006   0.618  -2.432  0.00  0.00    +0.020 C 
ENDBRANCH  13  15
ENDBRANCH   1  13
TORSDOF 3
