REMARK  Name = ZINC63075089
REMARK  10 active torsions:
REMARK  status: ('A' for Active; 'I' for Inactive)
REMARK    1  A    between atoms: C_1  and  C_2
REMARK    2  A    between atoms: C_2  and  O_3
REMARK    3  A    between atoms: O_3  and  C_4
REMARK    4  A    between atoms: C_9  and  S_14
REMARK    5  A    between atoms: S_14  and  C_15
REMARK    6  A    between atoms: C_15  and  C_16
REMARK    7  A    between atoms: N_18  and  C_19
REMARK    8  A    between atoms: C_25  and  O_29
REMARK    9  A    between atoms: O_29  and  C_30
REMARK   10  A    between atoms: C_30  and  C_31
REMARK                            x       y       z     vdW  Elec       q    Type
REMARK                         _______ _______ _______ _____ _____    ______ ____
ROOT
ATOM      1  C   UNL     1       5.684  -6.303  -1.447  0.00  0.00    +0.225 C 
ATOM      2  O   UNL     1       6.063  -7.270  -2.072  0.00  0.00    -0.275 OA
ATOM      3  N   UNL     1       6.484  -5.747  -0.516  0.00  0.00    -0.288 N 
ATOM      4  H   UNL     1       6.181  -4.973  -0.015  0.00  0.00    +0.151 HD
ENDROOT
BRANCH   3   5
ATOM      5  C   UNL     1       7.811  -6.311  -0.259  0.00  0.00    +0.224 C 
ATOM      6  N   UNL     1       8.400  -5.743   0.961  0.00  0.00    -0.316 N 
ATOM      7  C   UNL     1       9.588  -5.020   0.828  0.00  0.00    +0.043 A 
ATOM      8  C   UNL     1      10.293  -4.405   1.878  0.00  0.00    +0.027 A 
ATOM      9  C   UNL     1      11.458  -3.713   1.646  0.00  0.00    +0.047 A 
ATOM     10  C   UNL     1      11.978  -3.596   0.365  0.00  0.00    +0.122 A 
ATOM     11  C   UNL     1      11.300  -4.194  -0.690  0.00  0.00    +0.062 A 
ATOM     12  C   UNL     1      10.134  -4.886  -0.452  0.00  0.00    +0.035 A 
ATOM     13  S   UNL     1       9.020  -5.761  -1.528  0.00  0.00    -0.082 S 
ATOM     14  H   UNL     1       7.979  -5.864   1.827  0.00  0.00    +0.149 HD
BRANCH  10  15
ATOM     15  O   UNL     1      13.131  -2.909   0.146  0.00  0.00    -0.492 OA
BRANCH  15  16
ATOM     16  C   UNL     1      13.764  -2.325   1.286  0.00  0.00    +0.225 C 
ATOM     17  C   UNL     1      15.037  -1.599   0.846  0.00  0.00    +0.048 C 
ENDBRANCH  15  16
ENDBRANCH  10  15
ENDBRANCH   3   5
BRANCH   1  18
ATOM     18  C   UNL     1       4.319  -5.723  -1.711  0.00  0.00    +0.168 C 
BRANCH  18  19
ATOM     19  S   UNL     1       3.493  -6.685  -3.009  0.00  0.00    -0.106 S 
BRANCH  19  25
ATOM     20  C   UNL     1       0.776  -1.807  -1.336  0.00  0.00    +0.123 A 
ATOM     21  C   UNL     1       0.208  -2.690  -0.325  0.00  0.00    +0.048 A 
ATOM     22  C   UNL     1       0.281  -4.030  -0.429  0.00  0.00    +0.031 A 
ATOM     23  C   UNL     1       0.949  -4.637  -1.589  0.00  0.00    +0.061 A 
ATOM     24  N   UNL     1       1.157  -5.877  -1.931  0.00  0.00    -0.355 N 
ATOM     25  C   UNL     1       1.885  -5.869  -3.205  0.00  0.00    +0.236 C 
ATOM     26  N   UNL     1       2.076  -4.458  -3.565  0.00  0.00    -0.355 N 
ATOM     27  C   UNL     1       1.530  -3.738  -2.623  0.00  0.00    +0.064 A 
ATOM     28  C   UNL     1       1.403  -2.291  -2.436  0.00  0.00    +0.073 A 
ATOM     29  H   UNL     1       0.882  -6.662  -1.433  0.00  0.00    +0.162 HD
ATOM     30  H   UNL     1       2.524  -4.123  -4.357  0.00  0.00    +0.162 HD
BRANCH  20  31
ATOM     31  O   UNL     1       0.671  -0.465  -1.174  0.00  0.00    -0.492 OA
BRANCH  31  33
ATOM     32  C   UNL     1      -0.019   1.526   0.010  0.00  0.00    +0.048 C 
ATOM     33  C   UNL     1       0.002  -0.004   0.002  0.00  0.00    +0.225 C 
ENDBRANCH  31  33
ENDBRANCH  20  31
ENDBRANCH  19  25
ENDBRANCH  18  19
ENDBRANCH   1  18
TORSDOF 8
