REMARK  Name = ZINC09669510
REMARK  5 active torsions:
REMARK  status: ('A' for Active; 'I' for Inactive)
REMARK    1  A    between atoms: C_3  and  C_9
REMARK    2  A    between atoms: C_12  and  S_20
REMARK    3  A    between atoms: N_13  and  C_14
REMARK    4  A    between atoms: S_20  and  C_21
REMARK    5  A    between atoms: C_21  and  C_22
REMARK                            x       y       z     vdW  Elec       q    Type
REMARK                         _______ _______ _______ _____ _____    ______ ____
ROOT
ATOM      1  C   UNL     1       2.419   3.950   0.095  0.00  0.00    +0.167 A 
ATOM      2  N   UNL     1       3.630   3.445   0.134  0.00  0.00    -0.128 NA
ATOM      3  N   UNL     1       4.499   4.380  -0.011  0.00  0.00    -0.122 NA
ATOM      4  C   UNL     1       3.896   5.540  -0.152  0.00  0.00    +0.193 A 
ATOM      5  N   UNL     1       2.552   5.306  -0.095  0.00  0.00    -0.299 N 
ENDROOT
BRANCH   1   8
ATOM      6  C   UNL     1      -1.021   2.943   1.217  0.00  0.00    +0.021 A 
ATOM      7  C   UNL     1       0.160   3.646   1.101  0.00  0.00    +0.014 A 
ATOM      8  C   UNL     1       1.151   3.201   0.224  0.00  0.00    +0.038 A 
ATOM      9  C   UNL     1       0.939   2.044  -0.531  0.00  0.00    +0.053 A 
ATOM     10  C   UNL     1      -0.247   1.349  -0.405  0.00  0.00    +0.040 A 
ATOM     11  C   UNL     1      -1.228   1.800   0.463  0.00  0.00    +0.042 A 
ATOM     12 CL   UNL     1      -2.720   0.925   0.610  0.00  0.00    -0.083 Cl
ATOM     13 CL   UNL     1       2.165   1.482  -1.623  0.00  0.00    -0.083 Cl
ENDBRANCH   1   8
BRANCH   5  14
ATOM     14  C   UNL     1       1.476   6.293  -0.210  0.00  0.00    +0.091 C 
ATOM     15  C   UNL     1       1.565   6.989  -1.570  0.00  0.00    +0.025 C 
ATOM     16  C   UNL     1       0.441   8.020  -1.689  0.00  0.00    +0.002 C 
ATOM     17  C   UNL     1       0.581   9.059  -0.575  0.00  0.00    +0.000 C 
ATOM     18  C   UNL     1       0.493   8.364   0.785  0.00  0.00    +0.002 C 
ATOM     19  C   UNL     1       1.616   7.332   0.905  0.00  0.00    +0.025 C 
ENDBRANCH   5  14
BRANCH   4  20
ATOM     20  S   UNL     1       4.676   7.103  -0.380  0.00  0.00    -0.078 S 
BRANCH  20  21
ATOM     21  C   UNL     1       6.413   6.595  -0.351  0.00  0.00    +0.153 C 
BRANCH  21  22
ATOM     22  C   UNL     1       7.294   7.804  -0.533  0.00  0.00    +0.146 A 
ATOM     23  N   UNL     1       7.657   8.178  -1.748  0.00  0.00    -0.199 NA
ATOM     24  C   UNL     1       8.431   9.248  -1.913  0.00  0.00    +0.217 A 
ATOM     25  N   UNL     1       8.847   9.935  -0.854  0.00  0.00    -0.181 NA
ATOM     26  C   UNL     1       8.483   9.553   0.365  0.00  0.00    +0.217 A 
ATOM     27  N   UNL     1       7.705   8.485   0.522  0.00  0.00    -0.199 NA
ATOM     28  N   UNL     1       8.912  10.263   1.468  0.00  0.00    -0.327 N 
ATOM     29  N   UNL     1       8.806   9.641  -3.182  0.00  0.00    -0.327 N 
ATOM     30  H   UNL     1       8.647   9.984   2.358  0.00  0.00    +0.145 HD
ATOM     31  H   UNL     1       9.479  11.042   1.353  0.00  0.00    +0.145 HD
ATOM     32  H   UNL     1       9.373  10.418  -3.301  0.00  0.00    +0.145 HD
ATOM     33  H   UNL     1       8.502   9.139  -3.954  0.00  0.00    +0.145 HD
ENDBRANCH  21  22
ENDBRANCH  20  21
ENDBRANCH   4  20
TORSDOF 5
