REMARK  Name = ZINC03438990
REMARK  7 active torsions:
REMARK  status: ('A' for Active; 'I' for Inactive)
REMARK    1  A    between atoms: C_1  and  C_2
REMARK    2  A    between atoms: C_2  and  C_26
REMARK    3  A    between atoms: N_5  and  C_9
REMARK    4  A    between atoms: C_9  and  C_10
REMARK    5  A    between atoms: N_12  and  C_13
REMARK    6  A    between atoms: C_18  and  C_19
REMARK    7  A    between atoms: C_19  and  C_20
REMARK                            x       y       z     vdW  Elec       q    Type
REMARK                         _______ _______ _______ _____ _____    ______ ____
ROOT
ATOM      1  C   UNL     1      -8.480   6.012   4.713  0.00  0.00    +0.047 C 
ATOM      2  C   UNL     1      -7.820   6.713   3.525  0.00  0.00    +0.135 C 
ATOM      3  C   UNL     1      -7.393   5.708   2.473  0.00  0.00    +0.251 C 
ATOM      4  O   UNL     1      -8.108   4.955   1.847  0.00  0.00    -0.272 OA
ATOM      5  N   UNL     1      -6.054   5.826   2.378  0.00  0.00    -0.215 N 
ATOM      6  C   UNL     1      -5.581   6.761   3.211  0.00  0.00    +0.310 C 
ATOM      7  O   UNL     1      -4.404   7.050   3.303  0.00  0.00    -0.252 OA
ATOM      8  N   UNL     1      -6.553   7.344   3.934  0.00  0.00    -0.281 N 
ATOM      9  H   UNL     1      -6.442   8.045   4.596  0.00  0.00    +0.152 HD
ENDROOT
BRANCH   2  10
ATOM     10  C   UNL     1      -8.753   7.735   2.928  0.00  0.00    -0.012 A 
ATOM     11  C   UNL     1      -9.642   7.363   1.937  0.00  0.00    +0.010 A 
ATOM     12  C   UNL     1     -10.499   8.297   1.387  0.00  0.00    +0.050 A 
ATOM     13  C   UNL     1     -10.468   9.612   1.828  0.00  0.00    +0.162 A 
ATOM     14  C   UNL     1      -9.576   9.986   2.826  0.00  0.00    +0.162 A 
ATOM     15  C   UNL     1      -8.722   9.042   3.377  0.00  0.00    +0.055 A 
ATOM     16  O   UNL     1      -9.533  11.270   3.276  0.00  0.00    -0.485 OA
ATOM     17  C   UNL     1     -10.140  12.264   2.444  0.00  0.00    +0.270 C 
ATOM     18  C   UNL     1     -11.512  11.742   1.995  0.00  0.00    +0.270 C 
ATOM     19  O   UNL     1     -11.313  10.523   1.271  0.00  0.00    -0.485 OA
ENDBRANCH   2  10
BRANCH   5  20
ATOM     20  C   UNL     1      -5.220   5.032   1.472  0.00  0.00    +0.214 C 
BRANCH  20  21
ATOM     21  C   UNL     1      -4.771   3.776   2.174  0.00  0.00    +0.235 C 
ATOM     22  O   UNL     1      -5.114   3.565   3.317  0.00  0.00    -0.274 OA
ATOM     23  N   UNL     1      -3.988   2.888   1.529  0.00  0.00    -0.284 N 
ATOM     24  H   UNL     1      -3.648   3.094   0.644  0.00  0.00    +0.155 HD
BRANCH  23  25
ATOM     25  C   UNL     1      -3.666   1.669   2.137  0.00  0.00    +0.037 A 
ATOM     26  C   UNL     1      -4.502   1.134   3.108  0.00  0.00    +0.023 A 
ATOM     27  C   UNL     1      -4.178  -0.066   3.711  0.00  0.00    +0.002 A 
ATOM     28  C   UNL     1      -3.026  -0.737   3.344  0.00  0.00    +0.000 A 
ATOM     29  C   UNL     1      -2.195  -0.209   2.373  0.00  0.00    +0.006 A 
ATOM     30  C   UNL     1      -2.513   0.991   1.767  0.00  0.00    -0.022 A 
BRANCH  30  31
ATOM     31  C   UNL     1      -1.605   1.566   0.710  0.00  0.00    +0.072 C 
BRANCH  31  32
ATOM     32  C   UNL     1      -0.657   2.550   1.344  0.00  0.00    -0.043 A 
ATOM     33  C   UNL     1       0.564   2.120   1.829  0.00  0.00    +0.004 A 
ATOM     34  C   UNL     1       1.437   3.024   2.405  0.00  0.00    +0.000 A 
ATOM     35  C   UNL     1       1.087   4.357   2.501  0.00  0.00    +0.000 A 
ATOM     36  C   UNL     1      -0.136   4.787   2.021  0.00  0.00    +0.000 A 
ATOM     37  C   UNL     1      -1.009   3.884   1.444  0.00  0.00    +0.004 A 
ENDBRANCH  31  32
ENDBRANCH  30  31
ENDBRANCH  23  25
ENDBRANCH  20  21
ENDBRANCH   5  20
TORSDOF 6
