REMARK  Name = ZINC04058928
REMARK  4 active torsions:
REMARK  status: ('A' for Active; 'I' for Inactive)
REMARK    1  A    between atoms: C_2  and  C_12
REMARK    2  A    between atoms: C_4  and  N_9
REMARK    3  A    between atoms: C_5  and  N_8
REMARK    4  A    between atoms: C_6  and  N_7
REMARK                            x       y       z     vdW  Elec       q    Type
REMARK                         _______ _______ _______ _____ _____    ______ ____
ROOT
ATOM      1  C   UNL     1      -0.044   1.322   0.098  0.00  0.00    +0.037 A 
ATOM      2  C   UNL     1       1.071   2.063  -0.249  0.00  0.00    +0.059 A 
ATOM      3  C   UNL     1       2.307   1.451  -0.353  0.00  0.00    +0.047 A 
ATOM      4  C   UNL     1       2.434   0.096  -0.111  0.00  0.00    +0.149 A 
ATOM      5  C   UNL     1       1.322  -0.654   0.238  0.00  0.00    +0.076 A 
ATOM      6  C   UNL     1       0.075  -0.037   0.343  0.00  0.00    +0.048 A 
ENDROOT
BRANCH   2   7
ATOM      7  C   UNL     1       0.939   3.540  -0.516  0.00  0.00    +0.418 C 
ATOM      8  F   UNL     1       1.129   4.247   0.676  0.00  0.00    -0.166 F 
ATOM      9  F   UNL     1       1.903   3.933  -1.450  0.00  0.00    -0.166 F 
ATOM     10  F   UNL     1      -0.337   3.811  -1.021  0.00  0.00    -0.166 F 
ENDBRANCH   2   7
BRANCH   6  11
ATOM     11  N   UNL     1      -1.053  -0.788   0.695  0.00  0.00    -0.356 N 
ATOM     12  H   UNL     1      -1.919  -0.358   0.768  0.00  0.00    +0.142 HD
ATOM     13  H   UNL     1      -0.968  -1.740   0.866  0.00  0.00    +0.142 HD
ENDBRANCH   6  11
BRANCH   5  14
ATOM     14  N   UNL     1       1.449  -2.027   0.483  0.00  0.00    -0.355 N 
ATOM     15  H   UNL     1       2.329  -2.430   0.536  0.00  0.00    +0.142 HD
ATOM     16  H   UNL     1       0.657  -2.574   0.601  0.00  0.00    +0.142 HD
ENDBRANCH   5  14
BRANCH   4  17
ATOM     17  N   UNL     1       3.759  -0.555  -0.224  0.00  0.00    +0.058 N 
ATOM     18  O   UNL     1       4.752   0.028   0.145  0.00  0.00    -0.126 OA
ATOM     19  O   UNL     1       3.849  -1.669  -0.685  0.00  0.00    -0.126 OA
ENDBRANCH   4  17
TORSDOF 4
