REMARK  Name = ZINC24195470
REMARK  8 active torsions:
REMARK  status: ('A' for Active; 'I' for Inactive)
REMARK    1  A    between atoms: C_1  and  C_2
REMARK    2  A    between atoms: C_2  and  C_3
REMARK    3  A    between atoms: C_3  and  N_4
REMARK    4  A    between atoms: C_14  and  S_15
REMARK    5  A    between atoms: S_15  and  C_16
REMARK    6  A    between atoms: C_16  and  C_17
REMARK    7  A    between atoms: N_19  and  C_20
REMARK    8  A    between atoms: C_24  and  N_26
REMARK                            x       y       z     vdW  Elec       q    Type
REMARK                         _______ _______ _______ _____ _____    ______ ____
ROOT
ATOM      1  S   UNL     1      -0.889   1.683  -1.458  0.00  0.00    -0.078 S 
ENDROOT
BRANCH   1  12
ATOM      2  N   UNL     1      -0.223   1.209  -4.027  0.00  0.00    -0.287 N 
ATOM      3  C   UNL     1       0.519   0.688  -5.031  0.00  0.00    +0.262 A 
ATOM      4  O   UNL     1       0.230   0.886  -6.197  0.00  0.00    -0.267 OA
ATOM      5  C   UNL     1       1.687  -0.124  -4.663  0.00  0.00    +0.066 A 
ATOM      6  C   UNL     1       2.513  -0.704  -5.625  0.00  0.00    +0.030 A 
ATOM      7  C   UNL     1       3.595  -1.456  -5.223  0.00  0.00    +0.019 A 
ATOM      8  C   UNL     1       3.865  -1.640  -3.872  0.00  0.00    +0.017 A 
ATOM      9  C   UNL     1       3.069  -1.081  -2.914  0.00  0.00    +0.029 A 
ATOM     10  C   UNL     1       1.963  -0.313  -3.290  0.00  0.00    +0.079 A 
ATOM     11  N   UNL     1       1.153   0.262  -2.370  0.00  0.00    -0.223 NA
ATOM     12  C   UNL     1       0.115   0.979  -2.723  0.00  0.00    +0.173 A 
ATOM     13 BR   UNL     1       4.721  -2.247  -6.520  0.00  0.00    -0.050 Br
BRANCH   2  14
ATOM     14  C   UNL     1      -1.397   2.027  -4.339  0.00  0.00    +0.127 C 
BRANCH  14  16
ATOM     15  C   UNL     1      -2.208   4.349  -4.779  0.00  0.00    +0.005 C 
ATOM     16  C   UNL     1      -0.982   3.495  -4.452  0.00  0.00    +0.018 C 
ENDBRANCH  14  16
ENDBRANCH   2  14
ENDBRANCH   1  12
BRANCH   1  17
ATOM     17  C   UNL     1      -0.016   1.080   0.008  0.00  0.00    +0.173 C 
BRANCH  17  18
ATOM     18  C   UNL     1      -0.717   1.573   1.248  0.00  0.00    +0.227 C 
ATOM     19  O   UNL     1      -1.709   2.264   1.150  0.00  0.00    -0.275 OA
ATOM     20  N   UNL     1      -0.242   1.246   2.466  0.00  0.00    -0.285 N 
ATOM     21  H   UNL     1       0.612   0.558   2.557  0.00  0.00    +0.155 HD
BRANCH  20  22
ATOM     22  C   UNL     1      -0.834   1.782   3.616  0.00  0.00    +0.036 A 
ATOM     23  C   UNL     1      -0.052   2.086   4.723  0.00  0.00    +0.026 A 
ATOM     24  C   UNL     1      -0.637   2.621   5.854  0.00  0.00    +0.042 A 
ATOM     25  C   UNL     1      -2.004   2.842   5.889  0.00  0.00    +0.154 A 
ATOM     26  C   UNL     1      -2.786   2.535   4.788  0.00  0.00    +0.163 A 
ATOM     27  C   UNL     1      -2.203   2.006   3.653  0.00  0.00    +0.059 A 
ATOM     28  F   UNL     1      -2.575   3.360   6.998  0.00  0.00    -0.203 F 
BRANCH  26  29
ATOM     29  N   UNL     1      -4.246   2.774   4.828  0.00  0.00    +0.059 N 
ATOM     30  O   UNL     1      -4.934   2.504   3.859  0.00  0.00    -0.126 OA
ATOM     31  O   UNL     1      -4.760   3.241   5.829  0.00  0.00    -0.126 OA
ENDBRANCH  26  29
ENDBRANCH  20  22
ENDBRANCH  17  18
ENDBRANCH   1  17
TORSDOF 7
