REMARK  Name = ZINC19770169
REMARK  9 active torsions:
REMARK  status: ('A' for Active; 'I' for Inactive)
REMARK    1  A    between atoms: C_1  and  C_2
REMARK    2  A    between atoms: C_3  and  C_28
REMARK    3  A    between atoms: C_4  and  C_22
REMARK    4  A    between atoms: C_10  and  C_15
REMARK    5  A    between atoms: C_28  and  O_30
REMARK    6  A    between atoms: O_30  and  C_31
REMARK    7  A    between atoms: C_31  and  C_32
REMARK    8  A    between atoms: C_32  and  O_33
REMARK    9  A    between atoms: O_33  and  C_34
REMARK                            x       y       z     vdW  Elec       q    Type
REMARK                         _______ _______ _______ _____ _____    ______ ____
ROOT
ATOM      1  C   UNL     1      -6.345  -1.237   3.893  0.00  0.00    +0.061 C 
ATOM      2  C   UNL     1      -6.113  -0.639   2.529  0.00  0.00    +0.016 C 
ATOM      3  C   UNL     1      -6.817  -1.088   1.475  0.00  0.00    +0.065 C 
ATOM      4  C   UNL     1      -6.617  -0.511   0.104  0.00  0.00    +0.094 C 
ATOM      5  C   UNL     1      -5.312   0.239   0.018  0.00  0.00    +0.024 C 
ATOM      6  C   UNL     1      -4.672   0.640   1.137  0.00  0.00    +0.016 C 
ATOM      7  N   UNL     1      -5.189   0.356   2.372  0.00  0.00    -0.321 N 
ATOM      8  C   UNL     1      -3.379   1.413   1.057  0.00  0.00    +0.059 C 
ATOM      9  C   UNL     1      -2.605   0.990  -0.193  0.00  0.00    +0.032 C 
ATOM     10  C   UNL     1      -3.484   1.250  -1.421  0.00  0.00    +0.088 C 
ATOM     11  C   UNL     1      -4.785   0.512  -1.257  0.00  0.00    +0.162 C 
ATOM     12  O   UNL     1      -5.391   0.145  -2.244  0.00  0.00    -0.292 OA
ATOM     13  H   UNL     1      -4.854   0.937   3.244  0.00  0.00    +0.152 HD
ENDROOT
BRANCH   9  14
ATOM     14  C   UNL     1      -1.336   1.796  -0.299  0.00  0.00    -0.043 A 
ATOM     15  C   UNL     1      -0.110   1.157  -0.319  0.00  0.00    +0.005 A 
ATOM     16  C   UNL     1       1.053   1.896  -0.423  0.00  0.00    +0.020 A 
ATOM     17  C   UNL     1       0.992   3.276  -0.501  0.00  0.00    +0.041 A 
ATOM     18  C   UNL     1      -0.235   3.915  -0.476  0.00  0.00    +0.020 A 
ATOM     19  C   UNL     1      -1.398   3.176  -0.372  0.00  0.00    +0.005 A 
ATOM     20 CL   UNL     1       2.453   4.204  -0.632  0.00  0.00    -0.084 Cl
ENDBRANCH   9  14
BRANCH   4  21
ATOM     21  C   UNL     1      -7.752   0.431  -0.207  0.00  0.00    -0.017 A 
ATOM     22  C   UNL     1      -8.595   0.185  -1.280  0.00  0.00    +0.007 A 
ATOM     23  C   UNL     1      -9.627   1.077  -1.525  0.00  0.00    +0.020 A 
ATOM     24  C   UNL     1      -9.776   2.178  -0.704  0.00  0.00    +0.111 A 
ATOM     25  N   UNL     1      -8.952   2.383   0.305  0.00  0.00    -0.263 NA
ATOM     26  C   UNL     1      -7.961   1.554   0.571  0.00  0.00    +0.115 A 
ENDBRANCH   4  21
BRANCH   3  27
ATOM     27  C   UNL     1      -7.763  -2.122   1.662  0.00  0.00    +0.338 C 
ATOM     28  O   UNL     1      -7.860  -2.670   2.744  0.00  0.00    -0.245 OA
BRANCH  27  29
ATOM     29  O   UNL     1      -8.558  -2.502   0.639  0.00  0.00    -0.458 OA
BRANCH  29  30
ATOM     30  C   UNL     1      -9.491  -3.553   0.899  0.00  0.00    +0.273 C 
BRANCH  30  31
ATOM     31  C   UNL     1     -10.298  -3.843  -0.368  0.00  0.00    +0.270 C 
BRANCH  31  32
ATOM     32  O   UNL     1      -9.428  -4.352  -1.381  0.00  0.00    -0.489 OA
BRANCH  32  33
ATOM     33  C   UNL     1      -9.990  -4.662  -2.578  0.00  0.00    +0.121 A 
ATOM     34  C   UNL     1     -11.353  -4.487  -2.773  0.00  0.00    +0.045 A 
ATOM     35  C   UNL     1     -11.921  -4.798  -3.993  0.00  0.00    +0.004 A 
ATOM     36  C   UNL     1     -11.135  -5.295  -5.016  0.00  0.00    +0.000 A 
ATOM     37  C   UNL     1      -9.778  -5.476  -4.823  0.00  0.00    +0.004 A 
ATOM     38  C   UNL     1      -9.204  -5.161  -3.607  0.00  0.00    +0.045 A 
ENDBRANCH  32  33
ENDBRANCH  31  32
ENDBRANCH  30  31
ENDBRANCH  29  30
ENDBRANCH  27  29
ENDBRANCH   3  27
TORSDOF 8
