REMARK  Name = ZINC21253306
REMARK  13 active torsions:
REMARK  status: ('A' for Active; 'I' for Inactive)
REMARK    1  A    between atoms: C_1  and  C_2
REMARK    2  A    between atoms: C_2  and  C_3
REMARK    3  A    between atoms: C_2  and  C_4
REMARK    4  A    between atoms: C_4  and  O_5
REMARK    5  A    between atoms: O_5  and  C_6
REMARK    6  A    between atoms: C_9  and  C_12
REMARK    7  A    between atoms: C_17  and  C_22
REMARK    8  A    between atoms: C_24  and  O_32
REMARK    9  A    between atoms: C_25  and  O_30
REMARK   10  A    between atoms: C_26  and  O_28
REMARK   11  A    between atoms: O_28  and  C_29
REMARK   12  A    between atoms: O_30  and  C_31
REMARK   13  A    between atoms: O_32  and  C_33
REMARK                            x       y       z     vdW  Elec       q    Type
REMARK                         _______ _______ _______ _____ _____    ______ ____
ROOT
ATOM      1  C   UNL     1      -1.126   7.561   1.859  0.00  0.00    +0.136 C 
ATOM      2  C   UNL     1      -2.188   8.075   0.917  0.00  0.00    +0.036 C 
ATOM      3  C   UNL     1      -1.974   8.829  -0.176  0.00  0.00    +0.017 C 
ATOM      4  C   UNL     1      -3.139   9.290  -1.035  0.00  0.00    +0.059 C 
ATOM      5  C   UNL     1      -4.254   8.246  -1.008  0.00  0.00    +0.032 C 
ATOM      6  C   UNL     1      -4.698   8.075   0.450  0.00  0.00    +0.088 C 
ATOM      7  C   UNL     1      -3.503   7.690   1.270  0.00  0.00    +0.163 C 
ATOM      8  O   UNL     1      -3.669   7.023   2.272  0.00  0.00    -0.292 OA
ATOM      9  N   UNL     1      -0.755   9.251  -0.596  0.00  0.00    -0.316 N 
ATOM     10  C   UNL     1       0.377   8.449  -0.690  0.00  0.00    +0.052 A 
ATOM     11  C   UNL     1       0.982   8.161  -1.901  0.00  0.00    +0.025 A 
ATOM     12  C   UNL     1       2.135   7.395  -1.918  0.00  0.00    +0.002 A 
ATOM     13  C   UNL     1       2.679   6.927  -0.736  0.00  0.00    +0.002 A 
ATOM     14  C   UNL     1       2.065   7.199   0.474  0.00  0.00    +0.025 A 
ATOM     15  C   UNL     1       0.898   7.946   0.492  0.00  0.00    +0.049 A 
ATOM     16  N   UNL     1       0.182   8.150   1.671  0.00  0.00    -0.331 N 
ATOM     17  H   UNL     1      -0.608  10.300  -0.893  0.00  0.00    +0.152 HD
ATOM     18  H   UNL     1       0.626   8.769   2.465  0.00  0.00    +0.147 HD
ENDROOT
BRANCH   1  22
ATOM     19  C   UNL     1      -0.793   3.332   1.349  0.00  0.00    +0.121 A 
ATOM     20  C   UNL     1      -1.211   3.854   2.564  0.00  0.00    +0.046 A 
ATOM     21  C   UNL     1      -1.312   5.222   2.728  0.00  0.00    +0.009 A 
ATOM     22  C   UNL     1      -1.009   6.070   1.679  0.00  0.00    -0.023 A 
ATOM     23  C   UNL     1      -0.598   5.551   0.465  0.00  0.00    +0.009 A 
ATOM     24  C   UNL     1      -0.489   4.185   0.297  0.00  0.00    +0.046 A 
BRANCH  19  25
ATOM     25  O   UNL     1      -0.688   1.987   1.186  0.00  0.00    -0.492 OA
BRANCH  25  26
ATOM     26  C   UNL     1      -1.017   1.169   2.311  0.00  0.00    +0.232 C 
BRANCH  26  28
ATOM     27  C   UNL     1       0.638  -0.584   1.656  0.00  0.00    +0.010 C 
ATOM     28  C   UNL     1      -0.839  -0.304   1.941  0.00  0.00    +0.020 C 
ATOM     29  C   UNL     1      -1.309  -1.183   3.102  0.00  0.00    +0.010 C 
ENDBRANCH  26  28
ENDBRANCH  25  26
ENDBRANCH  19  25
ENDBRANCH   1  22
BRANCH   5  30
ATOM     30  C   UNL     1      -5.416   8.717  -1.843  0.00  0.00    -0.036 A 
ATOM     31  C   UNL     1      -6.065   9.894  -1.520  0.00  0.00    +0.053 A 
ATOM     32  C   UNL     1      -7.131  10.335  -2.290  0.00  0.00    +0.165 A 
ATOM     33  C   UNL     1      -7.554   9.585  -3.381  0.00  0.00    +0.204 A 
ATOM     34  C   UNL     1      -6.903   8.400  -3.700  0.00  0.00    +0.165 A 
ATOM     35  C   UNL     1      -5.834   7.969  -2.928  0.00  0.00    +0.053 A 
BRANCH  34  36
ATOM     36  O   UNL     1      -7.312   7.663  -4.767  0.00  0.00    -0.491 OA
ATOM     37  C   UNL     1      -6.596   6.456  -5.035  0.00  0.00    +0.277 C 
ENDBRANCH  34  36
BRANCH  33  38
ATOM     38  O   UNL     1      -8.603  10.012  -4.136  0.00  0.00    -0.488 OA
ATOM     39  C   UNL     1      -9.905   9.572  -3.745  0.00  0.00    +0.277 C 
ENDBRANCH  33  38
BRANCH  32  40
ATOM     40  O   UNL     1      -7.765  11.496  -1.974  0.00  0.00    -0.491 OA
ATOM     41  C   UNL     1      -7.276  12.214  -0.840  0.00  0.00    +0.277 C 
ENDBRANCH  32  40
ENDBRANCH   5  30
TORSDOF 8
