REMARK  Name = ZINC36205336
REMARK  12 active torsions:
REMARK  status: ('A' for Active; 'I' for Inactive)
REMARK    1  A    between atoms: C_1  and  C_2
REMARK    2  A    between atoms: C_2  and  C_3
REMARK    3  A    between atoms: C_3  and  C_4
REMARK    4  A    between atoms: C_4  and  C_6
REMARK    5  A    between atoms: C_4  and  O_31
REMARK    6  A    between atoms: C_6  and  N_7
REMARK    7  A    between atoms: N_7  and  C_8
REMARK    8  A    between atoms: N_7  and  C_28
REMARK    9  A    between atoms: C_8  and  C_9
REMARK   10  A    between atoms: C_15  and  C_20
REMARK   11  A    between atoms: C_23  and  C_27
REMARK   12  A    between atoms: C_24  and  C_26
REMARK                            x       y       z     vdW  Elec       q    Type
REMARK                         _______ _______ _______ _____ _____    ______ ____
ROOT
ATOM      1  C   UNL     1      -4.188  -6.069   0.135  0.00  0.00    +0.094 A 
ATOM      2  N   UNL     1      -5.361  -6.743   0.014  0.00  0.00    -0.312 N 
ATOM      3  H   UNL     1      -6.195  -6.248   0.013  0.00  0.00    +0.170 HD
ATOM      4  C   UNL     1      -5.388  -8.083  -0.105  0.00  0.00    +0.260 A 
ATOM      5  O   UNL     1      -6.449  -8.673  -0.214  0.00  0.00    -0.267 OA
ATOM      6  C   UNL     1      -4.152  -8.805  -0.103  0.00  0.00    +0.080 A 
ATOM      7  C   UNL     1      -3.921 -10.240  -0.217  0.00  0.00    +0.004 A 
ATOM      8  C   UNL     1      -2.647 -10.699  -0.190  0.00  0.00    +0.056 A 
ATOM      9  S   UNL     1      -1.677  -9.215  -0.008  0.00  0.00    -0.076 S 
ATOM     10  C   UNL     1      -2.992  -8.024   0.027  0.00  0.00    +0.116 A 
ATOM     11  N   UNL     1      -3.044  -6.699   0.135  0.00  0.00    -0.229 NA
ENDROOT
BRANCH   7  12
ATOM     12  C   UNL     1      -5.060 -11.179  -0.360  0.00  0.00    -0.016 A 
ATOM     13  C   UNL     1      -6.143 -11.103   0.515  0.00  0.00    +0.009 A 
ATOM     14  C   UNL     1      -7.200 -11.979   0.377  0.00  0.00    +0.004 A 
ATOM     15  C   UNL     1      -7.186 -12.932  -0.626  0.00  0.00    -0.048 A 
ATOM     16  C   UNL     1      -6.114 -13.011  -1.497  0.00  0.00    -0.047 A 
ATOM     17  C   UNL     1      -5.054 -12.137  -1.372  0.00  0.00    +0.012 A 
ATOM     18  C   UNL     1      -6.107 -14.052  -2.588  0.00  0.00    +0.044 C 
ATOM     19  C   UNL     1      -8.344 -13.886  -0.771  0.00  0.00    +0.044 C 
ENDBRANCH   7  12
BRANCH   1  20
ATOM     20  C   UNL     1      -4.207  -4.568   0.266  0.00  0.00    -0.003 C 
BRANCH  20  21
ATOM     21  N   UNL     1      -2.830  -4.056   0.230  0.00  0.00    +0.388 N 
ATOM     22  H   UNL     1      -2.275  -4.536   0.922  0.00  0.00    -0.081 HD
BRANCH  21  23
ATOM     23  C   UNL     1      -2.836  -2.616   0.519  0.00  0.00    -0.068 C 
ATOM     24  C   UNL     1      -1.808  -2.094   1.526  0.00  0.00    -0.017 C 
ATOM     25  C   UNL     1      -3.286  -2.178   1.915  0.00  0.00    -0.017 C 
ENDBRANCH  21  23
BRANCH  21  26
ATOM     26  C   UNL     1      -2.257  -4.285  -1.103  0.00  0.00    -0.046 C 
BRANCH  26  27
ATOM     27  C   UNL     1      -0.785  -3.867  -1.104  0.00  0.00    +0.098 C 
BRANCH  27  28
ATOM     28  O   UNL     1      -0.048  -4.717  -0.224  0.00  0.00    -0.394 OA
ATOM     29  H   UNL     1      -0.078  -5.654  -0.464  0.00  0.00    +0.210 HD
ENDBRANCH  27  28
BRANCH  27  30
ATOM     30  C   UNL     1      -0.222  -3.988  -2.521  0.00  0.00    +0.029 C 
BRANCH  30  32
ATOM     31  C   UNL     1       1.775  -3.574  -3.965  0.00  0.00    +0.004 C 
ATOM     32  C   UNL     1       1.211  -3.453  -2.548  0.00  0.00    -0.001 C 
ENDBRANCH  30  32
ENDBRANCH  27  30
ENDBRANCH  26  27
ENDBRANCH  21  26
ENDBRANCH  20  21
ENDBRANCH   1  20
TORSDOF 9
