REMARK  Name = ZINC15003162
REMARK  3 active torsions:
REMARK  status: ('A' for Active; 'I' for Inactive)
REMARK    1  A    between atoms: C_6  and  N_7
REMARK    2  A    between atoms: C_8  and  C_10
REMARK    3  A    between atoms: C_13  and  N_15
REMARK                            x       y       z     vdW  Elec       q    Type
REMARK                         _______ _______ _______ _____ _____    ______ ____
ROOT
ATOM      1  N   UNL     1      -1.201  -0.722   0.010  0.00  0.00    -0.279 N 
ATOM      2  C   UNL     1      -2.374  -0.069   0.127  0.00  0.00    +0.255 C 
ATOM      3  O   UNL     1      -2.396   1.148   0.134  0.00  0.00    -0.269 OA
ATOM      4  H   UNL     1      -1.190  -1.688  -0.076  0.00  0.00    +0.155 HD
ENDROOT
BRANCH   1  10
ATOM      5  C   UNL     1       0.070   1.238   0.627  0.00  0.00    +0.029 A 
ATOM      6  C   UNL     1       1.257   1.944   0.630  0.00  0.00    +0.043 A 
ATOM      7  C   UNL     1       2.382   1.415   0.021  0.00  0.00    +0.161 A 
ATOM      8  C   UNL     1       2.320   0.173  -0.594  0.00  0.00    +0.195 A 
ATOM      9  C   UNL     1       1.132  -0.538  -0.599  0.00  0.00    +0.182 A 
ATOM     10  C   UNL     1       0.003  -0.005   0.013  0.00  0.00    +0.072 A 
ATOM     11  F   UNL     1       1.070  -1.747  -1.198  0.00  0.00    -0.200 F 
ATOM     12  F   UNL     1       3.418  -0.342  -1.188  0.00  0.00    -0.199 F 
ATOM     13  F   UNL     1       3.541   2.108   0.026  0.00  0.00    -0.202 F 
ENDBRANCH   1  10
BRANCH   2  14
ATOM     14  C   UNL     1      -3.624  -0.825   0.246  0.00  0.00    +0.076 A 
ATOM     15  C   UNL     1      -4.923  -0.353   0.368  0.00  0.00    +0.023 A 
ATOM     16  C   UNL     1      -5.901  -1.314   0.461  0.00  0.00    +0.041 A 
ATOM     17  C   UNL     1      -5.545  -2.622   0.427  0.00  0.00    +0.164 A 
ATOM     18  S   UNL     1      -3.873  -2.590   0.262  0.00  0.00    -0.060 S 
BRANCH  17  19
ATOM     19  N   UNL     1      -6.428  -3.807   0.511  0.00  0.00    +0.063 N 
ATOM     20  O   UNL     1      -7.623  -3.664   0.624  0.00  0.00    -0.126 OA
ATOM     21  O   UNL     1      -5.954  -4.918   0.467  0.00  0.00    -0.126 OA
ENDBRANCH  17  19
ENDBRANCH   2  14
TORSDOF 3
