REMARK  Name = ZINC39715257
REMARK  5 active torsions:
REMARK  status: ('A' for Active; 'I' for Inactive)
REMARK    1  A    between atoms: C_8  and  C_13
REMARK    2  A    between atoms: C_13  and  C_24
REMARK    3  A    between atoms: C_14  and  C_15
REMARK    4  A    between atoms: C_18  and  C_21
REMARK    5  A    between atoms: C_24  and  C_26
REMARK                            x       y       z     vdW  Elec       q    Type
REMARK                         _______ _______ _______ _____ _____    ______ ____
ROOT
ATOM      1  C   UNL     1       3.019  -3.663  -1.357  0.00  0.00    +0.031 C 
ATOM      2  C   UNL     1       2.877  -5.004  -1.310  0.00  0.00    +0.018 C 
ENDROOT
BRANCH   1  10
ATOM      3  C   UNL     1       1.593   1.486   0.743  0.00  0.00    +0.002 A 
ATOM      4  C   UNL     1       2.873   2.012   0.504  0.00  0.00    +0.002 A 
ATOM      5  C   UNL     1       3.935   1.236   0.183  0.00  0.00    +0.025 A 
ATOM      6  C   UNL     1       3.790  -0.165   0.074  0.00  0.00    +0.057 A 
ATOM      7  N   UNL     1       4.831  -0.918  -0.240  0.00  0.00    -0.282 N 
ATOM      8  C   UNL     1       4.728  -2.244  -0.350  0.00  0.00    +0.244 C 
ATOM      9  O   UNL     1       5.698  -2.915  -0.639  0.00  0.00    -0.273 OA
ATOM     10  C   UNL     1       3.387  -2.900  -0.110  0.00  0.00    +0.200 C 
ATOM     11  N   UNL     1       2.249  -2.034   0.237  0.00  0.00    -0.369 N 
ATOM     12  C   UNL     1       2.449  -0.751   0.322  0.00  0.00    +0.058 A 
ATOM     13  C   UNL     1       1.344   0.160   0.666  0.00  0.00    +0.027 A 
ATOM     14  H   UNL     1       1.370  -2.412   0.399  0.00  0.00    +0.161 HD
ATOM     15  H   UNL     1       5.691  -0.496  -0.394  0.00  0.00    +0.155 HD
ENDBRANCH   1  10
BRANCH   2  16
ATOM     16  C   UNL     1       2.909  -5.703  -0.014  0.00  0.00    -0.025 A 
ATOM     17  C   UNL     1       2.295  -5.130   1.105  0.00  0.00    +0.009 A 
ATOM     18  C   UNL     1       2.325  -5.784   2.316  0.00  0.00    +0.016 A 
ATOM     19  C   UNL     1       2.969  -7.020   2.427  0.00  0.00    +0.063 A 
ATOM     20  C   UNL     1       3.582  -7.593   1.309  0.00  0.00    +0.016 A 
ATOM     21  C   UNL     1       3.548  -6.942   0.097  0.00  0.00    +0.009 A 
BRANCH  19  22
ATOM     22  C   UNL     1       3.000  -7.720   3.726  0.00  0.00    +0.387 C 
ATOM     23  O   UNL     1       2.464  -7.220   4.704  0.00  0.00    -0.241 OA
ATOM     24  O   UNL     1       3.563  -8.802   3.824  0.00  0.00    -0.241 OA
ENDBRANCH  19  22
ENDBRANCH   2  16
BRANCH   1  25
ATOM     25  C   UNL     1       2.816  -2.949  -2.620  0.00  0.00    +0.192 C 
ATOM     26  O   UNL     1       3.775  -2.556  -3.257  0.00  0.00    -0.287 OA
BRANCH  25  27
ATOM     27  C   UNL     1       1.446  -2.706  -3.119  0.00  0.00    +0.022 A 
ATOM     28  C   UNL     1       0.342  -3.060  -2.340  0.00  0.00    +0.013 A 
ATOM     29  C   UNL     1      -0.933  -2.830  -2.811  0.00  0.00    +0.021 A 
ATOM     30  C   UNL     1      -1.121  -2.250  -4.055  0.00  0.00    +0.041 A 
ATOM     31  C   UNL     1      -0.030  -1.897  -4.833  0.00  0.00    +0.021 A 
ATOM     32  C   UNL     1       1.250  -2.116  -4.370  0.00  0.00    +0.013 A 
ATOM     33 CL   UNL     1      -2.729  -1.965  -4.641  0.00  0.00    -0.084 Cl
ENDBRANCH  25  27
ENDBRANCH   1  25
TORSDOF 5
