REMARK  Name = ZINC03260794
REMARK  8 active torsions:
REMARK  status: ('A' for Active; 'I' for Inactive)
REMARK    1  A    between atoms: C_1  and  N_2
REMARK    2  A    between atoms: C_6  and  S_7
REMARK    3  A    between atoms: S_7  and  C_8
REMARK    4  A    between atoms: C_11  and  C_17
REMARK    5  A    between atoms: C_13  and  N_14
REMARK    6  A    between atoms: C_17  and  O_19
REMARK    7  A    between atoms: O_19  and  C_20
REMARK    8  A    between atoms: C_20  and  C_21
REMARK                            x       y       z     vdW  Elec       q    Type
REMARK                         _______ _______ _______ _____ _____    ______ ____
ROOT
ATOM      1  C   UNL     1       0.728  -5.275   6.269  0.00  0.00    +0.340 C 
ATOM      2  O   UNL     1       0.397  -5.175   7.434  0.00  0.00    -0.245 OA
ENDROOT
BRANCH   1   6
ATOM      3  C   UNL     1       1.719  -1.811   4.042  0.00  0.00    +0.046 A 
ATOM      4  C   UNL     1       1.773  -3.065   3.438  0.00  0.00    +0.018 A 
ATOM      5  C   UNL     1       1.454  -4.184   4.153  0.00  0.00    +0.016 A 
ATOM      6  C   UNL     1       1.073  -4.070   5.494  0.00  0.00    +0.061 A 
ATOM      7  C   UNL     1       1.020  -2.810   6.098  0.00  0.00    +0.048 A 
ATOM      8  C   UNL     1       1.345  -1.695   5.379  0.00  0.00    +0.141 A 
BRANCH   8   9
ATOM      9  N   UNL     1       1.295  -0.361   6.019  0.00  0.00    +0.058 N 
ATOM     10  O   UNL     1       0.971  -0.259   7.179  0.00  0.00    -0.126 OA
ATOM     11  O   UNL     1       1.578   0.627   5.382  0.00  0.00    -0.126 OA
ENDBRANCH   8   9
BRANCH   3  12
ATOM     12  S   UNL     1       2.131  -0.370   3.116  0.00  0.00    -0.048 S 
BRANCH  12  18
ATOM     13  C   UNL     1       1.380   2.490   1.634  0.00  0.00    +0.152 C 
ATOM     14  N   UNL     1       0.361   1.560   2.130  0.00  0.00    -0.311 N 
ATOM     15  C   UNL     1      -0.996   1.710   2.060  0.00  0.00    +0.225 A 
ATOM     16  N   UNL     1      -1.531   0.659   2.615  0.00  0.00    -0.137 NA
ATOM     17  N   UNL     1      -0.611  -0.138   3.029  0.00  0.00    -0.122 NA
ATOM     18  C   UNL     1       0.570   0.363   2.751  0.00  0.00    +0.196 A 
ENDBRANCH  12  18
ENDBRANCH   3  12
ENDBRANCH   1   6
BRANCH   1  19
ATOM     19  O   UNL     1       0.780  -6.489   5.685  0.00  0.00    -0.452 OA
BRANCH  19  20
ATOM     20  C   UNL     1       0.432  -7.614   6.495  0.00  0.00    +0.328 C 
BRANCH  20  21
ATOM     21  C   UNL     1       0.547  -8.875   5.679  0.00  0.00    +0.262 C 
ATOM     22  O   UNL     1       0.673  -8.809   4.474  0.00  0.00    -0.271 OA
ATOM     23  N   UNL     1       0.510 -10.077   6.288  0.00  0.00    -0.235 N 
ATOM     24  C   UNL     1       0.524 -11.238   5.504  0.00  0.00    +0.055 A 
ATOM     25  C   UNL     1      -0.163 -11.278   4.301  0.00  0.00    +0.025 A 
ATOM     26  C   UNL     1      -0.145 -12.429   3.533  0.00  0.00    +0.002 A 
ATOM     27  C   UNL     1       0.553 -13.543   3.957  0.00  0.00    +0.001 A 
ATOM     28  C   UNL     1       1.244 -13.515   5.157  0.00  0.00    +0.017 A 
ATOM     29  C   UNL     1       1.229 -12.367   5.928  0.00  0.00    +0.035 A 
ATOM     30  S   UNL     1       2.099 -12.300   7.463  0.00  0.00    -0.086 S 
ATOM     31  C   UNL     1       1.155 -11.123   8.381  0.00  0.00    +0.035 A 
ATOM     32  C   UNL     1       0.464 -10.131   7.687  0.00  0.00    +0.055 A 
ATOM     33  C   UNL     1      -0.275  -9.200   8.399  0.00  0.00    +0.025 A 
ATOM     34  C   UNL     1      -0.318  -9.261   9.780  0.00  0.00    +0.002 A 
ATOM     35  C   UNL     1       0.373 -10.246  10.460  0.00  0.00    +0.001 A 
ATOM     36  C   UNL     1       1.103 -11.180   9.761  0.00  0.00    +0.017 A 
ENDBRANCH  20  21
ENDBRANCH  19  20
ENDBRANCH   1  19
TORSDOF 7
