REMARK  Name = ZINC01375888
REMARK  12 active torsions:
REMARK  status: ('A' for Active; 'I' for Inactive)
REMARK    1  A    between atoms: C_1  and  C_2
REMARK    2  A    between atoms: C_2  and  C_3
REMARK    3  A    between atoms: C_3  and  C_5
REMARK    4  A    between atoms: C_3  and  N_19
REMARK    5  A    between atoms: N_9  and  C_10
REMARK    6  A    between atoms: C_10  and  C_11
REMARK    7  A    between atoms: C_14  and  O_17
REMARK    8  A    between atoms: O_17  and  C_18
REMARK    9  A    between atoms: N_19  and  C_20
REMARK   10  A    between atoms: N_19  and  C_26
REMARK   11  A    between atoms: C_20  and  C_21
REMARK   12  A    between atoms: C_26  and  C_27
REMARK                            x       y       z     vdW  Elec       q    Type
REMARK                         _______ _______ _______ _____ _____    ______ ____
ROOT
ATOM      1  N   UNL     1      -2.066  -0.352   1.346  0.00  0.00    -0.284 NA
ENDROOT
BRANCH   1   2
ATOM      2  C   UNL     1      -1.778  -0.699  -0.052  0.00  0.00    +0.127 C 
BRANCH   2   3
ATOM      3  C   UNL     1      -3.001  -0.443  -0.895  0.00  0.00    +0.169 A 
ATOM      4  N   UNL     1      -4.236  -0.769  -0.602  0.00  0.00    -0.112 NA
ATOM      5  N   UNL     1      -4.991  -0.380  -1.571  0.00  0.00    -0.023 NA
ATOM      6  N   UNL     1      -4.269   0.185  -2.475  0.00  0.00    -0.044 NA
ATOM      7  N   UNL     1      -3.037   0.171  -2.093  0.00  0.00    -0.223 N 
BRANCH   7   8
ATOM      8  C   UNL     1      -1.892   0.716  -2.826  0.00  0.00    +0.182 C 
BRANCH   8   9
ATOM      9  C   UNL     1      -1.316  -0.348  -3.724  0.00  0.00    -0.026 A 
ATOM     10  C   UNL     1      -0.326  -1.189  -3.251  0.00  0.00    +0.009 A 
ATOM     11  C   UNL     1       0.204  -2.165  -4.072  0.00  0.00    +0.046 A 
ATOM     12  C   UNL     1      -0.260  -2.303  -5.372  0.00  0.00    +0.120 A 
ATOM     13  C   UNL     1      -1.254  -1.458  -5.845  0.00  0.00    +0.046 A 
ATOM     14  C   UNL     1      -1.784  -0.487  -5.018  0.00  0.00    +0.009 A 
BRANCH  12  15
ATOM     15  O   UNL     1       0.260  -3.262  -6.183  0.00  0.00    -0.495 OA
ATOM     16  C   UNL     1      -0.266  -3.346  -7.509  0.00  0.00    +0.277 C 
ENDBRANCH  12  15
ENDBRANCH   8   9
ENDBRANCH   7   8
ENDBRANCH   2   3
BRANCH   2  18
ATOM     17  C   UNL     1      -0.086  -2.414   0.608  0.00  0.00    +0.006 C 
ATOM     18  C   UNL     1      -1.398  -2.179  -0.142  0.00  0.00    +0.023 C 
ENDBRANCH   2  18
ENDBRANCH   1   2
BRANCH   1  19
ATOM     19  C   UNL     1      -3.282  -1.028   1.817  0.00  0.00    +0.127 C 
BRANCH  19  20
ATOM     20  C   UNL     1      -3.331  -0.984   3.322  0.00  0.00    +0.004 A 
ATOM     21  C   UNL     1      -3.966  -0.100   4.130  0.00  0.00    +0.012 A 
ATOM     22  C   UNL     1      -3.872  -0.257   5.500  0.00  0.00    +0.008 A 
ATOM     23  C   UNL     1      -3.147  -1.290   5.995  0.00  0.00    +0.045 A 
ATOM     24  S   UNL     1      -2.573  -2.086   4.504  0.00  0.00    -0.100 S 
ENDBRANCH  19  20
ENDBRANCH   1  19
BRANCH   1  25
ATOM     25  C   UNL     1      -2.173   1.103   1.516  0.00  0.00    +0.126 C 
BRANCH  25  26
ATOM     26  C   UNL     1      -0.795   1.713   1.500  0.00  0.00    +0.031 A 
ATOM     27  C   UNL     1      -0.310   2.258   0.355  0.00  0.00    +0.020 A 
ATOM     28  C   UNL     1       1.031   2.842   0.372  0.00  0.00    +0.003 A 
ATOM     29  C   UNL     1       1.583   3.417  -0.780  0.00  0.00    +0.059 A 
ATOM     30  C   UNL     1       2.848   3.958  -0.734  0.00  0.00    +0.167 A 
ATOM     31  C   UNL     1       3.582   3.936   0.459  0.00  0.00    +0.168 A 
ATOM     32  C   UNL     1       3.045   3.371   1.601  0.00  0.00    +0.075 A 
ATOM     33  C   UNL     1       1.770   2.820   1.571  0.00  0.00    +0.053 A 
ATOM     34  N   UNL     1       1.218   2.251   2.701  0.00  0.00    -0.322 N 
ATOM     35  H   UNL     1       1.728   2.237   3.526  0.00  0.00    +0.169 HD
ATOM     36  C   UNL     1      -0.017   1.721   2.675  0.00  0.00    +0.254 A 
ATOM     37  O   UNL     1      -0.474   1.230   3.693  0.00  0.00    -0.268 OA
ATOM     38  O   UNL     1       4.790   4.531   0.235  0.00  0.00    -0.453 OA
ATOM     39  C   UNL     1       4.953   4.546  -1.196  0.00  0.00    +0.466 C 
ATOM     40  O   UNL     1       3.603   4.566  -1.696  0.00  0.00    -0.453 OA
ENDBRANCH  25  26
ENDBRANCH   1  25
TORSDOF 10
