REMARK  Name = ZINC40045552
REMARK  11 active torsions:
REMARK  status: ('A' for Active; 'I' for Inactive)
REMARK    1  A    between atoms: C_1  and  C_2
REMARK    2  A    between atoms: C_2  and  O_3
REMARK    3  A    between atoms: O_3  and  C_4
REMARK    4  A    between atoms: C_4  and  C_6
REMARK    5  A    between atoms: C_7  and  C_38
REMARK    6  A    between atoms: C_12  and  C_29
REMARK    7  A    between atoms: C_19  and  C_28
REMARK    8  A    between atoms: C_21  and  C_27
REMARK    9  A    between atoms: C_32  and  O_37
REMARK   10  A    between atoms: C_33  and  O_35
REMARK   11  A    between atoms: O_35  and  C_36
REMARK                            x       y       z     vdW  Elec       q    Type
REMARK                         _______ _______ _______ _____ _____    ______ ____
ROOT
ATOM      1  C   UNL     1      -2.840  -2.416   0.016  0.00  0.00    +0.120 A 
ATOM      2  C   UNL     1      -3.233  -3.748   0.018  0.00  0.00    +0.062 A 
ATOM      3  N   UNL     1      -4.522  -3.973   0.028  0.00  0.00    -0.229 NA
ATOM      4  C   UNL     1      -5.396  -2.982   0.035  0.00  0.00    +0.169 A 
ATOM      5  S   UNL     1      -4.430  -1.604   0.036  0.00  0.00    -0.045 S 
ATOM      6  N   UNL     1      -6.776  -3.059   0.045  0.00  0.00    -0.232 N 
ATOM      7  C   UNL     1      -7.706  -1.918   0.046  0.00  0.00    +0.152 C 
ATOM      8  C   UNL     1      -9.077  -2.510   0.061  0.00  0.00    +0.072 A 
ATOM      9  C   UNL     1     -10.401  -1.881   0.078  0.00  0.00    +0.199 A 
ATOM     10  O   UNL     1     -10.575  -0.687  -0.094  0.00  0.00    -0.287 OA
ATOM     11  C   UNL     1     -11.510  -2.837   0.324  0.00  0.00    +0.065 A 
ATOM     12  C   UNL     1     -12.803  -2.372   0.567  0.00  0.00    +0.018 A 
ATOM     13  C   UNL     1     -13.812  -3.265   0.797  0.00  0.00    -0.049 A 
ATOM     14  C   UNL     1     -13.554  -4.629   0.790  0.00  0.00    +0.010 A 
ATOM     15  C   UNL     1     -12.285  -5.105   0.550  0.00  0.00    -0.007 A 
ATOM     16  C   UNL     1     -11.238  -4.215   0.310  0.00  0.00    +0.142 A 
ATOM     17  O   UNL     1     -10.001  -4.705   0.068  0.00  0.00    -0.449 OA
ATOM     18  C   UNL     1      -8.943  -3.870   0.062  0.00  0.00    +0.199 A 
ATOM     19  C   UNL     1      -7.506  -4.193   0.049  0.00  0.00    +0.289 C 
ATOM     20  O   UNL     1      -7.046  -5.317   0.044  0.00  0.00    -0.266 OA
ATOM     21  C   UNL     1     -12.026  -6.590   0.547  0.00  0.00    +0.047 C 
ATOM     22  C   UNL     1     -15.210  -2.767   1.058  0.00  0.00    +0.044 C 
ATOM     23  C   UNL     1      -2.231  -4.873   0.010  0.00  0.00    +0.067 C 
ENDROOT
BRANCH   7  24
ATOM     24  C   UNL     1      -7.511  -1.086  -1.195  0.00  0.00    -0.018 A 
ATOM     25  C   UNL     1      -7.260  -1.703  -2.406  0.00  0.00    +0.009 A 
ATOM     26  C   UNL     1      -7.080  -0.945  -3.548  0.00  0.00    +0.049 A 
ATOM     27  C   UNL     1      -7.151   0.437  -3.480  0.00  0.00    +0.158 A 
ATOM     28  C   UNL     1      -7.404   1.058  -2.261  0.00  0.00    +0.162 A 
ATOM     29  C   UNL     1      -7.588   0.292  -1.121  0.00  0.00    +0.055 A 
BRANCH  28  30
ATOM     30  O   UNL     1      -7.475   2.415  -2.189  0.00  0.00    -0.491 OA
ATOM     31  C   UNL     1      -7.737   2.983  -0.904  0.00  0.00    +0.277 C 
ENDBRANCH  28  30
BRANCH  27  32
ATOM     32  O   UNL     1      -6.974   1.185  -4.602  0.00  0.00    -0.503 OA
ATOM     33  H   UNL     1      -7.790   1.364  -5.088  0.00  0.00    +0.292 HD
ENDBRANCH  27  32
ENDBRANCH   7  24
BRANCH   1  34
ATOM     34  C   UNL     1      -1.497  -1.839   0.006  0.00  0.00    +0.348 C 
ATOM     35  O   UNL     1      -0.522  -2.567  -0.007  0.00  0.00    -0.244 OA
BRANCH  34  36
ATOM     36  O   UNL     1      -1.339  -0.499   0.012  0.00  0.00    -0.461 OA
BRANCH  36  38
ATOM     37  C   UNL     1      -0.019   1.526   0.010  0.00  0.00    +0.048 C 
ATOM     38  C   UNL     1       0.002  -0.004   0.002  0.00  0.00    +0.229 C 
ENDBRANCH  36  38
ENDBRANCH  34  36
ENDBRANCH   1  34
TORSDOF 6
