REMARK  Name = ZINC13495851
REMARK  16 active torsions:
REMARK  status: ('A' for Active; 'I' for Inactive)
REMARK    1  A    between atoms: C_1  and  C_2
REMARK    2  A    between atoms: C_2  and  C_3
REMARK    3  A    between atoms: C_3  and  C_5
REMARK    4  A    between atoms: C_3  and  N_71
REMARK    5  A    between atoms: N_9  and  C_10
REMARK    6  A    between atoms: C_10  and  C_11
REMARK    7  A    between atoms: C_11  and  O_13
REMARK    8  A    between atoms: O_13  and  C_14
REMARK    9  A    between atoms: C_14  and  C_15
REMARK   10  A    between atoms: C_16  and  C_17
REMARK   11  A    between atoms: C_16  and  N_71
REMARK   12  A    between atoms: C_17  and  C_18
REMARK   13  A    between atoms: C_24  and  C_25
REMARK   14  A    between atoms: C_24  and  N_71
REMARK   15  A    between atoms: C_29  and  C_38
REMARK   16  A    between atoms: C_31  and  C_37
REMARK                            x       y       z     vdW  Elec       q    Type
REMARK                         _______ _______ _______ _____ _____    ______ ____
ROOT
ATOM      1  N   UNL     1      -1.298   8.114  -1.631  0.00  0.00    +0.389 N 
ATOM      2  H   UNL     1      -1.936   7.760  -2.353  0.00  0.00    -0.080 HD
ENDROOT
BRANCH   1   3
ATOM      3  C   UNL     1      -1.841   9.377  -1.089  0.00  0.00    +0.003 C 
BRANCH   3   4
ATOM      4  C   UNL     1      -1.089   9.787   0.151  0.00  0.00    +0.139 A 
ATOM      5  N   UNL     1      -0.888   9.057   1.221  0.00  0.00    -0.115 NA
ATOM      6  N   UNL     1      -0.202   9.758   2.057  0.00  0.00    -0.023 NA
ATOM      7  N   UNL     1       0.033  10.918   1.551  0.00  0.00    -0.043 NA
ATOM      8  N   UNL     1      -0.497  10.975   0.377  0.00  0.00    -0.220 N 
BRANCH   8   9
ATOM      9  C   UNL     1      -0.463  12.117  -0.539  0.00  0.00    +0.267 C 
BRANCH   9  10
ATOM     10  C   UNL     1      -1.657  13.001  -0.284  0.00  0.00    +0.329 C 
ATOM     11  O   UNL     1      -2.454  12.707   0.574  0.00  0.00    -0.249 OA
BRANCH  10  12
ATOM     12  O   UNL     1      -1.834  14.116  -1.011  0.00  0.00    -0.464 OA
BRANCH  12  13
ATOM     13  C   UNL     1      -3.006  14.919  -0.711  0.00  0.00    +0.229 C 
ATOM     14  C   UNL     1      -3.038  16.139  -1.634  0.00  0.00    +0.048 C 
ENDBRANCH  12  13
ENDBRANCH  10  12
ENDBRANCH   9  10
ENDBRANCH   8   9
ENDBRANCH   3   4
BRANCH   3  16
ATOM     15  C   UNL     1      -4.097   8.840  -2.018  0.00  0.00    +0.002 C 
ATOM     16  C   UNL     1      -3.318   9.171  -0.744  0.00  0.00    -0.011 C 
ENDBRANCH   3  16
ENDBRANCH   1   3
BRANCH   1  17
ATOM     17  C   UNL     1       0.028   8.354  -2.238  0.00  0.00    -0.073 C 
BRANCH  17  18
ATOM     18  C   UNL     1      -0.164   9.091  -3.565  0.00  0.00    +0.016 C 
BRANCH  18  19
ATOM     19  C   UNL     1       1.164   9.222  -4.264  0.00  0.00    -0.049 A 
ATOM     20  C   UNL     1       1.959  10.330  -4.036  0.00  0.00    +0.003 A 
ATOM     21  C   UNL     1       3.180  10.448  -4.673  0.00  0.00    +0.000 A 
ATOM     22  C   UNL     1       3.601   9.463  -5.547  0.00  0.00    +0.000 A 
ATOM     23  C   UNL     1       2.804   8.357  -5.779  0.00  0.00    +0.000 A 
ATOM     24  C   UNL     1       1.585   8.237  -5.138  0.00  0.00    +0.003 A 
ENDBRANCH  18  19
ENDBRANCH  17  18
ENDBRANCH   1  17
BRANCH   1  25
ATOM     25  C   UNL     1      -1.186   7.109  -0.553  0.00  0.00    -0.037 C 
BRANCH  25  26
ATOM     26  C   UNL     1      -1.000   5.750  -1.177  0.00  0.00    +0.001 A 
ATOM     27  C   UNL     1       0.248   5.242  -1.329  0.00  0.00    +0.017 A 
ATOM     28  C   UNL     1       0.395   3.918  -1.938  0.00  0.00    -0.001 A 
ATOM     29  C   UNL     1       1.657   3.342  -2.121  0.00  0.00    +0.013 A 
ATOM     30  C   UNL     1       1.760   2.106  -2.692  0.00  0.00    -0.050 A 
ATOM     31  C   UNL     1       0.624   1.416  -3.094  0.00  0.00    +0.008 A 
ATOM     32  C   UNL     1      -0.628   1.967  -2.929  0.00  0.00    -0.026 A 
ATOM     33  C   UNL     1      -0.758   3.222  -2.345  0.00  0.00    +0.052 A 
ATOM     34  N   UNL     1      -1.999   3.794  -2.162  0.00  0.00    -0.322 N 
ATOM     35  H   UNL     1      -2.794   3.313  -2.442  0.00  0.00    +0.169 HD
ATOM     36  C   UNL     1      -2.125   5.010  -1.601  0.00  0.00    +0.251 A 
ATOM     37  O   UNL     1      -3.237   5.485  -1.455  0.00  0.00    -0.268 OA
ATOM     38  C   UNL     1      -1.852   1.210  -3.376  0.00  0.00    +0.046 C 
ATOM     39  C   UNL     1       3.119   1.485  -2.888  0.00  0.00    +0.044 C 
ENDBRANCH  25  26
ENDBRANCH   1  25
TORSDOF 12
