REMARK  Name = ZINC59791301
REMARK  10 active torsions:
REMARK  status: ('A' for Active; 'I' for Inactive)
REMARK    1  A    between atoms: C_1  and  O_2
REMARK    2  A    between atoms: O_2  and  C_3
REMARK    3  A    between atoms: C_8  and  C_9
REMARK    4  A    between atoms: C_9  and  N_10
REMARK    5  A    between atoms: C_11  and  C_13
REMARK    6  A    between atoms: C_13  and  S_14
REMARK    7  A    between atoms: S_14  and  C_15
REMARK    8  A    between atoms: C_18  and  C_26
REMARK    9  A    between atoms: N_19  and  C_20
REMARK   10  A    between atoms: C_29  and  N_32
REMARK                            x       y       z     vdW  Elec       q    Type
REMARK                         _______ _______ _______ _____ _____    ______ ____
ROOT
ATOM      1  C   UNL     1       4.353  -4.590   4.624  0.00  0.00    +0.197 A 
ATOM      2  N   UNL     1       3.745  -4.004   5.631  0.00  0.00    -0.122 NA
ATOM      3  N   UNL     1       4.407  -4.191   6.717  0.00  0.00    -0.128 NA
ATOM      4  C   UNL     1       5.479  -4.909   6.472  0.00  0.00    +0.169 A 
ATOM      5  N   UNL     1       5.475  -5.192   5.124  0.00  0.00    -0.270 N 
ENDROOT
BRANCH   5   6
ATOM      6  C   UNL     1       6.425  -5.939   4.413  0.00  0.00    +0.051 A 
ATOM      7  C   UNL     1       6.582  -7.293   4.673  0.00  0.00    +0.026 A 
ATOM      8  C   UNL     1       7.519  -8.027   3.970  0.00  0.00    +0.002 A 
ATOM      9  C   UNL     1       8.299  -7.413   3.008  0.00  0.00    +0.000 A 
ATOM     10  C   UNL     1       8.145  -6.064   2.746  0.00  0.00    +0.002 A 
ATOM     11  C   UNL     1       7.206  -5.327   3.442  0.00  0.00    +0.026 A 
ENDBRANCH   5   6
BRANCH   4  12
ATOM     12  C   UNL     1       6.493  -5.337   7.458  0.00  0.00    +0.020 A 
ATOM     13  C   UNL     1       7.731  -5.816   7.027  0.00  0.00    +0.014 A 
ATOM     14  C   UNL     1       8.674  -6.213   7.952  0.00  0.00    +0.033 A 
ATOM     15  C   UNL     1       8.395  -6.138   9.305  0.00  0.00    +0.126 A 
ATOM     16  C   UNL     1       7.169  -5.665   9.739  0.00  0.00    +0.033 A 
ATOM     17  C   UNL     1       6.220  -5.259   8.825  0.00  0.00    +0.014 A 
BRANCH  15  18
ATOM     18  N   UNL     1       9.411  -6.567  10.292  0.00  0.00    +0.056 N 
ATOM     19  O   UNL     1      10.483  -6.981   9.916  0.00  0.00    -0.126 OA
ATOM     20  O   UNL     1       9.170  -6.503  11.475  0.00  0.00    -0.126 OA
ENDBRANCH  15  18
ENDBRANCH   4  12
BRANCH   1  21
ATOM     21  S   UNL     1       3.819  -4.604   2.945  0.00  0.00    -0.076 S 
BRANCH  21  22
ATOM     22  C   UNL     1       2.286  -3.635   2.964  0.00  0.00    +0.173 C 
BRANCH  22  24
ATOM     23  N   UNL     1       0.572  -2.894   1.342  0.00  0.00    -0.310 N 
ATOM     24  C   UNL     1       1.717  -3.568   1.571  0.00  0.00    +0.224 C 
ATOM     25  O   UNL     1       2.289  -4.119   0.654  0.00  0.00    -0.275 OA
ATOM     26  H   UNL     1       0.114  -2.453   2.075  0.00  0.00    +0.149 HD
BRANCH  23  27
ATOM     27  C   UNL     1       0.018  -2.829  -0.013  0.00  0.00    +0.143 C 
BRANCH  27  33
ATOM     28  C   UNL     1      -1.200  -0.637   0.010  0.00  0.00    +0.125 A 
ATOM     29  C   UNL     1      -2.375   0.101   0.019  0.00  0.00    +0.046 A 
ATOM     30  C   UNL     1      -3.596  -0.545   0.027  0.00  0.00    +0.004 A 
ATOM     31  C   UNL     1      -3.648  -1.927   0.026  0.00  0.00    +0.001 A 
ATOM     32  C   UNL     1      -2.479  -2.665   0.017  0.00  0.00    +0.009 A 
ATOM     33  C   UNL     1      -1.255  -2.023   0.003  0.00  0.00    +0.011 A 
BRANCH  28  35
ATOM     34  C   UNL     1      -0.017   1.425   0.010  0.00  0.00    +0.277 C 
ATOM     35  O   UNL     1       0.002  -0.004   0.002  0.00  0.00    -0.495 OA
ENDBRANCH  28  35
ENDBRANCH  27  33
ENDBRANCH  23  27
ENDBRANCH  22  24
ENDBRANCH  21  22
ENDBRANCH   1  21
TORSDOF 9
