REMARK  Name = ZINC09172780
REMARK  12 active torsions:
REMARK  status: ('A' for Active; 'I' for Inactive)
REMARK    1  A    between atoms: C_1  and  C_2
REMARK    2  A    between atoms: C_2  and  C_3
REMARK    3  A    between atoms: C_2  and  C_4
REMARK    4  A    between atoms: C_4  and  N_5
REMARK    5  A    between atoms: C_8  and  N_19
REMARK    6  A    between atoms: C_14  and  C_17
REMARK    7  A    between atoms: C_14  and  C_18
REMARK    8  A    between atoms: N_19  and  S_20
REMARK    9  A    between atoms: S_20  and  C_23
REMARK   10  A    between atoms: C_26  and  C_29
REMARK   11  A    between atoms: C_29  and  C_30
REMARK   12  A    between atoms: C_29  and  C_31
REMARK                            x       y       z     vdW  Elec       q    Type
REMARK                         _______ _______ _______ _____ _____    ______ ____
ROOT
ATOM      1  N   UNL     1       0.483  -0.338   0.275  0.00  0.00    -0.267 N 
ATOM      2  C   UNL     1       0.391  -1.318   1.273  0.00  0.00    +0.080 A 
ATOM      3  C   UNL     1      -0.399  -1.113   2.392  0.00  0.00    +0.051 A 
ATOM      4  C   UNL     1      -0.475  -2.094   3.372  0.00  0.00    +0.050 A 
ATOM      5  C   UNL     1       0.241  -3.275   3.229  0.00  0.00    +0.028 A 
ATOM      6  C   UNL     1       1.030  -3.479   2.112  0.00  0.00    +0.049 A 
ATOM      7  C   UNL     1       1.106  -2.506   1.131  0.00  0.00    +0.142 A 
ATOM      8  O   UNL     1       1.871  -2.704   0.023  0.00  0.00    -0.489 OA
ATOM      9  C   UNL     1       1.191  -3.017  -1.190  0.00  0.00    +0.244 C 
ATOM     10  C   UNL     1      -0.031  -2.117  -1.364  0.00  0.00    +0.076 C 
ATOM     11  C   UNL     1       0.317  -0.692  -1.018  0.00  0.00    +0.229 C 
ATOM     12  O   UNL     1       0.451   0.132  -1.898  0.00  0.00    -0.275 OA
ATOM     13  C   UNL     1      -0.507  -2.184  -2.816  0.00  0.00    +0.024 C 
ATOM     14  C   UNL     1      -1.151  -2.598  -0.439  0.00  0.00    +0.024 C 
ENDROOT
BRANCH   4  15
ATOM     15  N   UNL     1      -1.273  -1.892   4.503  0.00  0.00    -0.216 N 
ATOM     16  H   UNL     1      -1.231  -1.050   4.982  0.00  0.00    +0.174 HD
BRANCH  15  17
ATOM     17  S   UNL     1      -2.290  -3.091   5.024  0.00  0.00    +0.072 S 
ATOM     18  O   UNL     1      -1.501  -4.266   5.151  0.00  0.00    -0.150 OA
ATOM     19  O   UNL     1      -3.033  -2.551   6.108  0.00  0.00    -0.150 OA
BRANCH  17  20
ATOM     20  C   UNL     1      -3.443  -3.396   3.726  0.00  0.00    +0.109 A 
ATOM     21  C   UNL     1      -4.582  -2.620   3.617  0.00  0.00    +0.029 A 
ATOM     22  C   UNL     1      -5.484  -2.857   2.596  0.00  0.00    +0.006 A 
ATOM     23  C   UNL     1      -5.252  -3.875   1.691  0.00  0.00    -0.045 A 
ATOM     24  C   UNL     1      -4.116  -4.655   1.804  0.00  0.00    +0.006 A 
ATOM     25  C   UNL     1      -3.211  -4.415   2.822  0.00  0.00    +0.029 A 
BRANCH  23  26
ATOM     26  C   UNL     1      -6.237  -4.136   0.581  0.00  0.00    +0.013 C 
ATOM     27  C   UNL     1      -7.602  -4.478   1.181  0.00  0.00    +0.012 C 
ATOM     28  C   UNL     1      -6.363  -2.886  -0.293  0.00  0.00    +0.012 C 
ENDBRANCH  23  26
ENDBRANCH  17  20
ENDBRANCH  15  17
ENDBRANCH   4  15
BRANCH   1  29
ATOM     29  C   UNL     1       0.750   1.058   0.632  0.00  0.00    +0.116 C 
BRANCH  29  31
ATOM     30  C   UNL     1       2.536   2.785   0.896  0.00  0.00    +0.009 C 
ATOM     31  C   UNL     1       2.260   1.300   0.647  0.00  0.00    +0.001 C 
ATOM     32  C   UNL     1       2.899   0.469   1.761  0.00  0.00    +0.009 C 
ENDBRANCH  29  31
ENDBRANCH   1  29
TORSDOF 6
