REMARK  Name = ZINC39530238
REMARK  8 active torsions:
REMARK  status: ('A' for Active; 'I' for Inactive)
REMARK    1  A    between atoms: C_4  and  C_7
REMARK    2  A    between atoms: C_7  and  C_8
REMARK    3  A    between atoms: N_11  and  C_15
REMARK    4  A    between atoms: C_18  and  S_28
REMARK    5  A    between atoms: C_20  and  C_21
REMARK    6  A    between atoms: C_26  and  O_27
REMARK    7  A    between atoms: S_28  and  O_31
REMARK    8  A    between atoms: O_31  and  C_32
REMARK                            x       y       z     vdW  Elec       q    Type
REMARK                         _______ _______ _______ _____ _____    ______ ____
ROOT
ATOM      1  C   UNL     1       7.159  -1.569   3.302  0.00  0.00    +0.038 A 
ATOM      2  C   UNL     1       7.276  -0.359   3.970  0.00  0.00    +0.026 A 
ATOM      3  C   UNL     1       8.492   0.021   4.504  0.00  0.00    +0.032 A 
ATOM      4  C   UNL     1       9.599  -0.800   4.375  0.00  0.00    +0.129 A 
ATOM      5  C   UNL     1       9.498  -2.006   3.713  0.00  0.00    +0.041 A 
ATOM      6  C   UNL     1       8.275  -2.404   3.176  0.00  0.00    +0.009 A 
ENDROOT
BRANCH   1   9
ATOM      7  C   UNL     1       4.171  -0.963   1.399  0.00  0.00    -0.050 C 
ATOM      8  C   UNL     1       5.565  -1.599   1.383  0.00  0.00    +0.089 C 
ATOM      9  N   UNL     1       5.931  -1.955   2.763  0.00  0.00    -0.333 N 
ATOM     10  C   UNL     1       4.966  -2.731   3.558  0.00  0.00    +0.086 C 
ATOM     11  C   UNL     1       3.600  -2.041   3.471  0.00  0.00    -0.063 C 
ATOM     12  N   UNL     1       3.227  -1.872   2.061  0.00  0.00    +0.383 N 
ATOM     13  H   UNL     1       2.296  -1.488   2.004  0.00  0.00    -0.085 HD
ATOM     14  H   UNL     1       3.246  -2.769   1.599  0.00  0.00    -0.085 HD
BRANCH   7  15
ATOM     15  C   UNL     1       3.711  -0.707  -0.038  0.00  0.00    +0.021 C 
BRANCH  15  19
ATOM     16  C   UNL     1      -0.017   1.378   0.010  0.00  0.00    +0.000 A 
ATOM     17  C   UNL     1       1.171   2.086   0.002  0.00  0.00    +0.000 A 
ATOM     18  C   UNL     1       2.377   1.411  -0.013  0.00  0.00    +0.003 A 
ATOM     19  C   UNL     1       2.396   0.029  -0.020  0.00  0.00    -0.049 A 
ATOM     20  C   UNL     1       1.208  -0.679  -0.012  0.00  0.00    +0.003 A 
ATOM     21  C   UNL     1       0.002  -0.004   0.002  0.00  0.00    +0.000 A 
ENDBRANCH  15  19
ENDBRANCH   7  15
ENDBRANCH   1   9
BRANCH   6  22
ATOM     22  C   UNL     1       8.159  -3.702   2.469  0.00  0.00    +0.025 A 
ATOM     23  C   UNL     1       8.332  -4.896   3.165  0.00  0.00    +0.012 A 
ATOM     24  C   UNL     1       8.223  -6.102   2.502  0.00  0.00    +0.001 A 
ATOM     25  C   UNL     1       7.942  -6.129   1.148  0.00  0.00    +0.004 A 
ATOM     26  C   UNL     1       7.769  -4.951   0.447  0.00  0.00    +0.046 A 
ATOM     27  C   UNL     1       7.870  -3.733   1.101  0.00  0.00    +0.125 A 
BRANCH  27  28
ATOM     28  O   UNL     1       7.694  -2.574   0.415  0.00  0.00    -0.506 OA
ATOM     29  H   UNL     1       8.507  -2.216   0.033  0.00  0.00    +0.292 HD
ENDBRANCH  27  28
ENDBRANCH   6  22
BRANCH   4  30
ATOM     30  S   UNL     1      11.145  -0.302   5.060  0.00  0.00    +0.151 S 
ATOM     31  O   UNL     1      12.152  -0.992   4.332  0.00  0.00    -0.131 OA
ATOM     32  O   UNL     1      11.110   1.115   5.154  0.00  0.00    -0.131 OA
BRANCH  30  33
ATOM     33  O   UNL     1      11.197  -0.832   6.486  0.00  0.00    -0.342 OA
BRANCH  33  34
ATOM     34  C   UNL     1      11.427  -2.169   6.570  0.00  0.00    +0.157 A 
ATOM     35  C   UNL     1      10.361  -3.058   6.575  0.00  0.00    +0.048 A 
ATOM     36  C   UNL     1      10.597  -4.417   6.660  0.00  0.00    +0.004 A 
ATOM     37  C   UNL     1      11.893  -4.891   6.742  0.00  0.00    +0.000 A 
ATOM     38  C   UNL     1      12.957  -4.007   6.738  0.00  0.00    +0.004 A 
ATOM     39  C   UNL     1      12.727  -2.648   6.646  0.00  0.00    +0.048 A 
ENDBRANCH  33  34
ENDBRANCH  30  33
ENDBRANCH   4  30
TORSDOF 8
