REMARK  Name = ZINC14476921
REMARK  3 active torsions:
REMARK  status: ('A' for Active; 'I' for Inactive)
REMARK    1  A    between atoms: C_1  and  C_2
REMARK    2  A    between atoms: C_5  and  N_26
REMARK    3  A    between atoms: C_9  and  C_18
REMARK                            x       y       z     vdW  Elec       q    Type
REMARK                         _______ _______ _______ _____ _____    ______ ____
ROOT
ATOM      1  C   UNL     1       1.293  -0.023   4.664  0.00  0.00    +0.045 C 
ATOM      2  C   UNL     1       2.064   0.283   3.406  0.00  0.00    -0.029 A 
ATOM      3  C   UNL     1       3.401  -0.040   3.332  0.00  0.00    +0.007 A 
ATOM      4  C   UNL     1       4.121   0.236   2.185  0.00  0.00    +0.033 A 
ATOM      5  C   UNL     1       3.494   0.843   1.113  0.00  0.00    +0.132 A 
ATOM      6  C   UNL     1       2.158   1.173   1.180  0.00  0.00    +0.011 A 
ATOM      7  C   UNL     1       1.414   0.888   2.329  0.00  0.00    +0.037 A 
ATOM      8  N   UNL     1       0.052   1.149   2.462  0.00  0.00    -0.336 N 
ATOM      9  C   UNL     1      -0.592   1.840   1.360  0.00  0.00    +0.106 C 
ATOM     10  C   UNL     1      -0.007   1.313   0.066  0.00  0.00    +0.029 C 
ATOM     11  C   UNL     1       1.462   1.838   0.056  0.00  0.00    +0.051 C 
ATOM     12  C   UNL     1       1.873   1.655  -1.358  0.00  0.00    -0.023 C 
ATOM     13  C   UNL     1       0.792   1.737  -2.126  0.00  0.00    -0.030 C 
ATOM     14  C   UNL     1      -0.450   1.947  -1.257  0.00  0.00    +0.033 C 
ATOM     15  H   UNL     1      -0.146   1.599   3.343  0.00  0.00    +0.147 HD
ENDROOT
BRANCH   9  16
ATOM     16  C   UNL     1      -0.317   3.317   1.484  0.00  0.00    -0.007 A 
ATOM     17  C   UNL     1       0.782   3.758   2.198  0.00  0.00    +0.007 A 
ATOM     18  C   UNL     1       1.038   5.112   2.307  0.00  0.00    +0.002 A 
ATOM     19  C   UNL     1       0.189   6.027   1.713  0.00  0.00    +0.021 A 
ATOM     20  C   UNL     1      -0.914   5.588   1.003  0.00  0.00    +0.060 A 
ATOM     21  C   UNL     1      -1.167   4.231   0.889  0.00  0.00    +0.064 A 
ATOM     22 CL   UNL     1      -2.551   3.678  -0.001  0.00  0.00    -0.082 Cl
ATOM     23 CL   UNL     1      -1.980   6.736   0.256  0.00  0.00    -0.082 Cl
ENDBRANCH   9  16
BRANCH   5  24
ATOM     24  N   UNL     1       4.263   1.140  -0.116  0.00  0.00    +0.057 N 
ATOM     25  O   UNL     1       4.923   0.265  -0.648  0.00  0.00    -0.126 OA
ATOM     26  O   UNL     1       4.236   2.260  -0.596  0.00  0.00    -0.126 OA
ENDBRANCH   5  24
TORSDOF 2
