REMARK  Name = ZINC09302075
REMARK  12 active torsions:
REMARK  status: ('A' for Active; 'I' for Inactive)
REMARK    1  A    between atoms: C_1  and  C_2
REMARK    2  A    between atoms: C_2  and  C_3
REMARK    3  A    between atoms: C_3  and  N_60
REMARK    4  A    between atoms: C_4  and  C_5
REMARK    5  A    between atoms: C_4  and  N_60
REMARK    6  A    between atoms: C_5  and  C_6
REMARK    7  A    between atoms: C_7  and  N_8
REMARK    8  A    between atoms: C_7  and  N_60
REMARK    9  A    between atoms: N_16  and  N_17
REMARK   10  A    between atoms: C_18  and  C_20
REMARK   11  A    between atoms: C_20  and  S_21
REMARK   12  A    between atoms: S_21  and  C_22
REMARK                            x       y       z     vdW  Elec       q    Type
REMARK                         _______ _______ _______ _____ _____    ______ ____
ROOT
ATOM      1  N   UNL     1      -4.883   2.495   1.151  0.00  0.00    -0.282 N 
ATOM      2  C   UNL     1      -5.170   3.818   1.470  0.00  0.00    +0.044 A 
ATOM      3  C   UNL     1      -5.196   4.490   2.687  0.00  0.00    +0.024 A 
ATOM      4  C   UNL     1      -5.520   5.831   2.731  0.00  0.00    +0.002 A 
ATOM      5  C   UNL     1      -5.823   6.522   1.570  0.00  0.00    +0.001 A 
ATOM      6  C   UNL     1      -5.795   5.874   0.352  0.00  0.00    +0.012 A 
ATOM      7  C   UNL     1      -5.474   4.522   0.297  0.00  0.00    +0.028 A 
ATOM      8  C   UNL     1      -5.371   3.548  -0.814  0.00  0.00    +0.153 C 
ATOM      9  N   UNL     1      -5.576   3.767  -2.090  0.00  0.00    -0.175 NA
ATOM     10  C   UNL     1      -4.987   2.275  -0.171  0.00  0.00    +0.270 C 
ATOM     11  O   UNL     1      -4.798   1.214  -0.737  0.00  0.00    -0.268 OA
ENDROOT
BRANCH   9  12
ATOM     12  N   UNL     1      -5.777   5.075  -2.552  0.00  0.00    -0.206 N 
ATOM     13  C   UNL     1      -6.102   5.291  -3.842  0.00  0.00    +0.242 C 
ATOM     14  O   UNL     1      -6.222   4.354  -4.602  0.00  0.00    -0.273 OA
ATOM     15  H   UNL     1      -5.681   5.824  -1.944  0.00  0.00    +0.177 HD
BRANCH  13  16
ATOM     16  C   UNL     1      -6.318   6.697  -4.339  0.00  0.00    +0.173 C 
BRANCH  16  17
ATOM     17  S   UNL     1      -6.740   6.656  -6.099  0.00  0.00    -0.089 S 
BRANCH  17  18
ATOM     18  C   UNL     1      -6.931   8.381  -6.407  0.00  0.00    +0.136 A 
ATOM     19  N   UNL     1      -6.803   9.387  -5.571  0.00  0.00    -0.233 NA
ATOM     20  C   UNL     1      -6.976  10.672  -5.952  0.00  0.00    +0.079 A 
ATOM     21  C   UNL     1      -6.865  11.838  -5.160  0.00  0.00    +0.029 A 
ATOM     22  C   UNL     1      -7.080  13.077  -5.705  0.00  0.00    +0.002 A 
ATOM     23  C   UNL     1      -7.413  13.233  -7.043  0.00  0.00    +0.001 A 
ATOM     24  C   UNL     1      -7.531  12.113  -7.846  0.00  0.00    +0.017 A 
ATOM     25  C   UNL     1      -7.317  10.868  -7.309  0.00  0.00    +0.040 A 
ATOM     26  S   UNL     1      -7.356   9.206  -7.935  0.00  0.00    -0.061 S 
ENDBRANCH  17  18
ENDBRANCH  16  17
ENDBRANCH  13  16
ENDBRANCH   9  12
BRANCH   1  27
ATOM     27  C   UNL     1      -4.519   1.470   2.132  0.00  0.00    +0.039 C 
BRANCH  27  28
ATOM     28  N   UNL     1      -3.050   1.478   2.299  0.00  0.00    +0.390 N 
ATOM     29  H   UNL     1      -2.705   2.437   2.171  0.00  0.00    -0.080 HD
BRANCH  28  30
ATOM     30  C   UNL     1      -2.423   0.603   1.286  0.00  0.00    -0.077 C 
BRANCH  30  32
ATOM     31  C   UNL     1      -2.239  -1.723   0.394  0.00  0.00    +0.002 C 
ATOM     32  C   UNL     1      -2.882  -0.845   1.468  0.00  0.00    -0.022 C 
ENDBRANCH  30  32
ENDBRANCH  28  30
BRANCH  28  33
ATOM     33  C   UNL     1      -2.693   1.015   3.656  0.00  0.00    -0.077 C 
BRANCH  33  34
ATOM     34  C   UNL     1      -1.271   1.481   3.974  0.00  0.00    -0.022 C 
ATOM     35  C   UNL     1      -0.858   0.956   5.351  0.00  0.00    +0.002 C 
ENDBRANCH  33  34
ENDBRANCH  28  33
ENDBRANCH  27  28
ENDBRANCH   1  27
TORSDOF 10
