REMARK  Name = ZINC63598853
REMARK  7 active torsions:
REMARK  status: ('A' for Active; 'I' for Inactive)
REMARK    1  A    between atoms: C_3  and  O_29
REMARK    2  A    between atoms: C_6  and  N_7
REMARK    3  A    between atoms: N_10  and  N_11
REMARK    4  A    between atoms: C_12  and  C_14
REMARK    5  A    between atoms: C_19  and  O_24
REMARK    6  A    between atoms: O_24  and  C_25
REMARK    7  A    between atoms: O_29  and  C_30
REMARK                            x       y       z     vdW  Elec       q    Type
REMARK                         _______ _______ _______ _____ _____    ______ ____
ROOT
ATOM      1  N   UNL     1      -3.566  -2.059  -0.177  0.00  0.00    -0.231 N 
ATOM      2  C   UNL     1      -4.725  -2.741  -0.270  0.00  0.00    +0.255 C 
ATOM      3  O   UNL     1      -4.711  -3.950  -0.368  0.00  0.00    -0.272 OA
ATOM      4  H   UNL     1      -3.577  -1.092  -0.098  0.00  0.00    +0.173 HD
ENDROOT
BRANCH   2   5
ATOM      5  C   UNL     1      -6.038  -2.001  -0.253  0.00  0.00    +0.191 C 
ATOM      6  C   UNL     1      -6.337  -1.439  -1.625  0.00  0.00    +0.016 C 
ATOM      7  C   UNL     1      -7.495  -2.013  -2.021  0.00  0.00    -0.000 A 
ATOM      8  C   UNL     1      -8.304  -1.887  -3.238  0.00  0.00    +0.055 A 
ATOM      9  C   UNL     1      -9.446  -2.606  -3.358  0.00  0.00    +0.131 A 
ATOM     10  C   UNL     1      -9.893  -3.478  -2.350  0.00  0.00    +0.048 A 
ATOM     11  C   UNL     1      -9.219  -3.661  -1.195  0.00  0.00    +0.029 A 
ATOM     12  C   UNL     1      -7.968  -2.933  -0.959  0.00  0.00    +0.043 A 
ATOM     13  N   UNL     1      -7.135  -2.926   0.053  0.00  0.00    -0.370 N 
ATOM     14  H   UNL     1      -7.228  -3.445   0.867  0.00  0.00    +0.161 HD
BRANCH   9  15
ATOM     15  O   UNL     1     -10.185  -2.479  -4.491  0.00  0.00    -0.406 OA
BRANCH  15  16
ATOM     16  C   UNL     1     -11.383  -3.255  -4.575  0.00  0.00    +0.575 C 
ATOM     17  F   UNL     1     -12.240  -2.905  -3.527  0.00  0.00    -0.133 F 
ATOM     18  F   UNL     1     -12.015  -3.005  -5.798  0.00  0.00    -0.133 F 
ATOM     19  F   UNL     1     -11.065  -4.614  -4.484  0.00  0.00    -0.133 F 
ENDBRANCH  15  16
ENDBRANCH   9  15
ENDBRANCH   2   5
BRANCH   1  23
ATOM     20  N   UNL     1      -1.202  -0.722   0.010  0.00  0.00    -0.268 N 
ATOM     21  C   UNL     1      -1.187  -2.065  -0.099  0.00  0.00    +0.320 C 
ATOM     22  O   UNL     1      -0.127  -2.662  -0.113  0.00  0.00    -0.251 OA
ATOM     23  N   UNL     1      -2.345  -2.747  -0.193  0.00  0.00    -0.218 N 
ATOM     24  H   UNL     1      -2.046  -0.252   0.099  0.00  0.00    +0.156 HD
ATOM     25  H   UNL     1      -2.334  -3.713  -0.271  0.00  0.00    +0.174 HD
BRANCH  20  31
ATOM     26  C   UNL     1       1.070  -0.455  -0.768  0.00  0.00    +0.027 A 
ATOM     27  C   UNL     1       2.255   0.254  -0.783  0.00  0.00    +0.048 A 
ATOM     28  C   UNL     1       2.379   1.416  -0.036  0.00  0.00    +0.130 A 
ATOM     29  C   UNL     1       1.312   1.867   0.727  0.00  0.00    +0.048 A 
ATOM     30  C   UNL     1       0.126   1.159   0.743  0.00  0.00    +0.027 A 
ATOM     31  C   UNL     1       0.002  -0.004  -0.005  0.00  0.00    +0.035 A 
BRANCH  28  32
ATOM     32  O   UNL     1       3.546   2.112  -0.050  0.00  0.00    -0.406 OA
BRANCH  32  33
ATOM     33  C   UNL     1       3.603   3.300   0.743  0.00  0.00    +0.575 C 
ATOM     34  F   UNL     1       3.376   2.976   2.084  0.00  0.00    -0.133 F 
ATOM     35  F   UNL     1       4.867   3.887   0.613  0.00  0.00    -0.133 F 
ATOM     36  F   UNL     1       2.624   4.199   0.307  0.00  0.00    -0.133 F 
ENDBRANCH  32  33
ENDBRANCH  28  32
ENDBRANCH  20  31
ENDBRANCH   1  23
TORSDOF 7
