REMARK  Name = ZINC06705513
REMARK  15 active torsions:
REMARK  status: ('A' for Active; 'I' for Inactive)
REMARK    1  A    between atoms: C_1  and  C_2
REMARK    2  A    between atoms: C_2  and  C_3
REMARK    3  A    between atoms: C_2  and  C_4
REMARK    4  A    between atoms: C_4  and  N_5
REMARK    5  A    between atoms: C_6  and  C_8
REMARK    6  A    between atoms: C_11  and  C_13
REMARK    7  A    between atoms: C_13  and  N_14
REMARK    8  A    between atoms: N_14  and  C_15
REMARK    9  A    between atoms: N_14  and  C_22
REMARK   10  A    between atoms: C_15  and  C_16
REMARK   11  A    between atoms: C_22  and  C_23
REMARK   12  A    between atoms: C_26  and  C_29
REMARK   13  A    between atoms: C_29  and  C_30
REMARK   14  A    between atoms: C_29  and  C_31
REMARK   15  A    between atoms: C_29  and  C_32
REMARK                            x       y       z     vdW  Elec       q    Type
REMARK                         _______ _______ _______ _____ _____    ______ ____
ROOT
ATOM      1  N   UNL     1      -0.888  -7.275  -1.896  0.00  0.00    +0.390 N 
ATOM      2  H   UNL     1      -1.716  -7.313  -2.471  0.00  0.00    -0.080 HD
ENDROOT
BRANCH   1   3
ATOM      3  C   UNL     1      -1.218  -6.667  -0.601  0.00  0.00    -0.002 C 
BRANCH   3   7
ATOM      4  C   UNL     1      -2.092  -3.158  -1.117  0.00  0.00    +0.189 A 
ATOM      5  C   UNL     1      -3.341  -3.708  -1.161  0.00  0.00    +0.055 A 
ATOM      6  C   UNL     1      -3.179  -5.090  -0.975  0.00  0.00    +0.043 A 
ATOM      7  C   UNL     1      -1.856  -5.320  -0.826  0.00  0.00    +0.090 A 
ATOM      8  O   UNL     1      -1.204  -4.154  -0.918  0.00  0.00    -0.457 OA
BRANCH   4  10
ATOM      9  N   UNL     1      -0.490  -1.322  -1.206  0.00  0.00    -0.309 N 
ATOM     10  C   UNL     1      -1.772  -1.734  -1.265  0.00  0.00    +0.279 C 
ATOM     11  O   UNL     1      -2.664  -0.925  -1.442  0.00  0.00    -0.267 OA
ATOM     12  H   UNL     1       0.221  -1.967  -1.066  0.00  0.00    +0.149 HD
BRANCH   9  13
ATOM     13  C   UNL     1      -0.171   0.100  -1.355  0.00  0.00    +0.107 C 
BRANCH  13  15
ATOM     14  C   UNL     1       1.688   1.760  -1.529  0.00  0.00    +0.009 C 
ATOM     15  C   UNL     1       1.343   0.296  -1.250  0.00  0.00    -0.000 C 
ATOM     16  C   UNL     1       1.809  -0.078   0.159  0.00  0.00    +0.009 C 
ENDBRANCH  13  15
ENDBRANCH   9  13
ENDBRANCH   4  10
ENDBRANCH   3   7
ENDBRANCH   1   3
BRANCH   1  17
ATOM     17  C   UNL     1       0.138  -6.467  -2.569  0.00  0.00    -0.042 C 
BRANCH  17  18
ATOM     18  C   UNL     1       0.372  -7.006  -3.957  0.00  0.00    -0.064 A 
ATOM     19  C   UNL     1       1.409  -7.889  -4.190  0.00  0.00    +0.002 A 
ATOM     20  C   UNL     1       1.623  -8.384  -5.463  0.00  0.00    +0.000 A 
ATOM     21  C   UNL     1       0.799  -7.995  -6.503  0.00  0.00    +0.000 A 
ATOM     22  C   UNL     1      -0.239  -7.112  -6.269  0.00  0.00    +0.000 A 
ATOM     23  C   UNL     1      -0.456  -6.622  -4.996  0.00  0.00    +0.002 A 
ENDBRANCH  17  18
ENDBRANCH   1  17
BRANCH   1  24
ATOM     24  C   UNL     1      -0.377  -8.636  -1.682  0.00  0.00    -0.042 C 
BRANCH  24  25
ATOM     25  C   UNL     1      -1.472  -9.499  -1.111  0.00  0.00    -0.064 A 
ATOM     26  C   UNL     1      -1.575  -9.670   0.257  0.00  0.00    +0.002 A 
ATOM     27  C   UNL     1      -2.580 -10.462   0.781  0.00  0.00    +0.004 A 
ATOM     28  C   UNL     1      -3.482 -11.082  -0.063  0.00  0.00    -0.042 A 
ATOM     29  C   UNL     1      -3.380 -10.911  -1.431  0.00  0.00    +0.004 A 
ATOM     30  C   UNL     1      -2.378 -10.115  -1.954  0.00  0.00    +0.002 A 
BRANCH  28  31
ATOM     31  C   UNL     1      -4.577 -11.947   0.508  0.00  0.00    -0.013 C 
ATOM     32  C   UNL     1      -5.456 -11.108   1.437  0.00  0.00    +0.015 C 
ATOM     33  C   UNL     1      -5.429 -12.509  -0.631  0.00  0.00    +0.015 C 
ATOM     34  C   UNL     1      -3.956 -13.101   1.298  0.00  0.00    +0.015 C 
ENDBRANCH  28  31
ENDBRANCH  24  25
ENDBRANCH   1  24
TORSDOF 10
