REMARK  Name = ZINC01019501
REMARK  11 active torsions:
REMARK  status: ('A' for Active; 'I' for Inactive)
REMARK    1  A    between atoms: C_1  and  C_2
REMARK    2  A    between atoms: C_5  and  N_8
REMARK    3  A    between atoms: N_8  and  C_9
REMARK    4  A    between atoms: C_10  and  C_29
REMARK    5  A    between atoms: C_11  and  C_22
REMARK    6  A    between atoms: C_13  and  C_18
REMARK    7  A    between atoms: C_15  and  C_17
REMARK    8  A    between atoms: C_18  and  O_20
REMARK    9  A    between atoms: O_20  and  C_21
REMARK   10  A    between atoms: C_29  and  O_31
REMARK   11  A    between atoms: O_31  and  C_32
REMARK                            x       y       z     vdW  Elec       q    Type
REMARK                         _______ _______ _______ _____ _____    ______ ____
ROOT
ATOM      1  C   UNL     1       2.489   1.793  -0.224  0.00  0.00    +0.042 C 
ATOM      2  C   UNL     1       2.461   1.656  -1.595  0.00  0.00    +0.066 C 
ATOM      3  C   UNL     1       3.605   2.188  -2.419  0.00  0.00    +0.075 C 
ATOM      4  C   UNL     1       4.147   3.471  -1.793  0.00  0.00    +0.135 C 
ATOM      5  C   UNL     1       4.408   3.271  -0.325  0.00  0.00    -0.056 C 
ATOM      6  C   UNL     1       3.616   2.494   0.406  0.00  0.00    +0.023 C 
ATOM      7  C   UNL     1       5.581   3.959   0.324  0.00  0.00    +0.040 C 
ENDROOT
BRANCH   3   8
ATOM      8  C   UNL     1       3.122   2.478  -3.817  0.00  0.00    -0.039 A 
ATOM      9  C   UNL     1       3.953   2.248  -4.897  0.00  0.00    +0.005 A 
ATOM     10  C   UNL     1       3.510   2.515  -6.179  0.00  0.00    +0.015 A 
ATOM     11  C   UNL     1       2.236   3.013  -6.381  0.00  0.00    +0.018 A 
ATOM     12  C   UNL     1       1.404   3.242  -5.299  0.00  0.00    +0.015 A 
ATOM     13  C   UNL     1       1.847   2.975  -4.018  0.00  0.00    +0.005 A 
ATOM     14 BR   UNL     1       1.630   3.379  -8.134  0.00  0.00    -0.050 Br
ENDBRANCH   3   8
BRANCH   1  15
ATOM     15  N   UNL     1       1.471   1.277   0.547  0.00  0.00    -0.314 N 
ATOM     16  H   UNL     1       1.255   0.333   0.498  0.00  0.00    +0.152 HD
BRANCH  15  21
ATOM     17  C   UNL     1      -1.458   4.677   4.016  0.00  0.00    +0.044 C 
ATOM     18  C   UNL     1      -0.680   3.773   3.094  0.00  0.00    -0.050 A 
ATOM     19  C   UNL     1      -0.909   2.410   3.109  0.00  0.00    +0.005 A 
ATOM     20  C   UNL     1      -0.198   1.579   2.266  0.00  0.00    +0.023 A 
ATOM     21  C   UNL     1       0.749   2.115   1.401  0.00  0.00    +0.031 A 
ATOM     22  C   UNL     1       0.980   3.485   1.392  0.00  0.00    +0.023 A 
ATOM     23  C   UNL     1       0.262   4.310   2.235  0.00  0.00    +0.005 A 
ENDBRANCH  15  21
ENDBRANCH   1  15
BRANCH   4  24
ATOM     24  C   UNL     1       3.141   4.578  -1.974  0.00  0.00    +0.315 C 
ATOM     25  O   UNL     1       2.304   4.779  -1.126  0.00  0.00    -0.250 OA
BRANCH  24  26
ATOM     26  O   UNL     1       3.173   5.341  -3.078  0.00  0.00    -0.467 OA
ATOM     27  C   UNL     1       2.173   6.388  -3.186  0.00  0.00    +0.280 C 
ENDBRANCH  24  26
ENDBRANCH   4  24
BRANCH   2  28
ATOM     28  C   UNL     1       1.372   1.025  -2.220  0.00  0.00    +0.337 C 
ATOM     29  O   UNL     1       0.403   0.690  -1.563  0.00  0.00    -0.245 OA
BRANCH  28  30
ATOM     30  O   UNL     1       1.400   0.791  -3.550  0.00  0.00    -0.465 OA
ATOM     31  C   UNL     1       0.259   0.146  -4.119  0.00  0.00    +0.280 C 
ENDBRANCH  28  30
ENDBRANCH   2  28
TORSDOF 7
