REMARK  Name = ZINC39678241
REMARK  6 active torsions:
REMARK  status: ('A' for Active; 'I' for Inactive)
REMARK    1  A    between atoms: C_4  and  N_34
REMARK    2  A    between atoms: C_5  and  C_7
REMARK    3  A    between atoms: C_7  and  N_8
REMARK    4  A    between atoms: C_9  and  C_11
REMARK    5  A    between atoms: C_22  and  C_24
REMARK    6  A    between atoms: C_27  and  C_30
REMARK                            x       y       z     vdW  Elec       q    Type
REMARK                         _______ _______ _______ _____ _____    ______ ____
ROOT
ATOM      1  C   UNL     1       1.730  -4.600   2.700  0.00  0.00    +0.100 C 
ATOM      2  C   UNL     1       0.728  -4.010   3.718  0.00  0.00    +0.121 C 
ATOM      3  N   UNL     1      -0.275  -5.082   3.921  0.00  0.00    -0.296 N 
ATOM      4  C   UNL     1       0.521  -6.333   3.938  0.00  0.00    +0.115 C 
ATOM      5  C   UNL     1       1.594  -6.124   2.850  0.00  0.00    -0.004 C 
ATOM      6  C   UNL     1       2.921  -6.732   3.294  0.00  0.00    -0.010 C 
ATOM      7  C   UNL     1       2.776  -8.254   3.380  0.00  0.00    -0.082 C 
ATOM      8  N   UNL     1       2.386  -8.785   2.068  0.00  0.00    +0.379 N 
ATOM      9  C   UNL     1       1.065  -8.268   1.691  0.00  0.00    -0.082 C 
ATOM     10  C   UNL     1       1.137  -6.746   1.534  0.00  0.00    -0.010 C 
ATOM     11  C   UNL     1      -1.609  -4.950   4.059  0.00  0.00    +0.247 C 
ATOM     12  O   UNL     1      -2.297  -5.927   4.280  0.00  0.00    -0.270 OA
ATOM     13  H   UNL     1       3.066  -8.505   1.377  0.00  0.00    -0.086 HD
ATOM     14  H   UNL     1       2.351  -9.793   2.112  0.00  0.00    -0.086 HD
ENDROOT
BRANCH  11  15
ATOM     15  C   UNL     1      -2.236  -3.616   3.941  0.00  0.00    +0.037 A 
ATOM     16  C   UNL     1      -3.549  -3.497   3.483  0.00  0.00    +0.013 A 
ATOM     17  C   UNL     1      -4.128  -2.249   3.375  0.00  0.00    +0.013 A 
ATOM     18  C   UNL     1      -3.410  -1.118   3.720  0.00  0.00    +0.055 A 
ATOM     19  C   UNL     1      -2.108  -1.229   4.174  0.00  0.00    +0.013 A 
ATOM     20  C   UNL     1      -1.519  -2.471   4.292  0.00  0.00    +0.013 A 
BRANCH  18  21
ATOM     21  C   UNL     1      -4.049   0.242   3.599  0.00  0.00    +0.417 C 
ATOM     22  F   UNL     1      -4.688   0.565   4.801  0.00  0.00    -0.166 F 
ATOM     23  F   UNL     1      -3.065   1.197   3.323  0.00  0.00    -0.166 F 
ATOM     24  F   UNL     1      -4.988   0.226   2.562  0.00  0.00    -0.166 F 
ENDBRANCH  18  21
ENDBRANCH  11  15
BRANCH   1  26
ATOM     25  N   UNL     1       2.329  -3.767   0.450  0.00  0.00    -0.311 N 
ATOM     26  C   UNL     1       1.367  -4.176   1.301  0.00  0.00    +0.218 C 
ATOM     27  O   UNL     1       0.209  -4.202   0.940  0.00  0.00    -0.275 OA
ATOM     28  H   UNL     1       3.255  -3.746   0.738  0.00  0.00    +0.149 HD
BRANCH  25  29
ATOM     29  C   UNL     1       1.976  -3.355  -0.911  0.00  0.00    +0.141 C 
BRANCH  29  34
ATOM     30  C   UNL     1       4.684  -1.235  -2.468  0.00  0.00    +0.000 A 
ATOM     31  C   UNL     1       5.515  -2.197  -3.014  0.00  0.00    +0.002 A 
ATOM     32  C   UNL     1       5.204  -3.536  -2.881  0.00  0.00    +0.023 A 
ATOM     33  C   UNL     1       4.055  -3.916  -2.199  0.00  0.00    +0.034 A 
ATOM     34  C   UNL     1       3.223  -2.947  -1.652  0.00  0.00    -0.009 A 
ATOM     35  C   UNL     1       3.540  -1.610  -1.789  0.00  0.00    +0.007 A 
BRANCH  33  36
ATOM     36  N   UNL     1       3.737  -5.269  -2.063  0.00  0.00    -0.330 N 
ATOM     37  C   UNL     1       2.915  -5.950  -3.073  0.00  0.00    +0.105 C 
ATOM     38  C   UNL     1       3.662  -7.198  -3.557  0.00  0.00    +0.019 C 
ATOM     39  C   UNL     1       4.026  -8.068  -2.352  0.00  0.00    +0.003 C 
ATOM     40  C   UNL     1       4.950  -7.285  -1.416  0.00  0.00    +0.019 C 
ATOM     41  C   UNL     1       4.223  -6.041  -0.911  0.00  0.00    +0.105 C 
ENDBRANCH  33  36
ENDBRANCH  29  34
ENDBRANCH  25  29
ENDBRANCH   1  26
TORSDOF 6
