REMARK  Name = ZINC64540136
REMARK  13 active torsions:
REMARK  status: ('A' for Active; 'I' for Inactive)
REMARK    1  A    between atoms: C_1  and  C_2
REMARK    2  A    between atoms: C_5  and  N_8
REMARK    3  A    between atoms: N_8  and  C_9
REMARK    4  A    between atoms: N_8  and  S_26
REMARK    5  A    between atoms: C_9  and  C_10
REMARK    6  A    between atoms: N_12  and  C_13
REMARK    7  A    between atoms: C_13  and  C_14
REMARK    8  A    between atoms: C_14  and  C_15
REMARK    9  A    between atoms: C_18  and  O_24
REMARK   10  A    between atoms: O_24  and  C_25
REMARK   11  A    between atoms: S_26  and  N_29
REMARK   12  A    between atoms: N_29  and  C_30
REMARK   13  A    between atoms: N_29  and  C_31
REMARK                            x       y       z     vdW  Elec       q    Type
REMARK                         _______ _______ _______ _____ _____    ______ ____
ROOT
ATOM      1  C   UNL     1       2.207  -4.761  -0.980  0.00  0.00    +0.232 C 
ATOM      2  O   UNL     1       2.681  -4.161  -0.038  0.00  0.00    -0.274 OA
ATOM      3  N   UNL     1       3.018  -5.333  -1.891  0.00  0.00    -0.314 N 
ATOM      4  H   UNL     1       2.639  -5.813  -2.644  0.00  0.00    +0.149 HD
ENDROOT
BRANCH   1   5
ATOM      5  C   UNL     1       0.711  -4.867  -1.130  0.00  0.00    +0.228 C 
BRANCH   5   6
ATOM      6  N   UNL     1       0.058  -4.167  -0.021  0.00  0.00    -0.184 N 
BRANCH   6  11
ATOM      7  C   UNL     1      -0.852   1.421  -0.333  0.00  0.00    +0.044 C 
ATOM      8  C   UNL     1      -0.610  -0.064  -0.250  0.00  0.00    -0.050 A 
ATOM      9  C   UNL     1      -1.179  -0.909  -1.185  0.00  0.00    +0.005 A 
ATOM     10  C   UNL     1      -0.960  -2.270  -1.112  0.00  0.00    +0.025 A 
ATOM     11  C   UNL     1      -0.166  -2.791  -0.098  0.00  0.00    +0.053 A 
ATOM     12  C   UNL     1       0.405  -1.939   0.840  0.00  0.00    +0.025 A 
ATOM     13  C   UNL     1       0.185  -0.578   0.757  0.00  0.00    +0.005 A 
ENDBRANCH   6  11
BRANCH   6  14
ATOM     14  S   UNL     1      -0.415  -5.009   1.325  0.00  0.00    +0.114 S 
ATOM     15  O   UNL     1       0.406  -6.168   1.388  0.00  0.00    -0.138 OA
ATOM     16  O   UNL     1      -0.488  -4.069   2.387  0.00  0.00    -0.138 OA
BRANCH  14  17
ATOM     17  N   UNL     1      -1.960  -5.538   1.053  0.00  0.00    -0.170 NA
ATOM     18  C   UNL     1      -2.191  -6.776   0.305  0.00  0.00    +0.132 C 
ATOM     19  C   UNL     1      -3.098  -4.767   1.562  0.00  0.00    +0.132 C 
ENDBRANCH  14  17
ENDBRANCH   6  14
ENDBRANCH   5   6
ENDBRANCH   1   5
BRANCH   3  20
ATOM     20  C   UNL     1       4.472  -5.231  -1.745  0.00  0.00    +0.108 C 
BRANCH  20  21
ATOM     21  C   UNL     1       5.154  -5.961  -2.904  0.00  0.00    +0.052 C 
BRANCH  21  22
ATOM     22  C   UNL     1       6.650  -5.855  -2.753  0.00  0.00    -0.040 C 
ATOM     23  C   UNL     1       7.475  -6.760  -2.179  0.00  0.00    +0.002 A 
ATOM     24  C   UNL     1       7.239  -8.062  -1.547  0.00  0.00    +0.055 A 
ATOM     25  C   UNL     1       8.286  -8.761  -1.047  0.00  0.00    +0.121 A 
ATOM     26  C   UNL     1       9.606  -8.282  -1.110  0.00  0.00    +0.047 A 
ATOM     27  C   UNL     1       9.923  -7.096  -1.672  0.00  0.00    +0.029 A 
ATOM     28  C   UNL     1       8.867  -6.257  -2.245  0.00  0.00    +0.043 A 
ATOM     29  N   UNL     1       8.900  -5.088  -2.836  0.00  0.00    -0.380 N 
ATOM     30  C   UNL     1       7.532  -4.719  -3.219  0.00  0.00    +0.144 C 
ATOM     31  H   UNL     1       9.696  -4.558  -2.998  0.00  0.00    +0.160 HD
BRANCH  25  32
ATOM     32  O   UNL     1       8.052  -9.966  -0.463  0.00  0.00    -0.495 OA
ATOM     33  C   UNL     1       9.185 -10.669   0.051  0.00  0.00    +0.277 C 
ENDBRANCH  25  32
ENDBRANCH  21  22
ENDBRANCH  20  21
ENDBRANCH   3  20
TORSDOF 9
