REMARK  Name = ZINC17212754
REMARK  14 active torsions:
REMARK  status: ('A' for Active; 'I' for Inactive)
REMARK    1  A    between atoms: C_1  and  C_2
REMARK    2  A    between atoms: C_2  and  C_3
REMARK    3  A    between atoms: C_2  and  C_4
REMARK    4  A    between atoms: C_2  and  C_5
REMARK    5  A    between atoms: N_7  and  C_8
REMARK    6  A    between atoms: C_13  and  C_14
REMARK    7  A    between atoms: C_19  and  C_30
REMARK    8  A    between atoms: C_21  and  C_23
REMARK    9  A    between atoms: C_23  and  O_25
REMARK   10  A    between atoms: O_25  and  C_26
REMARK   11  A    between atoms: C_30  and  C_31
REMARK   12  A    between atoms: C_31  and  O_32
REMARK   13  A    between atoms: O_32  and  C_33
REMARK   14  A    between atoms: C_33  and  C_34
REMARK                            x       y       z     vdW  Elec       q    Type
REMARK                         _______ _______ _______ _____ _____    ______ ____
ROOT
ATOM      1  C   UNL     1      -0.956  -0.168  -2.532  0.00  0.00    -0.002 C 
ATOM      2  C   UNL     1      -0.547   1.222  -3.020  0.00  0.00    -0.008 C 
ATOM      3  C   UNL     1       0.883   1.471  -2.459  0.00  0.00    -0.077 C 
ATOM      4  C   UNL     1      -0.019  -0.410  -1.323  0.00  0.00    -0.047 C 
ATOM      5  C   UNL     1      -0.864   0.036  -0.131  0.00  0.00    -0.020 C 
ATOM      6  C   UNL     1      -2.269  -0.404  -0.420  0.00  0.00    +0.025 C 
ATOM      7  C   UNL     1      -2.374  -0.302  -1.972  0.00  0.00    +0.107 C 
ATOM      8  C   UNL     1      -0.108  -0.146   1.114  0.00  0.00    -0.028 C 
ATOM      9  C   UNL     1       1.161   0.229   1.036  0.00  0.00    -0.049 C 
ATOM     10  C   UNL     1       1.787   0.784  -0.208  0.00  0.00    -0.051 C 
ATOM     11  N   UNL     1       1.193   0.356  -1.525  0.00  0.00    +0.385 N 
ATOM     12  H   UNL     1       1.883  -0.249  -1.983  0.00  0.00    -0.081 HD
ENDROOT
BRANCH   1  18
ATOM     13  C   UNL     1      -0.784  -2.552  -3.295  0.00  0.00    +0.037 A 
ATOM     14  C   UNL     1      -0.562  -3.500  -4.285  0.00  0.00    +0.023 A 
ATOM     15  C   UNL     1      -0.261  -3.095  -5.571  0.00  0.00    +0.002 A 
ATOM     16  C   UNL     1      -0.186  -1.748  -5.873  0.00  0.00    +0.000 A 
ATOM     17  C   UNL     1      -0.411  -0.802  -4.891  0.00  0.00    +0.006 A 
ATOM     18  C   UNL     1      -0.712  -1.200  -3.603  0.00  0.00    -0.021 A 
BRANCH  13  21
ATOM     19  C   UNL     1      -0.622  -4.139  -1.530  0.00  0.00    +0.223 C 
ATOM     20  O   UNL     1       0.126  -4.806  -2.213  0.00  0.00    -0.275 OA
ATOM     21  N   UNL     1      -1.083  -2.959  -1.990  0.00  0.00    -0.285 N 
ATOM     22  H   UNL     1      -1.621  -2.392  -1.416  0.00  0.00    +0.155 HD
BRANCH  19  24
ATOM     23  C   UNL     1      -0.374  -5.980   0.113  0.00  0.00    +0.020 C 
ATOM     24  C   UNL     1      -1.037  -4.630  -0.166  0.00  0.00    +0.039 C 
ATOM     25  C   UNL     1      -0.600  -3.618   0.895  0.00  0.00    +0.020 C 
ATOM     26  C   UNL     1      -2.558  -4.790  -0.122  0.00  0.00    +0.020 C 
ENDBRANCH  19  24
ENDBRANCH  13  21
ENDBRANCH   1  18
BRANCH   7  27
ATOM     27  C   UNL     1      -3.312   0.781  -2.404  0.00  0.00    +0.311 C 
ATOM     28  O   UNL     1      -3.496   1.741  -1.693  0.00  0.00    -0.251 OA
BRANCH  27  29
ATOM     29  O   UNL     1      -3.950   0.687  -3.582  0.00  0.00    -0.468 OA
ATOM     30  C   UNL     1      -4.755   1.825  -3.989  0.00  0.00    +0.280 C 
ENDBRANCH  27  29
ENDBRANCH   7  27
BRANCH   5  31
ATOM     31  C   UNL     1      -0.982   1.555  -0.184  0.00  0.00    +0.037 C 
BRANCH  31  32
ATOM     32  C   UNL     1      -1.691   2.057   1.076  0.00  0.00    +0.161 C 
BRANCH  32  33
ATOM     33  O   UNL     1      -1.872   3.471   0.989  0.00  0.00    -0.375 OA
BRANCH  33  34
ATOM     34  C   UNL     1      -2.529   4.043   2.122  0.00  0.00    +0.195 C 
BRANCH  34  35
ATOM     35  C   UNL     1      -2.666   5.531   1.925  0.00  0.00    -0.022 A 
ATOM     36  C   UNL     1      -1.671   6.382   2.369  0.00  0.00    +0.006 A 
ATOM     37  C   UNL     1      -1.795   7.746   2.184  0.00  0.00    +0.000 A 
ATOM     38  C   UNL     1      -2.918   8.261   1.564  0.00  0.00    +0.000 A 
ATOM     39  C   UNL     1      -3.915   7.410   1.123  0.00  0.00    +0.000 A 
ATOM     40  C   UNL     1      -3.789   6.045   1.305  0.00  0.00    +0.006 A 
ENDBRANCH  34  35
ENDBRANCH  33  34
ENDBRANCH  32  33
ENDBRANCH  31  32
ENDBRANCH   5  31
TORSDOF 10
