REMARK  Name = ZINC35594647
REMARK  13 active torsions:
REMARK  status: ('A' for Active; 'I' for Inactive)
REMARK    1  A    between atoms: C_1  and  C_2
REMARK    2  A    between atoms: C_2  and  C_3
REMARK    3  A    between atoms: C_2  and  C_4
REMARK    4  A    between atoms: C_2  and  C_5
REMARK    5  A    between atoms: N_8  and  C_10
REMARK    6  A    between atoms: N_11  and  C_25
REMARK    7  A    between atoms: C_16  and  C_18
REMARK    8  A    between atoms: C_25  and  C_26
REMARK    9  A    between atoms: N_28  and  C_29
REMARK   10  A    between atoms: C_29  and  C_30
REMARK   11  A    between atoms: C_30  and  N_31
REMARK   12  A    between atoms: N_31  and  C_32
REMARK   13  A    between atoms: N_31  and  C_33
REMARK                            x       y       z     vdW  Elec       q    Type
REMARK                         _______ _______ _______ _____ _____    ______ ____
ROOT
ATOM      1  C   UNL     1      -0.200   0.026  -1.698  0.00  0.00    +0.075 A 
ATOM      2  C   UNL     1      -1.231  -0.787  -2.171  0.00  0.00    +0.033 A 
ATOM      3  C   UNL     1      -1.363  -0.559  -3.498  0.00  0.00    +0.131 A 
ATOM      4  N   UNL     1      -0.456   0.367  -3.858  0.00  0.00    -0.253 N 
ATOM      5  N   UNL     1       0.263   0.724  -2.707  0.00  0.00    -0.174 NA
ATOM      6  C   UNL     1      -0.258   0.908  -5.205  0.00  0.00    +0.174 C 
ATOM      7  N   UNL     1      -2.301  -1.212  -4.312  0.00  0.00    -0.246 N 
ATOM      8  C   UNL     1      -2.399  -2.543  -4.232  0.00  0.00    +0.231 C 
ATOM      9  O   UNL     1      -3.378  -3.105  -4.676  0.00  0.00    -0.274 OA
ATOM     10  C   UNL     1      -1.303  -3.344  -3.597  0.00  0.00    +0.166 C 
ATOM     11  S   UNL     1      -1.549  -3.458  -1.793  0.00  0.00    -0.138 S 
ATOM     12  C   UNL     1      -2.069  -1.755  -1.375  0.00  0.00    +0.112 C 
ENDROOT
BRANCH  12  13
ATOM     13  C   UNL     1      -1.864  -1.510   0.097  0.00  0.00    -0.027 A 
ATOM     14  C   UNL     1      -2.678  -0.616   0.769  0.00  0.00    +0.005 A 
ATOM     15  C   UNL     1      -2.492  -0.391   2.120  0.00  0.00    +0.003 A 
ATOM     16  C   UNL     1      -1.490  -1.057   2.801  0.00  0.00    +0.038 A 
ATOM     17  C   UNL     1      -0.675  -1.952   2.129  0.00  0.00    +0.124 A 
ATOM     18  C   UNL     1      -0.867  -2.182   0.777  0.00  0.00    +0.043 A 
ATOM     19  F   UNL     1       0.305  -2.604   2.793  0.00  0.00    -0.205 F 
ENDBRANCH  12  13
BRANCH   1  21
ATOM     20  C   UNL     1       1.373   1.170  -0.160  0.00  0.00    +0.017 C 
ATOM     21  C   UNL     1       0.290   0.096  -0.274  0.00  0.00    +0.007 C 
ATOM     22  C   UNL     1       0.871  -1.260   0.132  0.00  0.00    +0.017 C 
ATOM     23  C   UNL     1      -0.877   0.448   0.650  0.00  0.00    +0.017 C 
ENDBRANCH   1  21
BRANCH   7  24
ATOM     24  C   UNL     1      -3.155  -0.453  -5.229  0.00  0.00    +0.210 C 
BRANCH  24  25
ATOM     25  C   UNL     1      -4.456  -0.121  -4.545  0.00  0.00    +0.231 C 
ATOM     26  O   UNL     1      -4.609  -0.384  -3.371  0.00  0.00    -0.274 OA
ATOM     27  N   UNL     1      -5.450   0.469  -5.238  0.00  0.00    -0.316 N 
ATOM     28  H   UNL     1      -5.328   0.680  -6.177  0.00  0.00    +0.149 HD
BRANCH  27  29
ATOM     29  C   UNL     1      -6.715   0.792  -4.573  0.00  0.00    +0.085 C 
BRANCH  29  30
ATOM     30  C   UNL     1      -7.665   1.450  -5.576  0.00  0.00    -0.061 C 
BRANCH  30  31
ATOM     31  N   UNL     1      -8.934   1.773  -4.909  0.00  0.00    +0.377 N 
ATOM     32  C   UNL     1      -8.697   2.789  -3.874  0.00  0.00    -0.097 C 
ATOM     33  C   UNL     1      -9.887   2.295  -5.898  0.00  0.00    -0.097 C 
ATOM     34  H   UNL     1      -9.312   0.941  -4.484  0.00  0.00    -0.083 HD
ENDBRANCH  30  31
ENDBRANCH  29  30
ENDBRANCH  27  29
ENDBRANCH  24  25
ENDBRANCH   7  24
TORSDOF 7
