REMARK  Name = ZINC27024753
REMARK  7 active torsions:
REMARK  status: ('A' for Active; 'I' for Inactive)
REMARK    1  A    between atoms: C_1  and  C_2
REMARK    2  A    between atoms: C_5  and  C_8
REMARK    3  A    between atoms: C_9  and  N_24
REMARK    4  A    between atoms: N_12  and  C_13
REMARK    5  A    between atoms: N_20  and  C_21
REMARK    6  A    between atoms: C_21  and  C_22
REMARK    7  A    between atoms: C_25  and  C_27
REMARK                            x       y       z     vdW  Elec       q    Type
REMARK                         _______ _______ _______ _____ _____    ______ ____
ROOT
ATOM      1  C   UNL     1      -1.260  -0.769   0.026  0.00  0.00    +0.080 A 
ATOM      2  C   UNL     1      -2.445  -0.117   0.145  0.00  0.00    +0.100 A 
ATOM      3  S   UNL     1      -3.619  -1.461   0.077  0.00  0.00    -0.036 S 
ATOM      4  C   UNL     1      -2.455  -2.803  -0.097  0.00  0.00    +0.154 A 
ATOM      5  N   UNL     1      -2.688  -4.098  -0.201  0.00  0.00    -0.336 N 
ATOM      6  N   UNL     1      -1.254  -2.136  -0.095  0.00  0.00    -0.315 N 
ATOM      7  H   UNL     1      -1.847  -4.808  -0.219  0.00  0.00    +0.168 HD
ENDROOT
BRANCH   1  12
ATOM      8  C   UNL     1       3.688   2.166   0.052  0.00  0.00    +0.044 C 
ATOM      9  C   UNL     1       2.391   1.398   0.045  0.00  0.00    -0.050 A 
ATOM     10  C   UNL     1       1.476   1.582   1.067  0.00  0.00    +0.004 A 
ATOM     11  C   UNL     1       0.288   0.882   1.067  0.00  0.00    +0.010 A 
ATOM     12  C   UNL     1       0.009  -0.015   0.032  0.00  0.00    +0.001 A 
ATOM     13  C   UNL     1       0.938  -0.195  -0.996  0.00  0.00    +0.010 A 
ATOM     14  C   UNL     1       2.122   0.512  -0.983  0.00  0.00    +0.004 A 
ENDBRANCH   1  12
BRANCH   5  15
ATOM     15  C   UNL     1      -3.973  -4.557  -0.285  0.00  0.00    +0.041 A 
ATOM     16  C   UNL     1      -4.643  -4.983   0.865  0.00  0.00    +0.027 A 
ATOM     17  C   UNL     1      -5.941  -5.441   0.773  0.00  0.00    +0.017 A 
ATOM     18  C   UNL     1      -6.576  -5.489  -0.456  0.00  0.00    +0.018 A 
ATOM     19  C   UNL     1      -5.917  -5.073  -1.600  0.00  0.00    +0.017 A 
ATOM     20  C   UNL     1      -4.620  -4.608  -1.522  0.00  0.00    +0.027 A 
ATOM     21 BR   UNL     1      -8.353  -6.126  -0.573  0.00  0.00    -0.050 Br
ENDBRANCH   5  15
BRANCH   2  22
ATOM     22  N   UNL     1      -2.684   1.247   0.284  0.00  0.00    -0.272 N 
ATOM     23  C   UNL     1      -3.938   1.694   0.497  0.00  0.00    +0.284 C 
ATOM     24  O   UNL     1      -4.862   0.904   0.567  0.00  0.00    -0.266 OA
ATOM     25  H   UNL     1      -1.850   1.961   0.220  0.00  0.00    +0.156 HD
BRANCH  23  26
ATOM     26  C   UNL     1      -4.189   3.131   0.643  0.00  0.00    +0.189 A 
ATOM     27  C   UNL     1      -5.405   3.715   0.855  0.00  0.00    +0.054 A 
ATOM     28  C   UNL     1      -5.180   5.098   0.935  0.00  0.00    +0.042 A 
ATOM     29  C   UNL     1      -3.854   5.296   0.761  0.00  0.00    +0.196 A 
ATOM     30  O   UNL     1      -3.261   4.108   0.585  0.00  0.00    -0.458 OA
ENDBRANCH  23  26
ENDBRANCH   2  22
BRANCH   6  31
ATOM     31  C   UNL     1       0.008  -2.870  -0.220  0.00  0.00    +0.151 C 
BRANCH  31  32
ATOM     32  C   UNL     1       0.450  -3.345   1.140  0.00  0.00    -0.013 C 
ATOM     33  C   UNL     1       0.697  -4.615   1.342  0.00  0.00    +0.005 C 
ENDBRANCH  31  32
ENDBRANCH   6  31
TORSDOF 6
