REMARK  Name = ZINC04575046
REMARK  12 active torsions:
REMARK  status: ('A' for Active; 'I' for Inactive)
REMARK    1  A    between atoms: C_1  and  C_2
REMARK    2  A    between atoms: C_2  and  C_3
REMARK    3  A    between atoms: C_2  and  C_4
REMARK    4  A    between atoms: C_4  and  C_5
REMARK    5  A    between atoms: C_5  and  C_7
REMARK    6  A    between atoms: C_5  and  N_59
REMARK    7  A    between atoms: C_7  and  O_9
REMARK    8  A    between atoms: O_9  and  C_10
REMARK    9  A    between atoms: C_11  and  N_59
REMARK   10  A    between atoms: N_21  and  C_22
REMARK   11  A    between atoms: C_22  and  C_23
REMARK   12  A    between atoms: C_23  and  C_24
REMARK                            x       y       z     vdW  Elec       q    Type
REMARK                         _______ _______ _______ _____ _____    ______ ____
ROOT
ATOM      1  C   UNL     1      -1.776   4.559   0.814  0.00  0.00    +0.047 C 
ATOM      2  C   UNL     1      -1.911   3.113   1.208  0.00  0.00    -0.059 C 
ATOM      3  C   UNL     1      -1.899   2.391   0.087  0.00  0.00    +0.014 C 
ATOM      4  C   UNL     1      -2.012   0.884   0.057  0.00  0.00    +0.040 C 
ATOM      5  C   UNL     1      -1.713   0.344   1.460  0.00  0.00    +0.005 C 
ATOM      6  C   UNL     1      -2.554   1.105   2.489  0.00  0.00    +0.005 C 
ATOM      7  C   UNL     1      -2.039   2.546   2.598  0.00  0.00    +0.031 C 
ATOM      8  C   UNL     1      -1.761   3.283  -1.066  0.00  0.00    +0.241 C 
ATOM      9  O   UNL     1      -1.719   2.921  -2.226  0.00  0.00    -0.270 OA
ATOM     10  N   UNL     1      -1.687   4.564  -0.654  0.00  0.00    -0.308 N 
ENDROOT
BRANCH   1  11
ATOM     11  N   UNL     1      -2.964   5.314   1.253  0.00  0.00    +0.403 N 
ATOM     12  H   UNL     1      -3.589   5.458   0.451  0.00  0.00    -0.081 HD
ATOM     13  H   UNL     1      -3.456   4.779   1.978  0.00  0.00    -0.081 HD
BRANCH  11  14
ATOM     14  C   UNL     1      -2.565   6.623   1.802  0.00  0.00    +0.042 C 
BRANCH  14  15
ATOM     15  C   UNL     1      -2.045   6.445   3.205  0.00  0.00    +0.293 C 
ATOM     16  O   UNL     1      -2.003   5.343   3.698  0.00  0.00    -0.253 OA
BRANCH  15  17
ATOM     17  O   UNL     1      -1.628   7.511   3.907  0.00  0.00    -0.469 OA
ATOM     18  C   UNL     1      -1.140   7.264   5.252  0.00  0.00    +0.280 C 
ENDBRANCH  15  17
ENDBRANCH  14  15
BRANCH  14  19
ATOM     19  C   UNL     1      -3.782   7.551   1.823  0.00  0.00    -0.002 C 
BRANCH  19  21
ATOM     20  C   UNL     1      -4.725   6.573  -0.274  0.00  0.00    +0.007 C 
ATOM     21  C   UNL     1      -4.216   7.855   0.388  0.00  0.00    -0.018 C 
ATOM     22  C   UNL     1      -5.335   8.899   0.404  0.00  0.00    +0.007 C 
ENDBRANCH  19  21
ENDBRANCH  14  19
ENDBRANCH  11  14
ENDBRANCH   1  11
BRANCH  10  23
ATOM     23  C   UNL     1      -1.545   5.744  -1.510  0.00  0.00    +0.111 C 
BRANCH  23  24
ATOM     24  C   UNL     1      -0.065   5.967  -1.829  0.00  0.00    +0.054 C 
BRANCH  24  25
ATOM     25  C   UNL     1       0.092   7.245  -2.613  0.00  0.00    -0.046 A 
ATOM     26  C   UNL     1       0.131   7.207  -3.994  0.00  0.00    +0.005 A 
ATOM     27  C   UNL     1       0.270   8.379  -4.714  0.00  0.00    +0.020 A 
ATOM     28  C   UNL     1       0.382   9.588  -4.052  0.00  0.00    +0.041 A 
ATOM     29  C   UNL     1       0.348   9.624  -2.669  0.00  0.00    +0.020 A 
ATOM     30  C   UNL     1       0.204   8.453  -1.951  0.00  0.00    +0.005 A 
ATOM     31 CL   UNL     1       0.564  11.059  -4.955  0.00  0.00    -0.084 Cl
ENDBRANCH  24  25
ENDBRANCH  23  24
ENDBRANCH  10  23
TORSDOF 9
