REMARK  Name = ZINC17044475
REMARK  4 active torsions:
REMARK  status: ('A' for Active; 'I' for Inactive)
REMARK    1  A    between atoms: C_1  and  C_2
REMARK    2  A    between atoms: C_15  and  C_37
REMARK    3  A    between atoms: N_27  and  C_30
REMARK    4  A    between atoms: C_30  and  C_31
REMARK                            x       y       z     vdW  Elec       q    Type
REMARK                         _______ _______ _______ _____ _____    ______ ____
ROOT
ATOM      1  C   UNL     1      -3.655   7.450   6.972  0.00  0.00    +0.044 C 
ATOM      2  C   UNL     1      -3.124   6.740   5.754  0.00  0.00    -0.050 A 
ATOM      3  C   UNL     1      -3.069   7.412   4.535  0.00  0.00    +0.005 A 
ATOM      4  C   UNL     1      -2.595   6.799   3.416  0.00  0.00    +0.026 A 
ATOM      5  C   UNL     1      -2.152   5.467   3.484  0.00  0.00    +0.048 A 
ATOM      6  C   UNL     1      -2.209   4.786   4.725  0.00  0.00    -0.001 A 
ATOM      7  C   UNL     1      -2.704   5.448   5.858  0.00  0.00    +0.013 A 
ATOM      8  C   UNL     1      -1.764   3.452   4.787  0.00  0.00    +0.017 A 
ATOM      9  C   UNL     1      -1.292   2.864   3.648  0.00  0.00    -0.007 A 
ATOM     10  C   UNL     1      -1.259   3.583   2.448  0.00  0.00    +0.103 A 
ATOM     11  N   UNL     1      -1.683   4.839   2.405  0.00  0.00    -0.343 N 
ATOM     12  N   UNL     1      -0.782   3.041   1.266  0.00  0.00    -0.312 N 
ATOM     13  C   UNL     1      -1.528   3.555   0.110  0.00  0.00    +0.107 C 
ATOM     14  C   UNL     1      -0.828   3.123  -1.181  0.00  0.00    +0.022 C 
ATOM     15  C   UNL     1      -0.756   1.594  -1.231  0.00  0.00    -0.011 C 
ATOM     16  C   UNL     1      -0.013   1.086   0.008  0.00  0.00    +0.027 C 
ATOM     17  C   UNL     1      -0.731   1.581   1.266  0.00  0.00    +0.099 C 
ATOM     18  C   UNL     1       0.031   1.103   2.507  0.00  0.00    +0.146 C 
ATOM     19  C   UNL     1      -0.820   1.434   3.736  0.00  0.00    +0.066 C 
ATOM     20  C   UNL     1       0.247  -0.380   2.426  0.00  0.00    +0.238 C 
ATOM     21  O   UNL     1      -0.717  -1.112   2.346  0.00  0.00    -0.274 OA
ATOM     22  N   UNL     1       1.475  -0.920   2.440  0.00  0.00    -0.239 N 
ATOM     23  C   UNL     1       2.580  -0.165   2.525  0.00  0.00    +0.315 C 
ATOM     24  O   UNL     1       3.668  -0.706   2.532  0.00  0.00    -0.252 OA
ATOM     25  N   UNL     1       2.515   1.173   2.601  0.00  0.00    -0.220 N 
ATOM     26  C   UNL     1       1.345   1.827   2.597  0.00  0.00    +0.240 C 
ATOM     27  O   UNL     1       1.346   3.037   2.668  0.00  0.00    -0.274 OA
ATOM     28  C   UNL     1      -0.006   1.158  -2.491  0.00  0.00    +0.007 C 
ATOM     29  H   UNL     1       1.597  -2.011   2.382  0.00  0.00    +0.159 HD
ATOM     30  H   UNL     1      -1.638   5.364   1.439  0.00  0.00    +0.167 HD
ENDROOT
BRANCH  25  31
ATOM     31  C   UNL     1       3.759   1.942   2.691  0.00  0.00    +0.153 C 
BRANCH  31  32
ATOM     32  C   UNL     1       4.236   2.289   1.304  0.00  0.00    -0.030 A 
ATOM     33  C   UNL     1       5.091   1.434   0.634  0.00  0.00    +0.005 A 
ATOM     34  C   UNL     1       5.526   1.750  -0.640  0.00  0.00    +0.000 A 
ATOM     35  C   UNL     1       5.113   2.926  -1.239  0.00  0.00    +0.000 A 
ATOM     36  C   UNL     1       4.263   3.783  -0.566  0.00  0.00    +0.000 A 
ATOM     37  C   UNL     1       3.824   3.465   0.706  0.00  0.00    +0.005 A 
ENDBRANCH  31  32
ENDBRANCH  25  31
TORSDOF 2
