REMARK  Name = ZINC13740447
REMARK  11 active torsions:
REMARK  status: ('A' for Active; 'I' for Inactive)
REMARK    1  A    between atoms: C_1  and  C_2
REMARK    2  A    between atoms: C_2  and  C_3
REMARK    3  A    between atoms: C_3  and  C_4
REMARK    4  A    between atoms: C_4  and  C_5
REMARK    5  A    between atoms: C_11  and  O_34
REMARK    6  A    between atoms: C_16  and  C_33
REMARK    7  A    between atoms: C_17  and  C_18
REMARK    8  A    between atoms: C_18  and  C_19
REMARK    9  A    between atoms: C_19  and  N_20
REMARK   10  A    between atoms: C_28  and  C_32
REMARK   11  A    between atoms: O_34  and  C_35
REMARK                            x       y       z     vdW  Elec       q    Type
REMARK                         _______ _______ _______ _____ _____    ______ ____
ROOT
ATOM      1  C   UNL     1      -1.183   1.329  -1.442  0.00  0.00    +0.088 C 
ATOM      2  C   UNL     1      -1.398   2.848  -1.421  0.00  0.00    +0.030 C 
ATOM      3  C   UNL     1      -1.881   3.387  -2.773  0.00  0.00    +0.039 C 
ATOM      4  C   UNL     1      -0.905   3.000  -3.845  0.00  0.00    -0.020 A 
ATOM      5  C   UNL     1      -0.654   3.667  -5.015  0.00  0.00    +0.051 A 
ATOM      6  C   UNL     1       0.287   3.180  -5.926  0.00  0.00    +0.121 A 
ATOM      7  C   UNL     1       1.018   2.015  -5.718  0.00  0.00    +0.056 A 
ATOM      8  C   UNL     1       0.773   1.323  -4.529  0.00  0.00    +0.007 A 
ATOM      9  C   UNL     1      -0.176   1.833  -3.630  0.00  0.00    +0.053 A 
ATOM     10  N   UNL     1      -0.256   1.005  -2.535  0.00  0.00    -0.341 N 
ATOM     11  C   UNL     1       0.616  -0.023  -2.716  0.00  0.00    +0.020 A 
ATOM     12  C   UNL     1       1.266   0.113  -3.900  0.00  0.00    -0.018 A 
ATOM     13  C   UNL     1       0.829  -1.152  -1.741  0.00  0.00    +0.064 C 
ENDROOT
BRANCH   6  14
ATOM     14  O   UNL     1       0.500   3.881  -7.073  0.00  0.00    -0.495 OA
ATOM     15  C   UNL     1      -0.266   5.073  -7.255  0.00  0.00    +0.277 C 
ENDBRANCH   6  14
BRANCH   1  16
ATOM     16  C   UNL     1      -0.584   0.877  -0.109  0.00  0.00    +0.025 C 
BRANCH  16  17
ATOM     17  C   UNL     1       0.814   1.476   0.052  0.00  0.00    +0.002 C 
BRANCH  17  19
ATOM     18  C   UNL     1       2.812   1.624   1.546  0.00  0.00    +0.004 C 
ATOM     19  C   UNL     1       1.413   1.024   1.385  0.00  0.00    -0.003 C 
ENDBRANCH  17  19
ENDBRANCH  16  17
ENDBRANCH   1  16
BRANCH  12  20
ATOM     20  C   UNL     1       2.309  -0.821  -4.457  0.00  0.00    +0.053 C 
BRANCH  20  21
ATOM     21  C   UNL     1       3.696  -0.374  -3.991  0.00  0.00    +0.089 C 
BRANCH  21  22
ATOM     22  N   UNL     1       4.712  -1.285  -4.534  0.00  0.00    -0.299 NA
ATOM     23  C   UNL     1       4.572  -2.632  -3.963  0.00  0.00    +0.103 C 
ATOM     24  C   UNL     1       5.595  -3.567  -4.612  0.00  0.00    +0.122 C 
ATOM     25  N   UNL     1       6.948  -3.041  -4.386  0.00  0.00    -0.314 N 
ATOM     26  C   UNL     1       7.088  -1.694  -4.957  0.00  0.00    +0.122 C 
ATOM     27  C   UNL     1       6.066  -0.759  -4.309  0.00  0.00    +0.103 C 
ATOM     28  C   UNL     1       7.910  -3.903  -4.901  0.00  0.00    +0.099 A 
ATOM     29  C   UNL     1       7.946  -5.228  -4.477  0.00  0.00    +0.045 A 
ATOM     30  C   UNL     1       8.904  -6.076  -5.002  0.00  0.00    -0.046 A 
ATOM     31  C   UNL     1       9.806  -5.566  -5.927  0.00  0.00    +0.021 A 
ATOM     32  C   UNL     1       9.716  -4.239  -6.298  0.00  0.00    +0.084 A 
ATOM     33  N   UNL     1       8.787  -3.454  -5.785  0.00  0.00    -0.350 N 
ATOM     34  C   UNL     1       8.973  -7.519  -4.573  0.00  0.00    +0.044 C 
ATOM     35  H   UNL     1       8.752  -2.404  -6.110  0.00  0.00    +0.166 HD
ENDBRANCH  21  22
ENDBRANCH  20  21
ENDBRANCH  12  20
TORSDOF 7
