REMARK  Name = ZINC40980545
REMARK  15 active torsions:
REMARK  status: ('A' for Active; 'I' for Inactive)
REMARK    1  A    between atoms: C_1  and  C_2
REMARK    2  A    between atoms: C_2  and  C_3
REMARK    3  A    between atoms: C_3  and  S_4
REMARK    4  A    between atoms: S_4  and  C_5
REMARK    5  A    between atoms: C_10  and  C_21
REMARK    6  A    between atoms: C_12  and  C_16
REMARK    7  A    between atoms: C_13  and  C_15
REMARK    8  A    between atoms: C_16  and  O_18
REMARK    9  A    between atoms: O_18  and  C_19
REMARK   10  A    between atoms: C_19  and  C_20
REMARK   11  A    between atoms: C_23  and  O_31
REMARK   12  A    between atoms: C_24  and  O_28
REMARK   13  A    between atoms: O_28  and  C_29
REMARK   14  A    between atoms: C_29  and  C_30
REMARK   15  A    between atoms: O_31  and  C_32
REMARK                            x       y       z     vdW  Elec       q    Type
REMARK                         _______ _______ _______ _____ _____    ______ ____
ROOT
ATOM      1  C   UNL     1       1.998  -2.518  -2.614  0.00  0.00    +0.210 A 
ATOM      2  N   UNL     1       2.455  -1.704  -3.576  0.00  0.00    -0.187 NA
ATOM      3  C   UNL     1       2.836  -2.413  -4.603  0.00  0.00    +0.219 A 
ATOM      4  N   UNL     1       2.631  -3.721  -4.311  0.00  0.00    -0.220 N 
ATOM      5  N   UNL     1       2.092  -3.764  -3.026  0.00  0.00    -0.141 NA
ATOM      6  C   UNL     1       2.951  -4.814  -5.226  0.00  0.00    +0.179 C 
ATOM      7  C   UNL     1       3.242  -4.253  -6.593  0.00  0.00    +0.082 C 
ATOM      8  C   UNL     1       3.433  -2.945  -6.823  0.00  0.00    +0.020 C 
ATOM      9  N   UNL     1       3.366  -2.009  -5.821  0.00  0.00    -0.287 N 
ATOM     10  C   UNL     1       3.731  -2.488  -8.228  0.00  0.00    +0.061 C 
ATOM     11  H   UNL     1       3.677  -1.101  -5.958  0.00  0.00    +0.155 HD
ENDROOT
BRANCH   6  12
ATOM     12  C   UNL     1       4.162  -5.555  -4.719  0.00  0.00    -0.014 A 
ATOM     13  C   UNL     1       4.070  -6.902  -4.420  0.00  0.00    +0.055 A 
ATOM     14  C   UNL     1       5.181  -7.585  -3.954  0.00  0.00    +0.163 A 
ATOM     15  C   UNL     1       6.389  -6.913  -3.788  0.00  0.00    +0.176 A 
ATOM     16  C   UNL     1       6.474  -5.564  -4.091  0.00  0.00    +0.063 A 
ATOM     17  C   UNL     1       5.362  -4.888  -4.560  0.00  0.00    +0.025 A 
ATOM     18 BR   UNL     1       8.113  -4.646  -3.868  0.00  0.00    -0.046 Br
BRANCH  14  19
ATOM     19  O   UNL     1       5.092  -8.910  -3.658  0.00  0.00    -0.491 OA
ATOM     20  C   UNL     1       3.821  -9.534  -3.852  0.00  0.00    +0.277 C 
ENDBRANCH  14  19
BRANCH  15  21
ATOM     21  O   UNL     1       7.482  -7.580  -3.331  0.00  0.00    -0.487 OA
BRANCH  21  22
ATOM     22  C   UNL     1       8.329  -8.187  -4.309  0.00  0.00    +0.226 C 
ATOM     23  C   UNL     1       9.497  -8.885  -3.610  0.00  0.00    +0.048 C 
ENDBRANCH  21  22
ENDBRANCH  15  21
ENDBRANCH   6  12
BRANCH   7  24
ATOM     24  C   UNL     1       3.317  -5.147  -7.685  0.00  0.00    +0.339 C 
ATOM     25  O   UNL     1       2.298  -5.540  -8.221  0.00  0.00    -0.245 OA
BRANCH  24  26
ATOM     26  O   UNL     1       4.520  -5.564  -8.133  0.00  0.00    -0.462 OA
BRANCH  26  27
ATOM     27  C   UNL     1       4.521  -6.467  -9.241  0.00  0.00    +0.229 C 
ATOM     28  C   UNL     1       5.964  -6.826  -9.604  0.00  0.00    +0.048 C 
ENDBRANCH  26  27
ENDBRANCH  24  26
ENDBRANCH   7  24
BRANCH   1  29
ATOM     29  S   UNL     1       1.376  -2.003  -1.048  0.00  0.00    -0.084 S 
BRANCH  29  30
ATOM     30  C   UNL     1       1.508  -0.195  -1.096  0.00  0.00    +0.077 C 
BRANCH  30  32
ATOM     31  C   UNL     1       1.106   1.915   0.181  0.00  0.00    +0.004 C 
ATOM     32  C   UNL     1       0.995   0.390   0.222  0.00  0.00    +0.008 C 
ENDBRANCH  30  32
ENDBRANCH  29  30
ENDBRANCH   1  29
TORSDOF 10
