REMARK  Name = ZINC01084150
REMARK  7 active torsions:
REMARK  status: ('A' for Active; 'I' for Inactive)
REMARK    1  A    between atoms: C_1  and  C_2
REMARK    2  A    between atoms: C_2  and  N_3
REMARK    3  A    between atoms: C_5  and  C_31
REMARK    4  A    between atoms: C_11  and  N_15
REMARK    5  A    between atoms: N_18  and  C_21
REMARK    6  A    between atoms: C_21  and  N_23
REMARK    7  A    between atoms: C_24  and  C_26
REMARK                            x       y       z     vdW  Elec       q    Type
REMARK                         _______ _______ _______ _____ _____    ______ ____
ROOT
ATOM      1  N   UNL     1      -0.125   5.540   0.045  0.00  0.00    -0.346 N 
ATOM      2  C   UNL     1       0.988   6.286   0.040  0.00  0.00    +0.105 A 
ATOM      3  C   UNL     1       2.248   5.725   0.024  0.00  0.00    +0.126 A 
ATOM      4  C   UNL     1       2.375   4.258   0.013  0.00  0.00    +0.204 A 
ATOM      5  O   UNL     1       3.466   3.715  -0.001  0.00  0.00    -0.286 OA
ATOM      6  C   UNL     1       1.128   3.474   0.019  0.00  0.00    +0.049 A 
ATOM      7  C   UNL     1      -0.100   4.162   0.035  0.00  0.00    +0.055 A 
ATOM      8  C   UNL     1      -1.284   3.434   0.041  0.00  0.00    +0.052 A 
ATOM      9  C   UNL     1      -1.242   2.050   0.024  0.00  0.00    +0.067 A 
ATOM     10  C   UNL     1      -0.018   1.376   0.014  0.00  0.00    +0.145 A 
ATOM     11  C   UNL     1       1.154   2.078   0.009  0.00  0.00    +0.054 A 
ATOM     12  F   UNL     1       0.006   0.026   0.004  0.00  0.00    -0.204 F 
ENDROOT
BRANCH   9  13
ATOM     13  N   UNL     1      -2.430   1.323   0.024  0.00  0.00    -0.325 N 
ATOM     14  C   UNL     1      -3.195   1.564  -1.207  0.00  0.00    +0.124 C 
ATOM     15  C   UNL     1      -4.397   0.616  -1.252  0.00  0.00    +0.125 C 
ATOM     16  N   UNL     1      -5.162   0.770  -0.005  0.00  0.00    -0.309 N 
ATOM     17  C   UNL     1      -4.436   0.678   1.272  0.00  0.00    +0.125 C 
ATOM     18  C   UNL     1      -3.232   1.624   1.217  0.00  0.00    +0.124 C 
BRANCH  16  19
ATOM     19  C   UNL     1      -6.491   0.992  -0.031  0.00  0.00    +0.140 C 
ATOM     20  S   UNL     1      -7.379   1.041   1.432  0.00  0.00    -0.018 S 
BRANCH  19  21
ATOM     21  N   UNL     1      -7.120   1.174  -1.208  0.00  0.00    -0.261 N 
ATOM     22  C   UNL     1      -8.428   1.501  -1.229  0.00  0.00    +0.285 C 
ATOM     23  O   UNL     1      -9.040   1.631  -0.186  0.00  0.00    -0.266 OA
ATOM     24  H   UNL     1      -6.633   1.071  -2.040  0.00  0.00    +0.157 HD
BRANCH  22  25
ATOM     25  C   UNL     1      -9.113   1.700  -2.510  0.00  0.00    +0.189 A 
ATOM     26  C   UNL     1     -10.428   2.032  -2.674  0.00  0.00    +0.054 A 
ATOM     27  C   UNL     1     -10.653   2.118  -4.056  0.00  0.00    +0.042 A 
ATOM     28  C   UNL     1      -9.480   1.838  -4.668  0.00  0.00    +0.196 A 
ATOM     29  O   UNL     1      -8.554   1.593  -3.733  0.00  0.00    -0.458 OA
ENDBRANCH  22  25
ENDBRANCH  19  21
ENDBRANCH  16  19
ENDBRANCH   9  13
BRANCH   3  30
ATOM     30  C   UNL     1       3.445   6.577   0.020  0.00  0.00    +0.392 C 
ATOM     31  O   UNL     1       4.551   6.072   0.007  0.00  0.00    -0.240 OA
ATOM     32  O   UNL     1       3.317   7.919   0.030  0.00  0.00    -0.240 OA
ENDBRANCH   3  30
BRANCH   1  34
ATOM     33  C   UNL     1      -1.920   6.333   1.505  0.00  0.00    +0.027 C 
ATOM     34  C   UNL     1      -1.423   6.218   0.062  0.00  0.00    +0.118 C 
ENDBRANCH   1  34
TORSDOF 6
