REMARK  Name = ZINC02655669
REMARK  8 active torsions:
REMARK  status: ('A' for Active; 'I' for Inactive)
REMARK    1  A    between atoms: C_1  and  C_2
REMARK    2  A    between atoms: C_6  and  N_8
REMARK    3  A    between atoms: N_8  and  S_9
REMARK    4  A    between atoms: S_9  and  C_12
REMARK    5  A    between atoms: C_15  and  C_33
REMARK    6  A    between atoms: C_16  and  C_18
REMARK    7  A    between atoms: C_23  and  C_26
REMARK    8  A    between atoms: C_26  and  C_27
REMARK                            x       y       z     vdW  Elec       q    Type
REMARK                         _______ _______ _______ _____ _____    ______ ____
ROOT
ATOM      1  C   UNL     1       0.248   5.621  -2.546  0.00  0.00    +0.109 A 
ATOM      2  C   UNL     1       0.805   4.569  -3.251  0.00  0.00    +0.029 A 
ATOM      3  C   UNL     1       0.556   4.427  -4.605  0.00  0.00    +0.006 A 
ATOM      4  C   UNL     1      -0.242   5.340  -5.262  0.00  0.00    -0.038 A 
ATOM      5  C   UNL     1      -0.802   6.407  -4.558  0.00  0.00    +0.042 A 
ATOM      6  C   UNL     1      -0.551   6.542  -3.191  0.00  0.00    +0.042 A 
ATOM      7  C   UNL     1      -0.507   5.187  -6.738  0.00  0.00    +0.044 C 
ENDROOT
BRANCH   5   8
ATOM      8  C   UNL     1      -1.658   7.389  -5.256  0.00  0.00    +0.247 C 
ATOM      9  O   UNL     1      -1.246   7.959  -6.247  0.00  0.00    -0.270 OA
ATOM     10  N   UNL     1      -2.896   7.654  -4.793  0.00  0.00    -0.298 N 
ATOM     11  C   UNL     1      -3.378   7.035  -3.551  0.00  0.00    +0.108 C 
ATOM     12  C   UNL     1      -4.710   6.338  -3.826  0.00  0.00    +0.023 C 
ATOM     13  C   UNL     1      -5.686   7.337  -4.452  0.00  0.00    -0.004 C 
ATOM     14  C   UNL     1      -5.119   7.843  -5.780  0.00  0.00    +0.023 C 
ATOM     15  C   UNL     1      -3.791   8.561  -5.524  0.00  0.00    +0.108 C 
BRANCH  13  16
ATOM     16  C   UNL     1      -7.030   6.649  -4.700  0.00  0.00    +0.038 C 
BRANCH  16  17
ATOM     17  C   UNL     1      -7.646   6.260  -3.380  0.00  0.00    -0.047 A 
ATOM     18  C   UNL     1      -7.380   5.019  -2.833  0.00  0.00    +0.003 A 
ATOM     19  C   UNL     1      -7.941   4.664  -1.620  0.00  0.00    +0.000 A 
ATOM     20  C   UNL     1      -8.776   5.546  -0.961  0.00  0.00    +0.000 A 
ATOM     21  C   UNL     1      -9.046   6.785  -1.511  0.00  0.00    +0.000 A 
ATOM     22  C   UNL     1      -8.481   7.142  -2.721  0.00  0.00    +0.003 A 
ENDBRANCH  16  17
ENDBRANCH  13  16
ENDBRANCH   5   8
BRANCH   1  23
ATOM     23  S   UNL     1       0.567   5.790  -0.821  0.00  0.00    +0.072 S 
ATOM     24  O   UNL     1       0.381   7.163  -0.506  0.00  0.00    -0.150 OA
ATOM     25  O   UNL     1       1.787   5.108  -0.565  0.00  0.00    -0.150 OA
BRANCH  23  26
ATOM     26  N   UNL     1      -0.619   4.955  -0.021  0.00  0.00    -0.216 N 
ATOM     27  H   UNL     1      -1.250   5.430   0.542  0.00  0.00    +0.174 HD
BRANCH  26  33
ATOM     28  C   UNL     1      -3.370   0.948  -0.744  0.00  0.00    +0.044 C 
ATOM     29  C   UNL     1      -2.031   1.598  -0.507  0.00  0.00    -0.049 A 
ATOM     30  C   UNL     1      -0.890   0.820  -0.426  0.00  0.00    +0.003 A 
ATOM     31  C   UNL     1       0.341   1.413  -0.215  0.00  0.00    +0.002 A 
ATOM     32  C   UNL     1       0.435   2.785  -0.080  0.00  0.00    +0.024 A 
ATOM     33  C   UNL     1      -0.710   3.568  -0.156  0.00  0.00    +0.048 A 
ATOM     34  C   UNL     1      -1.945   2.969  -0.368  0.00  0.00    +0.027 A 
ENDBRANCH  26  33
ENDBRANCH  23  26
ENDBRANCH   1  23
TORSDOF 6
