REMARK  Name = ZINC09505388
REMARK  11 active torsions:
REMARK  status: ('A' for Active; 'I' for Inactive)
REMARK    1  A    between atoms: C_1  and  C_2
REMARK    2  A    between atoms: C_2  and  C_3
REMARK    3  A    between atoms: C_3  and  N_62
REMARK    4  A    between atoms: C_9  and  N_16
REMARK    5  A    between atoms: C_10  and  C_11
REMARK    6  A    between atoms: C_11  and  O_13
REMARK    7  A    between atoms: O_13  and  C_14
REMARK    8  A    between atoms: C_14  and  C_15
REMARK    9  A    between atoms: C_17  and  C_19
REMARK   10  A    between atoms: N_24  and  S_25
REMARK   11  A    between atoms: S_25  and  C_28
REMARK                            x       y       z     vdW  Elec       q    Type
REMARK                         _______ _______ _______ _____ _____    ______ ____
ROOT
ATOM      1  C   UNL     1      -3.767  -0.748  -4.364  0.00  0.00    -0.074 C 
ATOM      2  C   UNL     1      -2.415  -0.460  -3.704  0.00  0.00    +0.018 C 
ATOM      3  C   UNL     1      -1.905   0.876  -4.230  0.00  0.00    -0.025 A 
ATOM      4  C   UNL     1      -2.427   1.405  -5.360  0.00  0.00    -0.021 A 
ATOM      5  S   UNL     1      -1.560   2.929  -5.588  0.00  0.00    -0.079 S 
ATOM      6  C   UNL     1      -0.520   2.870  -4.203  0.00  0.00    +0.086 A 
ATOM      7  C   UNL     1      -0.865   1.667  -3.599  0.00  0.00    +0.091 A 
ATOM      8  C   UNL     1      -3.504   0.803  -6.208  0.00  0.00    -0.035 C 
ATOM      9  N   UNL     1      -3.632  -0.626  -5.831  0.00  0.00    +0.383 N 
ATOM     10  H   UNL     1      -2.788  -1.128  -6.132  0.00  0.00    -0.081 HD
ENDROOT
BRANCH   6  11
ATOM     11  N   UNL     1       0.427   3.797  -3.797  0.00  0.00    -0.278 N 
ATOM     12  C   UNL     1       0.625   4.918  -4.518  0.00  0.00    +0.236 C 
ATOM     13  O   UNL     1      -0.026   5.116  -5.522  0.00  0.00    -0.274 OA
ATOM     14  H   UNL     1       0.947   3.639  -2.994  0.00  0.00    +0.155 HD
BRANCH  12  15
ATOM     15  C   UNL     1       1.655   5.926  -4.077  0.00  0.00    +0.166 C 
ATOM     16  C   UNL     1       3.057   5.283  -4.087  0.00  0.00    +0.031 C 
ATOM     17  C   UNL     1       3.636   5.734  -5.454  0.00  0.00    +0.019 C 
ATOM     18  C   UNL     1       3.040   7.157  -5.590  0.00  0.00    +0.110 C 
ATOM     19  N   UNL     1       1.685   7.055  -5.018  0.00  0.00    -0.164 NA
BRANCH  19  20
ATOM     20  S   UNL     1       0.409   8.047  -5.378  0.00  0.00    +0.068 S 
ATOM     21  O   UNL     1       0.669   8.594  -6.663  0.00  0.00    -0.152 OA
ATOM     22  O   UNL     1      -0.772   7.311  -5.088  0.00  0.00    -0.152 OA
BRANCH  20  23
ATOM     23  C   UNL     1       0.456   9.391  -4.239  0.00  0.00    +0.143 A 
ATOM     24  C   UNL     1       1.093  10.582  -4.351  0.00  0.00    +0.036 A 
ATOM     25  C   UNL     1       0.987  11.498  -3.321  0.00  0.00    +0.010 A 
ATOM     26  C   UNL     1       0.257  11.174  -2.226  0.00  0.00    +0.047 A 
ATOM     27  S   UNL     1      -0.315   9.533  -2.635  0.00  0.00    -0.077 S 
ENDBRANCH  20  23
ENDBRANCH  19  20
ENDBRANCH  12  15
ENDBRANCH   6  11
BRANCH   7  28
ATOM     28  C   UNL     1      -0.209   1.218  -2.369  0.00  0.00    +0.342 C 
ATOM     29  O   UNL     1       0.792   0.530  -2.430  0.00  0.00    -0.245 OA
BRANCH  28  30
ATOM     30  O   UNL     1      -0.715   1.567  -1.168  0.00  0.00    -0.461 OA
BRANCH  30  31
ATOM     31  C   UNL     1      -0.013   1.086   0.008  0.00  0.00    +0.229 C 
ATOM     32  C   UNL     1      -0.729   1.579   1.267  0.00  0.00    +0.048 C 
ENDBRANCH  30  31
ENDBRANCH  28  30
ENDBRANCH   7  28
BRANCH   9  33
ATOM     33  C   UNL     1      -4.809  -1.222  -6.498  0.00  0.00    -0.079 C 
BRANCH  33  35
ATOM     34  C   UNL     1      -5.747  -1.920  -8.707  0.00  0.00    +0.002 C 
ATOM     35  C   UNL     1      -4.544  -1.286  -8.004  0.00  0.00    -0.022 C 
ENDBRANCH  33  35
ENDBRANCH   9  33
TORSDOF 9
