REMARK  Name = ZINC32623551
REMARK  12 active torsions:
REMARK  status: ('A' for Active; 'I' for Inactive)
REMARK    1  A    between atoms: C_1  and  C_2
REMARK    2  A    between atoms: C_2  and  N_3
REMARK    3  A    between atoms: N_3  and  C_4
REMARK    4  A    between atoms: N_3  and  C_6
REMARK    5  A    between atoms: C_4  and  C_5
REMARK    6  A    between atoms: C_6  and  C_7
REMARK    7  A    between atoms: C_7  and  C_8
REMARK    8  A    between atoms: C_8  and  N_9
REMARK    9  A    between atoms: C_10  and  C_26
REMARK   10  A    between atoms: C_29  and  O_34
REMARK   11  A    between atoms: C_30  and  O_32
REMARK   12  A    between atoms: O_32  and  C_33
REMARK                            x       y       z     vdW  Elec       q    Type
REMARK                         _______ _______ _______ _____ _____    ______ ____
ROOT
ATOM      1  N   UNL     1      -2.554  -4.074  -0.405  0.00  0.00    -0.284 N 
ATOM      2  C   UNL     1      -3.481  -2.983  -0.728  0.00  0.00    +0.145 C 
ATOM      3  C   UNL     1      -2.656  -1.722  -0.721  0.00  0.00    +0.072 A 
ATOM      4  C   UNL     1      -2.990  -0.316  -0.964  0.00  0.00    +0.199 A 
ATOM      5  O   UNL     1      -4.124   0.035  -1.237  0.00  0.00    -0.287 OA
ATOM      6  C   UNL     1      -1.882   0.655  -0.864  0.00  0.00    +0.066 A 
ATOM      7  C   UNL     1      -2.087   2.017  -1.077  0.00  0.00    +0.035 A 
ATOM      8  C   UNL     1      -1.024   2.888  -0.973  0.00  0.00    +0.042 A 
ATOM      9  C   UNL     1       0.242   2.410  -0.657  0.00  0.00    +0.023 A 
ATOM     10  C   UNL     1       0.456   1.067  -0.446  0.00  0.00    +0.048 A 
ATOM     11  C   UNL     1      -0.602   0.168  -0.545  0.00  0.00    +0.140 A 
ATOM     12  O   UNL     1      -0.404  -1.147  -0.340  0.00  0.00    -0.450 OA
ATOM     13  C   UNL     1      -1.381  -2.071  -0.420  0.00  0.00    +0.199 A 
ATOM     14  C   UNL     1      -1.333  -3.542  -0.226  0.00  0.00    +0.283 C 
ATOM     15  O   UNL     1      -0.334  -4.173   0.054  0.00  0.00    -0.267 OA
ATOM     16 CL   UNL     1      -1.267   4.586  -1.237  0.00  0.00    -0.084 Cl
ENDROOT
BRANCH   2  17
ATOM     17  C   UNL     1      -4.567  -2.898   0.313  0.00  0.00    -0.019 A 
ATOM     18  C   UNL     1      -4.266  -3.120   1.644  0.00  0.00    +0.009 A 
ATOM     19  C   UNL     1      -5.259  -3.043   2.603  0.00  0.00    +0.049 A 
ATOM     20  C   UNL     1      -6.560  -2.744   2.231  0.00  0.00    +0.158 A 
ATOM     21  C   UNL     1      -6.863  -2.521   0.891  0.00  0.00    +0.162 A 
ATOM     22  C   UNL     1      -5.862  -2.594  -0.064  0.00  0.00    +0.055 A 
BRANCH  21  23
ATOM     23  O   UNL     1      -8.138  -2.226   0.521  0.00  0.00    -0.491 OA
ATOM     24  C   UNL     1      -8.376  -2.009  -0.871  0.00  0.00    +0.277 C 
ENDBRANCH  21  23
BRANCH  20  25
ATOM     25  O   UNL     1      -7.537  -2.667   3.173  0.00  0.00    -0.503 OA
ATOM     26  H   UNL     1      -8.569  -2.429   2.876  0.00  0.00    +0.292 HD
ENDBRANCH  20  25
ENDBRANCH   2  17
BRANCH   1  27
ATOM     27  C   UNL     1      -2.900  -5.494  -0.296  0.00  0.00    +0.107 C 
BRANCH  27  28
ATOM     28  C   UNL     1      -2.737  -6.164  -1.662  0.00  0.00    +0.000 C 
BRANCH  28  29
ATOM     29  C   UNL     1      -3.098  -7.647  -1.548  0.00  0.00    -0.077 C 
BRANCH  29  30
ATOM     30  N   UNL     1      -2.942  -8.290  -2.860  0.00  0.00    +0.379 N 
ATOM     31  H   UNL     1      -3.505  -7.698  -3.596  0.00  0.00    -0.082 HD
BRANCH  30  33
ATOM     32  C   UNL     1      -0.710  -9.099  -2.260  0.00  0.00    -0.017 C 
ATOM     33  C   UNL     1      -1.533  -8.304  -3.275  0.00  0.00    -0.082 C 
ENDBRANCH  30  33
BRANCH  30  34
ATOM     34  C   UNL     1      -3.501  -9.649  -2.850  0.00  0.00    -0.082 C 
ATOM     35  C   UNL     1      -3.681 -10.137  -4.288  0.00  0.00    -0.017 C 
ENDBRANCH  30  34
ENDBRANCH  29  30
ENDBRANCH  28  29
ENDBRANCH  27  28
ENDBRANCH   1  27
TORSDOF 9
