REMARK  Name = ZINC02276049
REMARK  7 active torsions:
REMARK  status: ('A' for Active; 'I' for Inactive)
REMARK    1  A    between atoms: C_1  and  O_2
REMARK    2  A    between atoms: O_2  and  C_3
REMARK    3  A    between atoms: C_6  and  C_18
REMARK    4  A    between atoms: C_8  and  C_9
REMARK    5  A    between atoms: C_9  and  O_10
REMARK    6  A    between atoms: O_10  and  C_11
REMARK    7  A    between atoms: N_29  and  C_30
REMARK                            x       y       z     vdW  Elec       q    Type
REMARK                         _______ _______ _______ _____ _____    ______ ____
ROOT
ATOM      1  C   UNL     1       5.400   7.678   0.021  0.00  0.00    +0.198 C 
ATOM      2  N   UNL     1       6.066   8.267  -1.146  0.00  0.00    -0.321 N 
ATOM      3  C   UNL     1       7.434   8.508  -1.087  0.00  0.00    +0.041 A 
ATOM      4  C   UNL     1       8.225   8.496  -2.223  0.00  0.00    +0.024 A 
ATOM      5  C   UNL     1       9.579   8.749  -2.116  0.00  0.00    +0.002 A 
ATOM      6  C   UNL     1      10.151   9.015  -0.881  0.00  0.00    +0.001 A 
ATOM      7  C   UNL     1       9.377   9.026   0.261  0.00  0.00    +0.015 A 
ATOM      8  C   UNL     1       8.011   8.769   0.168  0.00  0.00    +0.058 A 
ATOM      9  C   UNL     1       7.145   8.756   1.360  0.00  0.00    +0.254 C 
ATOM     10  O   UNL     1       7.570   9.143   2.432  0.00  0.00    -0.270 OA
ATOM     11  N   UNL     1       5.877   8.311   1.251  0.00  0.00    -0.242 N 
ATOM     12  H   UNL     1       5.560   8.486  -1.944  0.00  0.00    +0.148 HD
ENDROOT
BRANCH  11  13
ATOM     13  C   UNL     1       5.001   8.459   2.333  0.00  0.00    +0.074 A 
ATOM     14  C   UNL     1       4.919   7.468   3.302  0.00  0.00    +0.026 A 
ATOM     15  C   UNL     1       4.058   7.619   4.372  0.00  0.00    +0.002 A 
ATOM     16  C   UNL     1       3.270   8.750   4.473  0.00  0.00    +0.003 A 
ATOM     17  C   UNL     1       3.344   9.738   3.508  0.00  0.00    +0.040 A 
ATOM     18  C   UNL     1       4.207   9.596   2.437  0.00  0.00    +0.145 A 
ATOM     19  F   UNL     1       4.280  10.560   1.494  0.00  0.00    -0.204 F 
ENDBRANCH  11  13
BRANCH   1  23
ATOM     20  C   UNL     1       6.246   3.491   0.172  0.00  0.00    +0.126 A 
ATOM     21  C   UNL     1       7.268   4.413   0.343  0.00  0.00    +0.046 A 
ATOM     22  C   UNL     1       6.992   5.766   0.296  0.00  0.00    +0.010 A 
ATOM     23  C   UNL     1       5.699   6.201   0.073  0.00  0.00    -0.008 A 
ATOM     24  C   UNL     1       4.679   5.285  -0.103  0.00  0.00    +0.017 A 
ATOM     25  C   UNL     1       4.950   3.931  -0.057  0.00  0.00    +0.032 A 
BRANCH  20  27
ATOM     26  C   UNL     1       7.871   1.780   0.462  0.00  0.00    +0.277 C 
ATOM     27  O   UNL     1       6.514   2.160   0.223  0.00  0.00    -0.495 OA
ENDBRANCH  20  27
BRANCH  25  28
ATOM     28  C   UNL     1       3.838   2.932  -0.249  0.00  0.00    +0.268 C 
BRANCH  28  29
ATOM     29  O   UNL     1       2.607   3.625  -0.461  0.00  0.00    -0.484 OA
BRANCH  29  30
ATOM     30  C   UNL     1       1.496   2.865  -0.652  0.00  0.00    +0.156 A 
ATOM     31  C   UNL     1       1.589   1.482  -0.637  0.00  0.00    +0.048 A 
ATOM     32  C   UNL     1       0.459   0.711  -0.832  0.00  0.00    +0.004 A 
ATOM     33  C   UNL     1      -0.765   1.318  -1.047  0.00  0.00    +0.003 A 
ATOM     34  C   UNL     1      -0.864   2.697  -1.058  0.00  0.00    +0.042 A 
ATOM     35  C   UNL     1       0.265   3.473  -0.864  0.00  0.00    +0.165 A 
ATOM     36  F   UNL     1       0.169   4.821  -0.879  0.00  0.00    -0.202 F 
ENDBRANCH  29  30
ENDBRANCH  28  29
ENDBRANCH  25  28
ENDBRANCH   1  23
TORSDOF 6
