REMARK  Name = ZINC61594567
REMARK  6 active torsions:
REMARK  status: ('A' for Active; 'I' for Inactive)
REMARK    1  A    between atoms: C_5  and  C_6
REMARK    2  A    between atoms: C_6  and  C_8
REMARK    3  A    between atoms: C_6  and  S_10
REMARK    4  A    between atoms: C_8  and  N_9
REMARK    5  A    between atoms: S_10  and  C_11
REMARK    6  A    between atoms: N_17  and  C_18
REMARK                            x       y       z     vdW  Elec       q    Type
REMARK                         _______ _______ _______ _____ _____    ______ ____
ROOT
ATOM      1  C   UNL     1      -1.141  -0.911  -0.037  0.00  0.00    +0.073 C 
ENDROOT
BRANCH   1   6
ATOM      2  C   UNL     1       0.246   1.267  -0.145  0.00  0.00    +0.013 A 
ATOM      3  C   UNL     1       1.511   1.816  -0.245  0.00  0.00    +0.023 A 
ATOM      4  C   UNL     1       2.582   0.987  -0.331  0.00  0.00    +0.055 A 
ATOM      5  S   UNL     1       1.810  -0.621  -0.272  0.00  0.00    -0.085 S 
ATOM      6  C   UNL     1       0.113  -0.082  -0.136  0.00  0.00    +0.002 A 
ATOM      7 BR   UNL     1       4.416   1.424  -0.477  0.00  0.00    -0.043 Br
ENDBRANCH   1   6
BRANCH   1   8
ATOM      8  C   UNL     1      -1.070  -1.796   1.210  0.00  0.00    -0.066 C 
BRANCH   8   9
ATOM      9  N   UNL     1      -1.085  -0.950   2.411  0.00  0.00    +0.379 N 
ATOM     10  H   UNL     1      -0.964  -1.528   3.230  0.00  0.00    -0.090 HD
ATOM     11  H   UNL     1      -0.335  -0.278   2.359  0.00  0.00    -0.090 HD
ATOM     12  H   UNL     1      -1.968  -0.465   2.470  0.00  0.00    -0.090 HD
ENDBRANCH   8   9
ENDBRANCH   1   8
BRANCH   1  13
ATOM     13  S   UNL     1      -1.293  -1.956  -1.512  0.00  0.00    -0.079 S 
BRANCH  13  14
ATOM     14  C   UNL     1      -2.900  -2.666  -1.368  0.00  0.00    +0.193 A 
ATOM     15  N   UNL     1      -3.711  -2.510  -0.361  0.00  0.00    -0.145 NA
ATOM     16  N   UNL     1      -4.881  -3.233  -0.631  0.00  0.00    -0.226 N 
ATOM     17  H   UNL     1      -5.660  -3.300  -0.058  0.00  0.00    +0.194 HD
ATOM     18  C   UNL     1      -4.724  -3.820  -1.836  0.00  0.00    +0.345 A 
ATOM     19  O   UNL     1      -5.536  -4.530  -2.402  0.00  0.00    -0.245 OA
ATOM     20  N   UNL     1      -3.508  -3.472  -2.303  0.00  0.00    -0.268 N 
BRANCH  20  21
ATOM     21  C   UNL     1      -2.931  -3.885  -3.584  0.00  0.00    +0.094 C 
ATOM     22  C   UNL     1      -3.846  -4.617  -4.568  0.00  0.00    +0.027 C 
ATOM     23  C   UNL     1      -2.750  -5.385  -3.827  0.00  0.00    +0.027 C 
ENDBRANCH  20  21
ENDBRANCH  13  14
ENDBRANCH   1  13
TORSDOF 6
