REMARK  Name = ZINC40386694
REMARK  8 active torsions:
REMARK  status: ('A' for Active; 'I' for Inactive)
REMARK    1  A    between atoms: C_1  and  C_2
REMARK    2  A    between atoms: C_5  and  N_8
REMARK    3  A    between atoms: C_11  and  C_13
REMARK    4  A    between atoms: C_13  and  N_14
REMARK    5  A    between atoms: N_14  and  C_15
REMARK    6  A    between atoms: N_18  and  C_19
REMARK    7  A    between atoms: N_26  and  C_29
REMARK    8  A    between atoms: C_29  and  C_30
REMARK                            x       y       z     vdW  Elec       q    Type
REMARK                         _______ _______ _______ _____ _____    ______ ____
ROOT
ATOM      1  N   UNL     1      -0.631  -3.719   0.329  0.00  0.00    -0.236 N 
ATOM      2  C   UNL     1       0.091  -4.402   1.231  0.00  0.00    +0.045 A 
ATOM      3  C   UNL     1       0.072  -5.715   0.876  0.00  0.00    -0.018 A 
ATOM      4  C   UNL     1      -0.692  -5.835  -0.280  0.00  0.00    +0.082 A 
ATOM      5  N   UNL     1      -1.121  -4.640  -0.611  0.00  0.00    -0.169 NA
ATOM      6  C   UNL     1       0.785  -6.793   1.653  0.00  0.00    -0.039 C 
ATOM      7  N   UNL     1       1.780  -6.153   2.530  0.00  0.00    +0.385 N 
ATOM      8  C   UNL     1       1.146  -5.103   3.337  0.00  0.00    -0.072 C 
ATOM      9  C   UNL     1       0.822  -3.893   2.450  0.00  0.00    +0.037 C 
ATOM     10  H   UNL     1       2.510  -5.745   1.965  0.00  0.00    -0.081 HD
ENDROOT
BRANCH   1  15
ATOM     11  C   UNL     1      -1.555   1.881   0.322  0.00  0.00    +0.044 C 
ATOM     12  C   UNL     1      -1.310   0.394   0.324  0.00  0.00    -0.050 A 
ATOM     13  C   UNL     1      -0.053  -0.098   0.628  0.00  0.00    +0.005 A 
ATOM     14  C   UNL     1       0.175  -1.460   0.630  0.00  0.00    +0.028 A 
ATOM     15  C   UNL     1      -0.859  -2.336   0.328  0.00  0.00    +0.066 A 
ATOM     16  C   UNL     1      -2.119  -1.840   0.024  0.00  0.00    +0.028 A 
ATOM     17  C   UNL     1      -2.343  -0.477   0.028  0.00  0.00    +0.005 A 
ENDBRANCH   1  15
BRANCH   4  18
ATOM     18  C   UNL     1      -0.981  -7.115  -1.020  0.00  0.00    +0.166 C 
BRANCH  18  19
ATOM     19  N   UNL     1      -2.207  -7.718  -0.492  0.00  0.00    -0.283 N 
ATOM     20  C   UNL     1      -3.504  -7.374  -1.079  0.00  0.00    +0.134 C 
ATOM     21  C   UNL     1      -2.142  -8.590   0.533  0.00  0.00    +0.307 C 
ATOM     22  O   UNL     1      -1.065  -8.877   1.020  0.00  0.00    -0.252 OA
ATOM     23  N   UNL     1      -3.270  -9.145   1.019  0.00  0.00    -0.269 N 
ATOM     24  H   UNL     1      -4.121  -8.971   0.587  0.00  0.00    +0.156 HD
BRANCH  23  25
ATOM     25  C   UNL     1      -3.214  -9.973   2.146  0.00  0.00    +0.035 A 
ATOM     26  C   UNL     1      -4.252  -9.964   3.068  0.00  0.00    +0.023 A 
ATOM     27  C   UNL     1      -4.194 -10.782   4.179  0.00  0.00    +0.002 A 
ATOM     28  C   UNL     1      -3.103 -11.610   4.373  0.00  0.00    +0.000 A 
ATOM     29  C   UNL     1      -2.068 -11.621   3.457  0.00  0.00    +0.002 A 
ATOM     30  C   UNL     1      -2.123 -10.809   2.341  0.00  0.00    +0.023 A 
ENDBRANCH  23  25
ENDBRANCH  18  19
ENDBRANCH   4  18
BRANCH   7  31
ATOM     31  C   UNL     1       2.365  -7.164   3.420  0.00  0.00    -0.043 C 
BRANCH  31  32
ATOM     32  C   UNL     1       3.470  -6.539   4.233  0.00  0.00    -0.064 A 
ATOM     33  C   UNL     1       4.766  -6.538   3.753  0.00  0.00    +0.004 A 
ATOM     34  C   UNL     1       5.779  -5.965   4.497  0.00  0.00    +0.038 A 
ATOM     35  C   UNL     1       5.496  -5.391   5.725  0.00  0.00    +0.123 A 
ATOM     36  C   UNL     1       4.197  -5.392   6.205  0.00  0.00    +0.038 A 
ATOM     37  C   UNL     1       3.185  -5.961   5.457  0.00  0.00    +0.004 A 
ATOM     38  F   UNL     1       6.486  -4.830   6.454  0.00  0.00    -0.205 F 
ENDBRANCH  31  32
ENDBRANCH   7  31
TORSDOF 6
