REMARK  Name = ZINC02656833
REMARK  7 active torsions:
REMARK  status: ('A' for Active; 'I' for Inactive)
REMARK    1  A    between atoms: C_4  and  N_7
REMARK    2  A    between atoms: C_9  and  C_17
REMARK    3  A    between atoms: C_10  and  C_12
REMARK    4  A    between atoms: C_18  and  C_19
REMARK    5  A    between atoms: C_19  and  O_21
REMARK    6  A    between atoms: O_21  and  C_22
REMARK    7  A    between atoms: C_22  and  C_23
REMARK                            x       y       z     vdW  Elec       q    Type
REMARK                         _______ _______ _______ _____ _____    ______ ____
ROOT
ATOM      1  C   UNL     1       5.735  -3.602  -0.082  0.00  0.00    +0.018 C 
ATOM      2  C   UNL     1       4.958  -4.710  -0.086  0.00  0.00    +0.092 C 
ENDROOT
BRANCH   1   5
ATOM      3  N   UNL     1       3.623  -0.651  -0.037  0.00  0.00    -0.239 N 
ATOM      4  C   UNL     1       3.763  -1.989  -0.051  0.00  0.00    +0.123 A 
ATOM      5  C   UNL     1       5.116  -2.273  -0.065  0.00  0.00    +0.021 A 
ATOM      6  C   UNL     1       5.810  -0.978  -0.058  0.00  0.00    +0.107 A 
ATOM      7  N   UNL     1       4.882  -0.045  -0.048  0.00  0.00    -0.165 NA
BRANCH   3  11
ATOM      8  C   UNL     1      -0.017   1.379   0.010  0.00  0.00    +0.000 A 
ATOM      9  C   UNL     1       1.170   2.089   0.002  0.00  0.00    +0.002 A 
ATOM     10  C   UNL     1       2.377   1.420  -0.013  0.00  0.00    +0.028 A 
ATOM     11  C   UNL     1       2.400   0.031  -0.021  0.00  0.00    +0.065 A 
ATOM     12  C   UNL     1       1.206  -0.680  -0.013  0.00  0.00    +0.028 A 
ATOM     13  C   UNL     1       0.002  -0.004   0.002  0.00  0.00    +0.002 A 
ENDBRANCH   3  11
BRANCH   6  14
ATOM     14  C   UNL     1       7.270  -0.764  -0.067  0.00  0.00    +0.040 A 
ATOM     15  C   UNL     1       7.994   0.233  -0.669  0.00  0.00    +0.018 A 
ATOM     16  C   UNL     1       9.364   0.227  -0.538  0.00  0.00    +0.008 A 
ATOM     17  C   UNL     1       9.957  -0.762   0.181  0.00  0.00    +0.046 A 
ATOM     18  S   UNL     1       8.554  -1.731   0.710  0.00  0.00    -0.095 S 
ENDBRANCH   6  14
ENDBRANCH   1   5
BRANCH   2  19
ATOM     19  C   UNL     1       5.556  -5.992  -0.103  0.00  0.00    +0.332 C 
ATOM     20  O   UNL     1       6.768  -6.099  -0.113  0.00  0.00    -0.246 OA
BRANCH  19  21
ATOM     21  O   UNL     1       4.781  -7.098  -0.107  0.00  0.00    -0.455 OA
BRANCH  21  22
ATOM     22  C   UNL     1       5.451  -8.360  -0.124  0.00  0.00    +0.288 C 
BRANCH  22  23
ATOM     23  C   UNL     1       4.432  -9.470  -0.127  0.00  0.00    +0.086 A 
ATOM     24  C   UNL     1       4.333 -10.313  -1.216  0.00  0.00    +0.097 A 
ATOM     25  C   UNL     1       3.380 -11.338  -1.195  0.00  0.00    +0.259 A 
ATOM     26  O   UNL     1       3.268 -12.100  -2.142  0.00  0.00    -0.267 OA
ATOM     27  N   UNL     1       2.586 -11.469  -0.111  0.00  0.00    -0.267 N 
ATOM     28  C   UNL     1       1.653 -12.461  -0.076  0.00  0.00    +0.111 A 
ATOM     29  C   UNL     1       0.845 -12.612   0.999  0.00  0.00    +0.035 A 
ATOM     30  C   UNL     1       0.961 -11.745   2.095  0.00  0.00    +0.020 A 
ATOM     31  C   UNL     1       1.892 -10.750   2.069  0.00  0.00    +0.048 A 
ATOM     32  C   UNL     1       2.723 -10.608   0.942  0.00  0.00    +0.141 A 
ATOM     33  N   UNL     1       3.636  -9.639   0.917  0.00  0.00    -0.231 NA
ATOM     34 BR   UNL     1      -0.443 -13.996   1.024  0.00  0.00    -0.049 Br
ENDBRANCH  22  23
ENDBRANCH  21  22
ENDBRANCH  19  21
ENDBRANCH   2  19
TORSDOF 7
