REMARK  Name = ZINC11783128
REMARK  7 active torsions:
REMARK  status: ('A' for Active; 'I' for Inactive)
REMARK    1  A    between atoms: C_1  and  C_2
REMARK    2  A    between atoms: C_6  and  C_9
REMARK    3  A    between atoms: C_7  and  C_8
REMARK    4  A    between atoms: C_14  and  C_17
REMARK    5  A    between atoms: C_17  and  C_30
REMARK    6  A    between atoms: N_20  and  C_24
REMARK    7  A    between atoms: C_30  and  C_31
REMARK                            x       y       z     vdW  Elec       q    Type
REMARK                         _______ _______ _______ _____ _____    ______ ____
ROOT
ATOM      1  C   UNL     1       1.171   1.788   4.900  0.00  0.00    +0.119 C 
ATOM      2  C   UNL     1       0.089   0.980   4.211  0.00  0.00    +0.247 C 
ATOM      3  O   UNL     1      -0.462  -0.015   4.632  0.00  0.00    -0.273 OA
ATOM      4  N   UNL     1      -0.132   1.597   3.034  0.00  0.00    -0.219 N 
ATOM      5  C   UNL     1       0.646   2.675   2.888  0.00  0.00    +0.310 C 
ATOM      6  O   UNL     1       0.625   3.397   1.910  0.00  0.00    -0.252 OA
ATOM      7  N   UNL     1       1.456   2.872   3.944  0.00  0.00    -0.284 N 
ATOM      8  H   UNL     1       2.101   3.587   4.055  0.00  0.00    +0.151 HD
ENDROOT
BRANCH   1  14
ATOM      9  C   UNL     1       6.389   0.347   4.253  0.00  0.00    +0.247 C 
ATOM     10  O   UNL     1       6.702  -0.292   3.267  0.00  0.00    -0.270 OA
ATOM     11  N   UNL     1       5.138   0.255   4.746  0.00  0.00    -0.297 N 
ATOM     12  C   UNL     1       4.117  -0.543   4.054  0.00  0.00    +0.108 C 
ATOM     13  C   UNL     1       2.887   0.336   3.808  0.00  0.00    +0.025 C 
ATOM     14  C   UNL     1       2.421   0.937   5.136  0.00  0.00    +0.025 C 
ATOM     15  C   UNL     1       3.532   1.813   5.719  0.00  0.00    +0.025 C 
ATOM     16  C   UNL     1       4.769   0.950   5.987  0.00  0.00    +0.108 C 
BRANCH   9  22
ATOM     17  C   UNL     1       9.658   4.109   4.012  0.00  0.00    +0.044 C 
ATOM     18  C   UNL     1       8.954   3.034   4.800  0.00  0.00    -0.047 A 
ATOM     19  C   UNL     1       9.237   2.867   6.144  0.00  0.00    +0.003 A 
ATOM     20  C   UNL     1       8.596   1.883   6.875  0.00  0.00    +0.001 A 
ATOM     21  C   UNL     1       7.665   1.065   6.268  0.00  0.00    +0.013 A 
ATOM     22  C   UNL     1       7.380   1.224   4.911  0.00  0.00    +0.040 A 
ATOM     23  C   UNL     1       8.031   2.219   4.180  0.00  0.00    -0.035 A 
ATOM     24  C   UNL     1       7.724   2.402   2.716  0.00  0.00    +0.045 C 
ENDBRANCH   9  22
ENDBRANCH   1  14
BRANCH   4  25
ATOM     25  C   UNL     1      -1.109   1.147   2.039  0.00  0.00    +0.113 C 
ATOM     26  C   UNL     1      -0.417   0.821   0.693  0.00  0.00    +0.053 C 
ATOM     27  C   UNL     1      -1.375   1.386  -0.374  0.00  0.00    +0.162 C 
ATOM     28  O   UNL     1      -2.514   1.925   0.317  0.00  0.00    -0.378 OA
ATOM     29  C   UNL     1      -2.068   2.300   1.638  0.00  0.00    +0.182 C 
ENDBRANCH   4  25
BRANCH   1  30
ATOM     30  C   UNL     1       0.653   2.358   6.222  0.00  0.00    +0.070 C 
BRANCH  30  31
ATOM     31  C   UNL     1      -0.606   3.147   5.969  0.00  0.00    -0.045 A 
ATOM     32  C   UNL     1      -0.528   4.499   5.689  0.00  0.00    +0.006 A 
ATOM     33  C   UNL     1      -1.681   5.223   5.452  0.00  0.00    +0.038 A 
ATOM     34  C   UNL     1      -2.915   4.597   5.506  0.00  0.00    +0.123 A 
ATOM     35  C   UNL     1      -2.992   3.244   5.791  0.00  0.00    +0.038 A 
ATOM     36  C   UNL     1      -1.837   2.521   6.023  0.00  0.00    +0.006 A 
ATOM     37  F   UNL     1      -4.043   5.305   5.279  0.00  0.00    -0.205 F 
ENDBRANCH  30  31
ENDBRANCH   1  30
TORSDOF 5
