REMARK  Name = ZINC38866095
REMARK  5 active torsions:
REMARK  status: ('A' for Active; 'I' for Inactive)
REMARK    1  A    between atoms: C_1  and  C_2
REMARK    2  A    between atoms: C_4  and  N_21
REMARK    3  A    between atoms: C_9  and  C_12
REMARK    4  A    between atoms: C_22  and  C_24
REMARK    5  A    between atoms: C_25  and  C_26
REMARK                            x       y       z     vdW  Elec       q    Type
REMARK                         _______ _______ _______ _____ _____    ______ ____
ROOT
ATOM      1  C   UNL     1      -0.018   1.503   0.010  0.00  0.00    +0.067 C 
ATOM      2  C   UNL     1       0.002  -0.004   0.002  0.00  0.00    +0.062 A 
ATOM      3  C   UNL     1       0.008  -0.814  -1.137  0.00  0.00    +0.068 A 
ATOM      4  C   UNL     1       0.027  -2.112  -0.727  0.00  0.00    +0.131 A 
ATOM      5  N   UNL     1       0.034  -2.109   0.636  0.00  0.00    -0.194 N 
ATOM      6  N   UNL     1       0.023  -0.774   1.060  0.00  0.00    -0.168 NA
ATOM      7  C   UNL     1       0.052  -3.232   1.459  0.00  0.00    +0.196 A 
ATOM      8  N   UNL     1       0.054  -3.300   2.777  0.00  0.00    -0.218 NA
ATOM      9  C   UNL     1       0.072  -4.466   3.406  0.00  0.00    +0.115 A 
ATOM     10  C   UNL     1       0.090  -5.624   2.672  0.00  0.00    +0.080 A 
ATOM     11  S   UNL     1       0.072  -4.962   1.011  0.00  0.00    -0.056 S 
ENDROOT
BRANCH   9  12
ATOM     12  C   UNL     1       0.074  -4.518   4.883  0.00  0.00    +0.155 A 
ATOM     13  C   UNL     1       0.052  -3.437   5.700  0.00  0.00    +0.060 A 
ATOM     14  C   UNL     1       0.063  -3.962   7.067  0.00  0.00    +0.021 A 
ATOM     15  C   UNL     1       0.052  -3.377   8.335  0.00  0.00    +0.011 A 
ATOM     16  C   UNL     1       0.070  -4.171   9.448  0.00  0.00    +0.001 A 
ATOM     17  C   UNL     1       0.098  -5.553   9.324  0.00  0.00    +0.004 A 
ATOM     18  C   UNL     1       0.110  -6.149   8.081  0.00  0.00    +0.047 A 
ATOM     19  C   UNL     1       0.092  -5.362   6.937  0.00  0.00    +0.136 A 
ATOM     20  O   UNL     1       0.092  -5.647   5.618  0.00  0.00    -0.453 OA
ENDBRANCH   9  12
BRANCH   4  21
ATOM     21  N   UNL     1       0.039  -3.237  -1.548  0.00  0.00    -0.267 N 
ATOM     22  C   UNL     1       0.031  -3.092  -2.888  0.00  0.00    +0.242 C 
ATOM     23  O   UNL     1       0.015  -1.979  -3.380  0.00  0.00    -0.270 OA
ATOM     24  H   UNL     1       0.052  -4.124  -1.156  0.00  0.00    +0.157 HD
BRANCH  22  25
ATOM     25  C   UNL     1       0.043  -4.272  -3.751  0.00  0.00    +0.068 C 
ATOM     26  C   UNL     1       0.036  -4.128  -5.093  0.00  0.00    +0.013 C 
BRANCH  26  27
ATOM     27  C   UNL     1       0.048  -5.314  -5.961  0.00  0.00    -0.021 A 
ATOM     28  C   UNL     1       0.062  -6.595  -5.397  0.00  0.00    +0.012 A 
ATOM     29  C   UNL     1       0.072  -7.705  -6.213  0.00  0.00    +0.050 A 
ATOM     30  C   UNL     1       0.070  -7.559  -7.594  0.00  0.00    +0.166 A 
ATOM     31  C   UNL     1       0.057  -6.285  -8.163  0.00  0.00    +0.167 A 
ATOM     32  C   UNL     1       0.040  -5.167  -7.352  0.00  0.00    +0.057 A 
ATOM     33  O   UNL     1       0.057  -6.415  -9.522  0.00  0.00    -0.453 OA
ATOM     34  C   UNL     1       0.484  -7.766  -9.778  0.00  0.00    +0.466 C 
ATOM     35  O   UNL     1       0.078  -8.483  -8.597  0.00  0.00    -0.453 OA
ENDBRANCH  26  27
ENDBRANCH  22  25
ENDBRANCH   4  21
TORSDOF 4
