REMARK  Name = ZINC31894523
REMARK  1 active torsions:
REMARK  status: ('A' for Active; 'I' for Inactive)
REMARK    1  A    between atoms: C_9  and  C_12
REMARK                            x       y       z     vdW  Elec       q    Type
REMARK                         _______ _______ _______ _____ _____    ______ ____
ROOT
ATOM      1  C   UNL     1       3.665  -1.954  -0.412  0.00  0.00    +0.006 C 
ATOM      2  C   UNL     1       3.688  -0.464  -0.037  0.00  0.00    +0.044 C 
ATOM      3  C   UNL     1       2.282   0.034  -0.020  0.00  0.00    +0.015 A 
ATOM      4  C   UNL     1       1.139  -0.698  -0.013  0.00  0.00    +0.068 A 
ATOM      5  N   UNL     1       0.002  -0.004   0.002  0.00  0.00    -0.229 NA
ATOM      6  C   UNL     1      -0.016   1.313   0.009  0.00  0.00    +0.156 A 
ATOM      7  S   UNL     1       1.679   1.701  -0.005  0.00  0.00    -0.057 S 
ATOM      8  N   UNL     1      -1.105   2.170   0.019  0.00  0.00    -0.338 N 
ATOM      9  C   UNL     1       1.202  -2.221  -0.019  0.00  0.00    +0.151 C 
ATOM     10  C   UNL     1       2.597  -2.658   0.430  0.00  0.00    +0.021 C 
ATOM     11  H   UNL     1      -0.949   3.259   0.025  0.00  0.00    +0.144 HD
ATOM     12  H   UNL     1      -2.127   1.761   0.022  0.00  0.00    +0.144 HD
ENDROOT
BRANCH   9  13
ATOM     13  C   UNL     1       0.170  -2.773   0.930  0.00  0.00    +0.365 C 
ATOM     14  O   UNL     1       0.514  -3.459   1.864  0.00  0.00    -0.246 OA
ATOM     15  O   UNL     1      -1.131  -2.503   0.739  0.00  0.00    -0.246 OA
ENDBRANCH   9  13
TORSDOF 1
