REMARK  Name = ZINC57641849
REMARK  12 active torsions:
REMARK  status: ('A' for Active; 'I' for Inactive)
REMARK    1  A    between atoms: C_1  and  C_2
REMARK    2  A    between atoms: C_2  and  C_3
REMARK    3  A    between atoms: C_3  and  C_5
REMARK    4  A    between atoms: C_3  and  N_15
REMARK    5  A    between atoms: N_9  and  C_10
REMARK    6  A    between atoms: N_15  and  C_16
REMARK    7  A    between atoms: N_15  and  C_24
REMARK    8  A    between atoms: C_16  and  C_17
REMARK    9  A    between atoms: C_20  and  C_23
REMARK   10  A    between atoms: C_24  and  C_25
REMARK   11  A    between atoms: C_28  and  C_38
REMARK   12  A    between atoms: C_30  and  C_37
REMARK                            x       y       z     vdW  Elec       q    Type
REMARK                         _______ _______ _______ _____ _____    ______ ____
ROOT
ATOM      1  N   UNL     1      -0.235  -0.566  -2.499  0.00  0.00    -0.284 NA
ENDROOT
BRANCH   1   2
ATOM      2  C   UNL     1       0.701  -0.565  -1.367  0.00  0.00    +0.127 C 
BRANCH   2   3
ATOM      3  C   UNL     1       0.903  -1.978  -0.882  0.00  0.00    +0.169 A 
ATOM      4  N   UNL     1       0.001  -2.926  -0.837  0.00  0.00    -0.112 NA
ATOM      5  N   UNL     1       0.560  -3.986  -0.364  0.00  0.00    -0.023 NA
ATOM      6  N   UNL     1       1.797  -3.738  -0.106  0.00  0.00    -0.044 NA
ATOM      7  N   UNL     1       2.049  -2.511  -0.418  0.00  0.00    -0.225 N 
BRANCH   7   8
ATOM      8  C   UNL     1       3.337  -1.827  -0.287  0.00  0.00    +0.111 C 
ATOM      9  C   UNL     1       4.420  -2.583  -1.084  0.00  0.00    +0.027 C 
ATOM     10  C   UNL     1       5.692  -2.458  -0.208  0.00  0.00    +0.002 C 
ATOM     11  C   UNL     1       5.132  -2.591   1.230  0.00  0.00    +0.002 C 
ATOM     12  C   UNL     1       3.790  -1.832   1.184  0.00  0.00    +0.027 C 
ENDBRANCH   7   8
ENDBRANCH   2   3
BRANCH   2  14
ATOM     13  C   UNL     1      -0.018   1.734  -0.705  0.00  0.00    +0.006 C 
ATOM     14  C   UNL     1       0.128   0.286  -0.232  0.00  0.00    +0.023 C 
ENDBRANCH   2  14
ENDBRANCH   1   2
BRANCH   1  15
ATOM     15  C   UNL     1       0.351  -1.238  -3.667  0.00  0.00    +0.120 C 
BRANCH  15  16
ATOM     16  C   UNL     1       1.523  -0.437  -4.171  0.00  0.00    -0.033 A 
ATOM     17  C   UNL     1       1.329   0.550  -5.120  0.00  0.00    +0.005 A 
ATOM     18  C   UNL     1       2.405   1.285  -5.583  0.00  0.00    +0.003 A 
ATOM     19  C   UNL     1       3.674   1.033  -5.097  0.00  0.00    -0.050 A 
ATOM     20  C   UNL     1       3.868   0.047  -4.148  0.00  0.00    +0.003 A 
ATOM     21  C   UNL     1       2.792  -0.685  -3.682  0.00  0.00    +0.005 A 
ATOM     22  C   UNL     1       4.847   1.833  -5.602  0.00  0.00    +0.044 C 
ENDBRANCH  15  16
ENDBRANCH   1  15
BRANCH   1  23
ATOM     23  C   UNL     1      -1.515  -1.182  -2.124  0.00  0.00    +0.126 C 
BRANCH  23  24
ATOM     24  C   UNL     1      -2.567  -0.811  -3.137  0.00  0.00    +0.032 A 
ATOM     25  C   UNL     1      -2.833  -1.647  -4.171  0.00  0.00    +0.020 A 
ATOM     26  C   UNL     1      -3.862  -1.257  -5.138  0.00  0.00    +0.002 A 
ATOM     27  C   UNL     1      -4.181  -2.078  -6.225  0.00  0.00    -0.041 A 
ATOM     28  C   UNL     1      -5.146  -1.686  -7.109  0.00  0.00    +0.007 A 
ATOM     29  C   UNL     1      -5.813  -0.480  -6.938  0.00  0.00    -0.048 A 
ATOM     30  C   UNL     1      -5.515   0.344  -5.875  0.00  0.00    +0.029 A 
ATOM     31  C   UNL     1      -4.537  -0.035  -4.961  0.00  0.00    +0.050 A 
ATOM     32  N   UNL     1      -4.219   0.770  -3.888  0.00  0.00    -0.322 N 
ATOM     33  H   UNL     1      -4.685   1.612  -3.767  0.00  0.00    +0.169 HD
ATOM     34  C   UNL     1      -3.277   0.401  -3.002  0.00  0.00    +0.254 A 
ATOM     35  O   UNL     1      -3.025   1.135  -2.062  0.00  0.00    -0.268 OA
ATOM     36  C   UNL     1      -6.873  -0.069  -7.926  0.00  0.00    +0.044 C 
ATOM     37  C   UNL     1      -3.462  -3.388  -6.421  0.00  0.00    +0.044 C 
ENDBRANCH  23  24
ENDBRANCH   1  23
TORSDOF 8
