REMARK  Name = ZINC20548491
REMARK  9 active torsions:
REMARK  status: ('A' for Active; 'I' for Inactive)
REMARK    1  A    between atoms: C_1  and  O_2
REMARK    2  A    between atoms: O_2  and  C_3
REMARK    3  A    between atoms: C_3  and  C_4
REMARK    4  A    between atoms: C_4  and  C_5
REMARK    5  A    between atoms: C_5  and  N_6
REMARK    6  A    between atoms: C_11  and  C_29
REMARK    7  A    between atoms: C_29  and  C_30
REMARK    8  A    between atoms: C_33  and  O_37
REMARK    9  A    between atoms: C_34  and  O_36
REMARK                            x       y       z     vdW  Elec       q    Type
REMARK                         _______ _______ _______ _____ _____    ______ ____
ROOT
ATOM      1  N   UNL     1      -2.408  -4.226   0.002  0.00  0.00    -0.241 N 
ATOM      2  C   UNL     1      -2.342  -4.973  -1.140  0.00  0.00    +0.227 C 
ATOM      3  O   UNL     1      -2.108  -4.576  -2.261  0.00  0.00    -0.275 OA
ATOM      4  C   UNL     1      -2.622  -6.390  -0.718  0.00  0.00    +0.107 C 
ATOM      5  C   UNL     1      -1.772  -7.526  -1.301  0.00  0.00    +0.072 C 
ATOM      6  N   UNL     1      -1.677  -8.489  -0.154  0.00  0.00    -0.295 NA
ATOM      7  C   UNL     1      -1.811  -7.695   1.107  0.00  0.00    +0.136 C 
ATOM      8  C   UNL     1      -1.890  -6.288   0.681  0.00  0.00    +0.122 C 
ATOM      9  C   UNL     1      -2.326  -4.989   1.141  0.00  0.00    +0.228 C 
ATOM     10  O   UNL     1      -2.568  -4.650   2.279  0.00  0.00    -0.275 OA
ATOM     11  C   UNL     1      -3.028  -8.158   1.864  0.00  0.00    +0.005 A 
ATOM     12  C   UNL     1      -4.376  -8.148   1.580  0.00  0.00    +0.008 A 
ATOM     13  C   UNL     1      -5.280  -8.654   2.496  0.00  0.00    +0.002 A 
ATOM     14  C   UNL     1      -4.828  -9.170   3.697  0.00  0.00    +0.022 A 
ATOM     15  C   UNL     1      -3.478  -9.183   3.985  0.00  0.00    +0.062 A 
ATOM     16  C   UNL     1      -2.561  -8.675   3.067  0.00  0.00    +0.057 A 
ATOM     17  N   UNL     1      -1.169  -8.578   3.126  0.00  0.00    -0.282 N 
ATOM     18  C   UNL     1      -0.651  -8.016   2.019  0.00  0.00    +0.243 C 
ATOM     19  O   UNL     1       0.523  -7.808   1.796  0.00  0.00    -0.273 OA
ATOM     20 CL   UNL     1      -2.922  -9.834   5.495  0.00  0.00    -0.082 Cl
ATOM     21  H   UNL     1      -2.395  -9.195  -0.214  0.00  0.00    +0.124 HD
ATOM     22  H   UNL     1      -0.637  -8.880   3.879  0.00  0.00    +0.155 HD
ENDROOT
BRANCH   1  23
ATOM     23  C   UNL     1      -2.543  -2.768   0.011  0.00  0.00    +0.118 C 
BRANCH  23  24
ATOM     24  C   UNL     1      -1.154  -2.126   0.002  0.00  0.00    +0.047 C 
BRANCH  24  25
ATOM     25  C   UNL     1      -1.295  -0.603   0.011  0.00  0.00    +0.161 C 
BRANCH  25  27
ATOM     26  C   UNL     1      -0.017   1.425   0.010  0.00  0.00    +0.193 C 
ATOM     27  O   UNL     1       0.002  -0.004   0.002  0.00  0.00    -0.383 OA
ENDBRANCH  25  27
ENDBRANCH  24  25
ENDBRANCH  23  24
ENDBRANCH   1  23
BRANCH   5  28
ATOM     28  C   UNL     1      -0.386  -7.016  -1.702  0.00  0.00    +0.054 C 
BRANCH  28  29
ATOM     29  C   UNL     1       0.379  -8.122  -2.382  0.00  0.00    -0.042 A 
ATOM     30  C   UNL     1       1.160  -8.982  -1.632  0.00  0.00    +0.007 A 
ATOM     31  C   UNL     1       1.864  -9.998  -2.251  0.00  0.00    +0.049 A 
ATOM     32  C   UNL     1       1.787 -10.158  -3.625  0.00  0.00    +0.158 A 
ATOM     33  C   UNL     1       1.000  -9.293  -4.379  0.00  0.00    +0.158 A 
ATOM     34  C   UNL     1       0.293  -8.279  -3.752  0.00  0.00    +0.052 A 
BRANCH  33  35
ATOM     35  O   UNL     1       0.921  -9.445  -5.729  0.00  0.00    -0.503 OA
ATOM     36  H   UNL     1       0.207 -10.029  -6.017  0.00  0.00    +0.292 HD
ENDBRANCH  33  35
BRANCH  32  37
ATOM     37  O   UNL     1       2.479 -11.157  -4.235  0.00  0.00    -0.503 OA
ATOM     38  H   UNL     1       1.988 -11.986  -4.310  0.00  0.00    +0.292 HD
ENDBRANCH  32  37
ENDBRANCH  28  29
ENDBRANCH   5  28
TORSDOF 8
