REMARK  Name = ZINC00930923
REMARK  7 active torsions:
REMARK  status: ('A' for Active; 'I' for Inactive)
REMARK    1  A    between atoms: C_9  and  C_12
REMARK    2  A    between atoms: N_14  and  C_15
REMARK    3  A    between atoms: N_14  and  C_22
REMARK    4  A    between atoms: C_22  and  C_24
REMARK    5  A    between atoms: C_22  and  C_31
REMARK    6  A    between atoms: C_27  and  O_30
REMARK    7  A    between atoms: N_33  and  C_34
REMARK                            x       y       z     vdW  Elec       q    Type
REMARK                         _______ _______ _______ _____ _____    ______ ____
ROOT
ATOM      1  C   UNL     1      -0.952   7.460   0.217  0.00  0.00    +0.265 C 
ATOM      2  O   UNL     1      -0.003   7.997   0.748  0.00  0.00    -0.271 OA
ATOM      3  N   UNL     1      -2.056   8.177  -0.072  0.00  0.00    -0.252 N 
ENDROOT
BRANCH   1  12
ATOM      4  C   UNL     1       1.382   1.663  -0.894  0.00  0.00    +0.004 A 
ATOM      5  C   UNL     1       1.893   2.156   0.292  0.00  0.00    +0.004 A 
ATOM      6  C   UNL     1       1.520   3.408   0.742  0.00  0.00    +0.049 A 
ATOM      7  C   UNL     1       0.630   4.174   0.003  0.00  0.00    +0.163 A 
ATOM      8  C   UNL     1       0.114   3.678  -1.188  0.00  0.00    +0.162 A 
ATOM      9  C   UNL     1       0.498   2.423  -1.636  0.00  0.00    +0.049 A 
ATOM     10  O   UNL     1      -0.763   4.412  -1.926  0.00  0.00    -0.484 OA
ATOM     11  C   UNL     1      -0.828   5.813  -1.643  0.00  0.00    +0.283 C 
ATOM     12  C   UNL     1      -0.897   5.993  -0.120  0.00  0.00    +0.296 C 
ATOM     13  O   UNL     1       0.277   5.409   0.454  0.00  0.00    -0.472 OA
ENDBRANCH   1  12
BRANCH   3  14
ATOM     14  C   UNL     1      -3.183   7.543  -0.609  0.00  0.00    +0.038 A 
ATOM     15  C   UNL     1      -3.938   6.683   0.177  0.00  0.00    +0.026 A 
ATOM     16  C   UNL     1      -5.051   6.061  -0.353  0.00  0.00    +0.040 A 
ATOM     17  C   UNL     1      -5.409   6.287  -1.672  0.00  0.00    +0.124 A 
ATOM     18  C   UNL     1      -4.654   7.139  -2.460  0.00  0.00    +0.040 A 
ATOM     19  C   UNL     1      -3.543   7.767  -1.931  0.00  0.00    +0.026 A 
ATOM     20  F   UNL     1      -6.495   5.673  -2.191  0.00  0.00    -0.205 F 
ENDBRANCH   3  14
BRANCH   3  21
ATOM     21  C   UNL     1      -2.078   9.621   0.176  0.00  0.00    +0.197 C 
BRANCH  21  22
ATOM     22  C   UNL     1      -3.362  10.203  -0.355  0.00  0.00    -0.018 A 
ATOM     23  C   UNL     1      -4.577   9.746   0.123  0.00  0.00    +0.009 A 
ATOM     24  C   UNL     1      -5.756  10.282  -0.358  0.00  0.00    +0.046 A 
ATOM     25  C   UNL     1      -5.721  11.271  -1.330  0.00  0.00    +0.117 A 
ATOM     26  C   UNL     1      -4.502  11.724  -1.812  0.00  0.00    +0.046 A 
ATOM     27  C   UNL     1      -3.325  11.189  -1.324  0.00  0.00    +0.009 A 
BRANCH  25  28
ATOM     28  O   UNL     1      -6.879  11.796  -1.809  0.00  0.00    -0.507 OA
ATOM     29  H   UNL     1      -7.235  11.329  -2.578  0.00  0.00    +0.292 HD
ENDBRANCH  25  28
ENDBRANCH  21  22
BRANCH  21  30
ATOM     30  C   UNL     1      -1.985   9.878   1.658  0.00  0.00    +0.239 C 
ATOM     31  O   UNL     1      -1.908   8.946   2.431  0.00  0.00    -0.273 OA
ATOM     32  N   UNL     1      -1.987  11.142   2.124  0.00  0.00    -0.311 N 
ATOM     33  H   UNL     1      -2.048  11.887   1.506  0.00  0.00    +0.149 HD
BRANCH  32  34
ATOM     34  C   UNL     1      -1.897  11.392   3.565  0.00  0.00    +0.073 C 
ATOM     35  C   UNL     1      -3.294  11.317   4.184  0.00  0.00    +0.022 C 
ATOM     36  C   UNL     1      -3.200  11.577   5.689  0.00  0.00    +0.002 C 
ATOM     37  C   UNL     1      -2.609  12.968   5.930  0.00  0.00    +0.000 C 
ATOM     38  C   UNL     1      -1.212  13.043   5.311  0.00  0.00    +0.002 C 
ATOM     39  C   UNL     1      -1.306  12.782   3.806  0.00  0.00    +0.022 C 
ENDBRANCH  32  34
ENDBRANCH  21  30
ENDBRANCH   3  21
TORSDOF 7
