REMARK  Name = ZINC65347594
REMARK  2 active torsions:
REMARK  status: ('A' for Active; 'I' for Inactive)
REMARK    1  A    between atoms: C_6  and  C_7
REMARK    2  A    between atoms: C_12  and  C_13
REMARK                            x       y       z     vdW  Elec       q    Type
REMARK                         _______ _______ _______ _____ _____    ______ ____
ROOT
ATOM      1  C   UNL     1      -1.270  -0.765   0.011  0.00  0.00    +0.012 A 
ATOM      2  C   UNL     1      -2.131  -0.688  -1.060  0.00  0.00    +0.095 A 
ATOM      3  N   UNL     1      -3.295  -1.379  -1.062  0.00  0.00    -0.328 N 
ATOM      4  C   UNL     1      -3.647  -2.158  -0.024  0.00  0.00    +0.250 A 
ATOM      5  C   UNL     1      -2.804  -2.275   1.101  0.00  0.00    +0.085 A 
ATOM      6  C   UNL     1      -1.607  -1.583   1.122  0.00  0.00    +0.077 A 
ATOM      7  O   UNL     1      -4.703  -2.768  -0.055  0.00  0.00    -0.268 OA
ATOM      8  H   UNL     1      -3.888  -1.310  -1.827  0.00  0.00    +0.168 HD
ENDROOT
BRANCH   1  14
ATOM      9  C   UNL     1      -0.017   1.390   0.010  0.00  0.00    +0.011 A 
ATOM     10  C   UNL     1       1.170   2.095   0.002  0.00  0.00    +0.042 A 
ATOM     11  C   UNL     1       2.379   1.420  -0.013  0.00  0.00    +0.158 A 
ATOM     12  C   UNL     1       2.404   0.033  -0.022  0.00  0.00    +0.159 A 
ATOM     13  C   UNL     1       1.221  -0.681  -0.014  0.00  0.00    +0.050 A 
ATOM     14  C   UNL     1       0.002  -0.004   0.002  0.00  0.00    -0.013 A 
ATOM     15  F   UNL     1       3.586  -0.621  -0.037  0.00  0.00    -0.202 F 
ATOM     16  F   UNL     1       3.538   2.115  -0.021  0.00  0.00    -0.202 F 
ENDBRANCH   1  14
BRANCH   6  17
ATOM     17  C   UNL     1      -0.696  -1.689   2.285  0.00  0.00    +0.387 C 
ATOM     18  O   UNL     1      -0.997  -2.396   3.235  0.00  0.00    -0.241 OA
ATOM     19  O   UNL     1       0.357  -1.069   2.294  0.00  0.00    -0.241 OA
ENDBRANCH   6  17
TORSDOF 2
