REMARK  Name = ZINC01192195
REMARK  10 active torsions:
REMARK  status: ('A' for Active; 'I' for Inactive)
REMARK    1  A    between atoms: C_1  and  C_2
REMARK    2  A    between atoms: C_5  and  N_8
REMARK    3  A    between atoms: C_10  and  C_14
REMARK    4  A    between atoms: C_11  and  C_13
REMARK    5  A    between atoms: C_14  and  C_16
REMARK    6  A    between atoms: C_14  and  C_25
REMARK    7  A    between atoms: C_20  and  N_22
REMARK    8  A    between atoms: C_27  and  C_39
REMARK    9  A    between atoms: N_29  and  C_32
REMARK   10  A    between atoms: C_35  and  C_38
REMARK                            x       y       z     vdW  Elec       q    Type
REMARK                         _______ _______ _______ _____ _____    ______ ____
ROOT
ATOM      1  C   UNL     1       0.108  -7.541   1.475  0.00  0.00    +0.074 C 
ENDROOT
BRANCH   1   4
ATOM      2  N   UNL     1      -0.327  -4.567  -0.664  0.00  0.00    -0.219 N 
ATOM      3  C   UNL     1      -0.101  -5.118   0.546  0.00  0.00    +0.276 A 
ATOM      4  C   UNL     1      -0.106  -6.523   0.384  0.00  0.00    +0.047 A 
ATOM      5  C   UNL     1      -0.334  -6.793  -0.917  0.00  0.00    +0.039 A 
ATOM      6  N   UNL     1      -0.479  -5.611  -1.585  0.00  0.00    -0.294 N 
ATOM      7  C   UNL     1      -0.418  -8.168  -1.530  0.00  0.00    +0.065 C 
ATOM      8  O   UNL     1       0.075  -4.515   1.590  0.00  0.00    -0.266 OA
ATOM      9  H   UNL     1      -0.655  -5.511  -2.534  0.00  0.00    +0.187 HD
BRANCH   2  14
ATOM     10  C   UNL     1      -0.635   0.981  -1.809  0.00  0.00    +0.044 C 
ATOM     11  C   UNL     1      -0.553  -0.493  -1.505  0.00  0.00    -0.050 A 
ATOM     12  C   UNL     1      -0.716  -1.417  -2.520  0.00  0.00    +0.005 A 
ATOM     13  C   UNL     1      -0.642  -2.769  -2.245  0.00  0.00    +0.028 A 
ATOM     14  C   UNL     1      -0.403  -3.199  -0.946  0.00  0.00    +0.067 A 
ATOM     15  C   UNL     1      -0.238  -2.268   0.072  0.00  0.00    +0.028 A 
ATOM     16  C   UNL     1      -0.308  -0.918  -0.212  0.00  0.00    +0.005 A 
ENDBRANCH   2  14
ENDBRANCH   1   4
BRANCH   1  17
ATOM     17  C   UNL     1       1.404  -7.222   2.223  0.00  0.00    +0.135 C 
ATOM     18  C   UNL     1       1.671  -8.260   3.293  0.00  0.00    +0.047 C 
ATOM     19  N   UNL     1       2.777  -8.825   3.001  0.00  0.00    -0.181 NA
ATOM     20  N   UNL     1       3.358  -8.324   1.841  0.00  0.00    -0.160 N 
ATOM     21  C   UNL     1       2.599  -7.345   1.297  0.00  0.00    +0.249 C 
ATOM     22  O   UNL     1       2.822  -6.706   0.291  0.00  0.00    -0.273 OA
ATOM     23  C   UNL     1       0.794  -8.569   4.479  0.00  0.00    +0.063 C 
BRANCH  20  24
ATOM     24  C   UNL     1       4.572  -8.772   1.306  0.00  0.00    +0.060 A 
ATOM     25  C   UNL     1       5.072  -8.202   0.142  0.00  0.00    +0.026 A 
ATOM     26  C   UNL     1       6.270  -8.647  -0.383  0.00  0.00    +0.005 A 
ATOM     27  C   UNL     1       6.970  -9.659   0.248  0.00  0.00    -0.050 A 
ATOM     28  C   UNL     1       6.474 -10.229   1.406  0.00  0.00    +0.005 A 
ATOM     29  C   UNL     1       5.280  -9.784   1.940  0.00  0.00    +0.026 A 
ATOM     30  C   UNL     1       8.276 -10.142  -0.329  0.00  0.00    +0.044 C 
ENDBRANCH  20  24
ENDBRANCH   1  17
BRANCH   1  31
ATOM     31  C   UNL     1      -1.052  -7.496   2.437  0.00  0.00    -0.036 A 
ATOM     32  C   UNL     1      -1.223  -6.401   3.263  0.00  0.00    +0.004 A 
ATOM     33  C   UNL     1      -2.286  -6.360   4.145  0.00  0.00    +0.003 A 
ATOM     34  C   UNL     1      -3.179  -7.415   4.201  0.00  0.00    +0.033 A 
ATOM     35  C   UNL     1      -3.008  -8.509   3.375  0.00  0.00    +0.126 A 
ATOM     36  C   UNL     1      -1.947  -8.548   2.489  0.00  0.00    +0.037 A 
BRANCH  35  37
ATOM     37  N   UNL     1      -3.963  -9.639   3.435  0.00  0.00    +0.056 N 
ATOM     38  O   UNL     1      -4.892  -9.604   4.207  0.00  0.00    -0.126 OA
ATOM     39  O   UNL     1      -3.813 -10.596   2.712  0.00  0.00    -0.126 OA
ENDBRANCH  35  37
ENDBRANCH   1  31
TORSDOF 6
