REMARK  Name = ZINC09613551
REMARK  9 active torsions:
REMARK  status: ('A' for Active; 'I' for Inactive)
REMARK    1  A    between atoms: C_1  and  C_2
REMARK    2  A    between atoms: C_2  and  N_3
REMARK    3  A    between atoms: N_3  and  C_4
REMARK    4  A    between atoms: N_3  and  S_6
REMARK    5  A    between atoms: C_4  and  C_5
REMARK    6  A    between atoms: S_6  and  C_9
REMARK    7  A    between atoms: C_13  and  N_15
REMARK    8  A    between atoms: C_25  and  N_26
REMARK    9  A    between atoms: C_29  and  C_33
REMARK                            x       y       z     vdW  Elec       q    Type
REMARK                         _______ _______ _______ _____ _____    ______ ____
ROOT
ATOM      1  N   UNL     1       1.403   2.263  -6.298  0.00  0.00    -0.202 N 
ATOM      2  C   UNL     1       2.506   1.499  -6.360  0.00  0.00    +0.258 C 
ATOM      3  O   UNL     1       2.611   0.538  -5.622  0.00  0.00    -0.269 OA
ATOM      4  C   UNL     1       3.588   1.804  -7.305  0.00  0.00    +0.046 A 
ATOM      5  C   UNL     1       4.736   1.014  -7.376  0.00  0.00    +0.014 A 
ATOM      6  C   UNL     1       5.729   1.333  -8.277  0.00  0.00    +0.001 A 
ATOM      7  C   UNL     1       5.600   2.431  -9.115  0.00  0.00    +0.001 A 
ATOM      8  C   UNL     1       4.472   3.225  -9.061  0.00  0.00    +0.009 A 
ATOM      9  C   UNL     1       3.460   2.919  -8.159  0.00  0.00    +0.000 A 
ATOM     10  C   UNL     1       2.232   3.736  -8.061  0.00  0.00    +0.059 C 
ATOM     11  C   UNL     1       2.047   4.837  -8.867  0.00  0.00    +0.087 C 
ATOM     12  C   UNL     1       1.214   3.336  -7.083  0.00  0.00    +0.259 C 
ATOM     13  O   UNL     1       0.189   3.984  -6.981  0.00  0.00    -0.269 OA
ENDROOT
BRANCH  11  14
ATOM     14  N   UNL     1       0.991   5.668  -8.652  0.00  0.00    -0.306 N 
ATOM     15  C   UNL     1       0.736   6.713  -9.537  0.00  0.00    +0.100 A 
ATOM     16  C   UNL     1       1.561   6.898 -10.641  0.00  0.00    +0.045 A 
ATOM     17  C   UNL     1       1.296   7.940 -11.511  0.00  0.00    -0.046 A 
ATOM     18  C   UNL     1       0.210   8.764 -11.247  0.00  0.00    +0.021 A 
ATOM     19  C   UNL     1      -0.567   8.522 -10.132  0.00  0.00    +0.084 A 
ATOM     20  N   UNL     1      -0.293   7.518  -9.322  0.00  0.00    -0.350 N 
ATOM     21  C   UNL     1       2.166   8.175 -12.719  0.00  0.00    +0.044 C 
ATOM     22  H   UNL     1       0.416   5.532  -7.883  0.00  0.00    +0.153 HD
ATOM     23  H   UNL     1      -0.858   7.367  -8.547  0.00  0.00    +0.167 HD
ENDBRANCH  11  14
BRANCH   1  28
ATOM     24  C   UNL     1      -1.869   1.323  -4.905  0.00  0.00    +0.107 A 
ATOM     25  C   UNL     1      -1.569   1.252  -3.557  0.00  0.00    +0.028 A 
ATOM     26  C   UNL     1      -0.285   1.516  -3.116  0.00  0.00    +0.004 A 
ATOM     27  C   UNL     1       0.702   1.851  -4.022  0.00  0.00    +0.024 A 
ATOM     28  C   UNL     1       0.404   1.923  -5.376  0.00  0.00    +0.046 A 
ATOM     29  C   UNL     1      -0.885   1.652  -5.816  0.00  0.00    +0.052 A 
BRANCH  24  30
ATOM     30  S   UNL     1      -3.506   0.986  -5.461  0.00  0.00    +0.061 S 
ATOM     31  O   UNL     1      -3.655   1.646  -6.710  0.00  0.00    -0.153 OA
ATOM     32  O   UNL     1      -4.369   1.235  -4.360  0.00  0.00    -0.153 OA
BRANCH  30  33
ATOM     33  N   UNL     1      -3.593  -0.639  -5.771  0.00  0.00    -0.177 NA
BRANCH  33  35
ATOM     34  C   UNL     1      -2.748  -2.135  -4.031  0.00  0.00    +0.022 C 
ATOM     35  C   UNL     1      -3.995  -1.567  -4.711  0.00  0.00    +0.106 C 
ENDBRANCH  33  35
BRANCH  33  36
ATOM     36  C   UNL     1      -3.268  -1.148  -7.106  0.00  0.00    +0.106 C 
ATOM     37  C   UNL     1      -4.553  -1.294  -7.923  0.00  0.00    +0.022 C 
ENDBRANCH  33  36
ENDBRANCH  30  33
ENDBRANCH  24  30
ENDBRANCH   1  28
TORSDOF 6
