REMARK  Name = ZINC10811920
REMARK  5 active torsions:
REMARK  status: ('A' for Active; 'I' for Inactive)
REMARK    1  A    between atoms: C_7  and  N_13
REMARK    2  A    between atoms: C_8  and  C_10
REMARK    3  A    between atoms: C_14  and  C_16
REMARK    4  A    between atoms: N_22  and  S_23
REMARK    5  A    between atoms: S_23  and  C_26
REMARK                            x       y       z     vdW  Elec       q    Type
REMARK                         _______ _______ _______ _____ _____    ______ ____
ROOT
ATOM      1  N   UNL     1      -2.546   0.062  -1.407  0.00  0.00    -0.281 N 
ATOM      2  C   UNL     1      -2.785   1.121  -0.609  0.00  0.00    +0.236 C 
ATOM      3  O   UNL     1      -1.880   1.617   0.029  0.00  0.00    -0.274 OA
ATOM      4  H   UNL     1      -3.251  -0.287  -1.974  0.00  0.00    +0.155 HD
ENDROOT
BRANCH   1  11
ATOM      5  C   UNL     1       0.750  -0.340   1.808  0.00  0.00    +0.001 A 
ATOM      6  C   UNL     1       1.857  -1.022   1.322  0.00  0.00    +0.004 A 
ATOM      7  C   UNL     1       1.883  -1.490   0.026  0.00  0.00    +0.047 A 
ATOM      8  C   UNL     1       0.790  -1.280  -0.807  0.00  0.00    +0.138 A 
ATOM      9  C   UNL     1      -0.328  -0.589  -0.309  0.00  0.00    +0.042 A 
ATOM     10  C   UNL     1      -0.335  -0.122   1.006  0.00  0.00    +0.013 A 
ATOM     11  C   UNL     1      -1.288  -0.530  -1.418  0.00  0.00    +0.092 A 
ATOM     12  C   UNL     1      -0.693  -1.181  -2.463  0.00  0.00    +0.211 A 
ATOM     13  O   UNL     1       0.532  -1.613  -2.087  0.00  0.00    -0.448 OA
BRANCH  12  14
ATOM     14  C   UNL     1      -1.286  -1.374  -3.785  0.00  0.00    +0.279 C 
ATOM     15  O   UNL     1      -2.433  -1.023  -3.995  0.00  0.00    -0.267 OA
ATOM     16  N   UNL     1      -0.566  -1.945  -4.771  0.00  0.00    -0.323 N 
ATOM     17  H   UNL     1       0.346  -2.229  -4.603  0.00  0.00    +0.145 HD
ATOM     18  H   UNL     1      -0.960  -2.073  -5.648  0.00  0.00    +0.145 HD
ENDBRANCH  12  14
ENDBRANCH   1  11
BRANCH   2  19
ATOM     19  C   UNL     1      -4.177   1.689  -0.507  0.00  0.00    +0.166 C 
ATOM     20  C   UNL     1      -4.684   1.553   0.932  0.00  0.00    +0.030 C 
ATOM     21  C   UNL     1      -6.037   2.258   1.060  0.00  0.00    +0.003 C 
ATOM     22  C   UNL     1      -5.874   3.746   0.740  0.00  0.00    +0.017 C 
ATOM     23  C   UNL     1      -5.383   3.903  -0.702  0.00  0.00    +0.110 C 
ATOM     24  N   UNL     1      -4.156   3.112  -0.872  0.00  0.00    -0.164 NA
BRANCH  24  25
ATOM     25  S   UNL     1      -2.777   3.811  -1.465  0.00  0.00    +0.068 S 
ATOM     26  O   UNL     1      -2.002   2.763  -2.031  0.00  0.00    -0.152 OA
ATOM     27  O   UNL     1      -3.186   4.947  -2.214  0.00  0.00    -0.152 OA
BRANCH  25  28
ATOM     28  C   UNL     1      -1.867   4.420  -0.084  0.00  0.00    +0.144 A 
ATOM     29  C   UNL     1      -0.829   3.848   0.573  0.00  0.00    +0.038 A 
ATOM     30  C   UNL     1      -0.262   4.516   1.642  0.00  0.00    +0.030 A 
ATOM     31  C   UNL     1      -0.762   5.725   2.002  0.00  0.00    +0.080 A 
ATOM     32  S   UNL     1      -2.069   5.954   0.807  0.00  0.00    -0.057 S 
ATOM     33 CL   UNL     1      -0.258   6.779   3.285  0.00  0.00    -0.076 Cl
ENDBRANCH  25  28
ENDBRANCH  24  25
ENDBRANCH   2  19
TORSDOF 5
