REMARK  Name = ZINC36609702
REMARK  12 active torsions:
REMARK  status: ('A' for Active; 'I' for Inactive)
REMARK    1  A    between atoms: C_1  and  C_2
REMARK    2  A    between atoms: C_2  and  C_3
REMARK    3  A    between atoms: C_2  and  C_4
REMARK    4  A    between atoms: C_2  and  N_5
REMARK    5  A    between atoms: C_6  and  C_8
REMARK    6  A    between atoms: C_8  and  C_10
REMARK    7  A    between atoms: C_8  and  N_18
REMARK    8  A    between atoms: C_13  and  O_16
REMARK    9  A    between atoms: O_16  and  C_17
REMARK   10  A    between atoms: N_18  and  C_19
REMARK   11  A    between atoms: C_25  and  C_27
REMARK   12  A    between atoms: C_28  and  C_29
REMARK                            x       y       z     vdW  Elec       q    Type
REMARK                         _______ _______ _______ _____ _____    ______ ____
ROOT
ATOM      1  C   UNL     1       2.889  -0.257  -2.697  0.00  0.00    +0.198 C 
ENDROOT
BRANCH   1   2
ATOM      2  C   UNL     1       2.377   0.526  -3.879  0.00  0.00    -0.018 A 
ATOM      3  C   UNL     1       2.870   1.793  -4.133  0.00  0.00    +0.009 A 
ATOM      4  C   UNL     1       2.403   2.513  -5.215  0.00  0.00    +0.046 A 
ATOM      5  C   UNL     1       1.438   1.965  -6.048  0.00  0.00    +0.120 A 
ATOM      6  C   UNL     1       0.946   0.693  -5.791  0.00  0.00    +0.046 A 
ATOM      7  C   UNL     1       1.420  -0.025  -4.711  0.00  0.00    +0.009 A 
BRANCH   5   8
ATOM      8  O   UNL     1       0.977   2.671  -7.112  0.00  0.00    -0.495 OA
ATOM      9  C   UNL     1      -0.016   2.044  -7.926  0.00  0.00    +0.277 C 
ENDBRANCH   5   8
ENDBRANCH   1   2
BRANCH   1  11
ATOM     10  N   UNL     1       1.259   0.724  -1.116  0.00  0.00    -0.309 N 
ATOM     11  C   UNL     1       2.547   0.473  -1.424  0.00  0.00    +0.239 C 
ATOM     12  O   UNL     1       3.431   0.836  -0.677  0.00  0.00    -0.273 OA
ATOM     13  H   UNL     1       0.552   0.434  -1.714  0.00  0.00    +0.149 HD
BRANCH  10  15
ATOM     14  C   UNL     1       1.579   2.818   0.106  0.00  0.00    +0.031 C 
ATOM     15  C   UNL     1       0.926   1.434   0.121  0.00  0.00    +0.026 C 
ATOM     16  C   UNL     1       1.446   0.639   1.321  0.00  0.00    +0.031 C 
ATOM     17  C   UNL     1      -0.592   1.587   0.229  0.00  0.00    +0.031 C 
ENDBRANCH  10  15
ENDBRANCH   1  11
BRANCH   1  18
ATOM     18  N   UNL     1       4.343  -0.404  -2.801  0.00  0.00    -0.245 N 
ATOM     19  C   UNL     1       5.005  -1.187  -1.927  0.00  0.00    +0.297 C 
ATOM     20  O   UNL     1       4.410  -1.700  -0.997  0.00  0.00    -0.260 OA
BRANCH  18  21
ATOM     21  C   UNL     1       5.043   0.269  -3.807  0.00  0.00    +0.038 A 
ATOM     22  C   UNL     1       5.933   1.283  -3.476  0.00  0.00    +0.023 A 
ATOM     23  C   UNL     1       6.624   1.945  -4.472  0.00  0.00    +0.002 A 
ATOM     24  C   UNL     1       6.430   1.600  -5.797  0.00  0.00    +0.000 A 
ATOM     25  C   UNL     1       5.544   0.591  -6.130  0.00  0.00    +0.002 A 
ATOM     26  C   UNL     1       4.855  -0.079  -5.138  0.00  0.00    +0.023 A 
ENDBRANCH  18  21
BRANCH  19  27
ATOM     27  C   UNL     1       6.409  -1.415  -2.091  0.00  0.00    -0.002 C 
ATOM     28  C   UNL     1       7.560  -1.602  -2.225  0.00  0.00    -0.057 C 
BRANCH  28  29
ATOM     29  C   UNL     1       8.964  -1.830  -2.390  0.00  0.00    +0.025 A 
ATOM     30  C   UNL     1       9.653  -1.237  -3.453  0.00  0.00    +0.017 A 
ATOM     31  C   UNL     1      11.005  -1.461  -3.604  0.00  0.00    +0.001 A 
ATOM     32  C   UNL     1      11.681  -2.271  -2.707  0.00  0.00    +0.000 A 
ATOM     33  C   UNL     1      11.006  -2.861  -1.653  0.00  0.00    +0.001 A 
ATOM     34  C   UNL     1       9.655  -2.642  -1.485  0.00  0.00    +0.017 A 
ENDBRANCH  28  29
ENDBRANCH  19  27
ENDBRANCH   1  18
TORSDOF 8
