REMARK  Name = ZINC01192407
REMARK  10 active torsions:
REMARK  status: ('A' for Active; 'I' for Inactive)
REMARK    1  A    between atoms: C_1  and  C_2
REMARK    2  A    between atoms: C_5  and  N_8
REMARK    3  A    between atoms: C_10  and  C_14
REMARK    4  A    between atoms: C_11  and  C_13
REMARK    5  A    between atoms: C_14  and  C_16
REMARK    6  A    between atoms: C_14  and  C_25
REMARK    7  A    between atoms: C_21  and  N_22
REMARK    8  A    between atoms: C_27  and  C_39
REMARK    9  A    between atoms: N_29  and  C_32
REMARK   10  A    between atoms: C_35  and  C_38
REMARK                            x       y       z     vdW  Elec       q    Type
REMARK                         _______ _______ _______ _____ _____    ______ ____
ROOT
ATOM      1  C   UNL     1      -0.084  -8.717   2.753  0.00  0.00    +0.076 C 
ENDROOT
BRANCH   1   4
ATOM      2  N   UNL     1      -2.322  -5.824   3.235  0.00  0.00    -0.219 N 
ATOM      3  C   UNL     1      -1.388  -6.675   3.705  0.00  0.00    +0.276 A 
ATOM      4  C   UNL     1      -1.080  -7.588   2.670  0.00  0.00    +0.048 A 
ATOM      5  C   UNL     1      -1.832  -7.273   1.596  0.00  0.00    +0.039 A 
ATOM      6  N   UNL     1      -2.609  -6.196   1.915  0.00  0.00    -0.294 N 
ATOM      7  C   UNL     1      -1.820  -7.990   0.271  0.00  0.00    +0.065 C 
ATOM      8  O   UNL     1      -0.897  -6.660   4.820  0.00  0.00    -0.266 OA
ATOM      9  H   UNL     1      -3.248  -5.762   1.327  0.00  0.00    +0.187 HD
BRANCH   2  14
ATOM     10  C   UNL     1      -4.683  -1.531   6.093  0.00  0.00    +0.044 C 
ATOM     11  C   UNL     1      -4.056  -2.671   5.333  0.00  0.00    -0.050 A 
ATOM     12  C   UNL     1      -4.432  -2.920   4.026  0.00  0.00    +0.005 A 
ATOM     13  C   UNL     1      -3.859  -3.964   3.327  0.00  0.00    +0.028 A 
ATOM     14  C   UNL     1      -2.904  -4.765   3.939  0.00  0.00    +0.067 A 
ATOM     15  C   UNL     1      -2.528  -4.513   5.252  0.00  0.00    +0.028 A 
ATOM     16  C   UNL     1      -3.100  -3.463   5.943  0.00  0.00    +0.005 A 
ENDBRANCH   2  14
ENDBRANCH   1   4
BRANCH   1  17
ATOM     17  C   UNL     1      -0.383  -9.571   3.986  0.00  0.00    +0.135 C 
ATOM     18  C   UNL     1      -1.759 -10.196   3.881  0.00  0.00    +0.047 C 
ATOM     19  N   UNL     1      -1.599 -11.462   3.883  0.00  0.00    -0.181 NA
ATOM     20  N   UNL     1      -0.265 -11.845   3.977  0.00  0.00    -0.160 N 
ATOM     21  C   UNL     1       0.549 -10.766   4.047  0.00  0.00    +0.249 C 
ATOM     22  O   UNL     1       1.759 -10.754   4.137  0.00  0.00    -0.273 OA
ATOM     23  C   UNL     1      -3.071  -9.460   3.792  0.00  0.00    +0.063 C 
BRANCH  20  24
ATOM     24  C   UNL     1       0.178 -13.172   3.999  0.00  0.00    +0.060 A 
ATOM     25  C   UNL     1       1.535 -13.452   4.102  0.00  0.00    +0.026 A 
ATOM     26  C   UNL     1       1.969 -14.763   4.124  0.00  0.00    +0.005 A 
ATOM     27  C   UNL     1       1.054 -15.797   4.042  0.00  0.00    -0.050 A 
ATOM     28  C   UNL     1      -0.297 -15.522   3.939  0.00  0.00    +0.005 A 
ATOM     29  C   UNL     1      -0.738 -14.213   3.924  0.00  0.00    +0.026 A 
ATOM     30  C   UNL     1       1.531 -17.226   4.065  0.00  0.00    +0.044 C 
ENDBRANCH  20  24
ENDBRANCH   1  17
BRANCH   1  31
ATOM     31  C   UNL     1       1.308  -8.151   2.859  0.00  0.00    -0.008 A 
ATOM     32  C   UNL     1       1.590  -7.180   3.803  0.00  0.00    +0.006 A 
ATOM     33  C   UNL     1       2.868  -6.662   3.900  0.00  0.00    +0.000 A 
ATOM     34  C   UNL     1       3.864  -7.114   3.055  0.00  0.00    +0.002 A 
ATOM     35  C   UNL     1       3.583  -8.085   2.113  0.00  0.00    +0.033 A 
ATOM     36  C   UNL     1       2.306  -8.607   2.018  0.00  0.00    +0.130 A 
BRANCH  36  37
ATOM     37  N   UNL     1       2.006  -9.651   1.012  0.00  0.00    +0.057 N 
ATOM     38  O   UNL     1       2.754 -10.591   0.875  0.00  0.00    -0.126 OA
ATOM     39  O   UNL     1       1.012  -9.564   0.328  0.00  0.00    -0.126 OA
ENDBRANCH  36  37
ENDBRANCH   1  31
TORSDOF 6
