REMARK  Name = ZINC12660483
REMARK  9 active torsions:
REMARK  status: ('A' for Active; 'I' for Inactive)
REMARK    1  A    between atoms: C_1  and  C_2
REMARK    2  A    between atoms: C_2  and  C_3
REMARK    3  A    between atoms: C_3  and  C_4
REMARK    4  A    between atoms: C_4  and  O_5
REMARK    5  A    between atoms: O_5  and  C_6
REMARK    6  A    between atoms: C_9  and  C_12
REMARK    7  A    between atoms: C_12  and  O_13
REMARK    8  A    between atoms: O_13  and  C_14
REMARK    9  A    between atoms: C_16  and  C_31
REMARK                            x       y       z     vdW  Elec       q    Type
REMARK                         _______ _______ _______ _____ _____    ______ ____
ROOT
ATOM      1  C   UNL     1      -0.137   1.097   2.518  0.00  0.00    +0.184 C 
ATOM      2  C   UNL     1      -0.790   1.607   1.218  0.00  0.00    +0.184 C 
ATOM      3  O   UNL     1      -2.131   1.115   1.182  0.00  0.00    -0.340 OA
ATOM      4  C   UNL     1      -2.418   0.338   2.353  0.00  0.00    +0.285 C 
ATOM      5  C   UNL     1      -1.356   0.767   3.412  0.00  0.00    +0.209 C 
ATOM      6  O   UNL     1      -1.914   2.000   3.913  0.00  0.00    -0.338 OA
ATOM      7  C   UNL     1      -3.336   1.802   3.900  0.00  0.00    +0.174 C 
ATOM      8  O   UNL     1      -3.655   0.800   2.928  0.00  0.00    -0.317 OA
ATOM      9  C   UNL     1      -4.030   3.115   3.534  0.00  0.00    +0.065 C 
ATOM     10  C   UNL     1      -3.680   4.183   4.573  0.00  0.00    +0.005 C 
ATOM     11  C   UNL     1      -4.146   3.721   5.955  0.00  0.00    +0.000 C 
ATOM     12  C   UNL     1      -3.446   2.411   6.320  0.00  0.00    +0.005 C 
ATOM     13  C   UNL     1      -3.797   1.341   5.284  0.00  0.00    +0.065 C 
ENDROOT
BRANCH   2  14
ATOM     14  C   UNL     1      -0.013   1.086   0.008  0.00  0.00    +0.179 C 
ATOM     15  C   UNL     1      -0.614   1.632  -1.311  0.00  0.00    +0.197 C 
ATOM     16  O   UNL     1       0.531   1.592  -2.196  0.00  0.00    -0.346 OA
ATOM     17  C   UNL     1       1.651   1.932  -1.362  0.00  0.00    +0.171 C 
ATOM     18  O   UNL     1       1.329   1.614  -0.002  0.00  0.00    -0.340 OA
ATOM     19  C   UNL     1       2.876   1.129  -1.802  0.00  0.00    +0.065 C 
ATOM     20  C   UNL     1       4.070   1.494  -0.918  0.00  0.00    +0.005 C 
ATOM     21  C   UNL     1       4.361   2.990  -1.048  0.00  0.00    +0.000 C 
ATOM     22  C   UNL     1       3.136   3.790  -0.600  0.00  0.00    +0.005 C 
ATOM     23  C   UNL     1       1.941   3.429  -1.484  0.00  0.00    +0.065 C 
ENDBRANCH   2  14
BRANCH   1  24
ATOM     24  O   UNL     1       0.639  -0.077   2.267  0.00  0.00    -0.367 OA
BRANCH  24  25
ATOM     25  C   UNL     1       1.758  -0.232   3.142  0.00  0.00    +0.195 C 
BRANCH  25  29
ATOM     26  C   UNL     1       3.863  -3.813   2.142  0.00  0.00    +0.121 A 
ATOM     27  C   UNL     1       4.207  -2.614   1.537  0.00  0.00    +0.046 A 
ATOM     28  C   UNL     1       3.525  -1.457   1.862  0.00  0.00    +0.009 A 
ATOM     29  C   UNL     1       2.500  -1.495   2.789  0.00  0.00    -0.022 A 
ATOM     30  C   UNL     1       2.159  -2.688   3.398  0.00  0.00    +0.009 A 
ATOM     31  C   UNL     1       2.835  -3.849   3.072  0.00  0.00    +0.046 A 
BRANCH  26  32
ATOM     32  O   UNL     1       4.533  -4.952   1.825  0.00  0.00    -0.492 OA
BRANCH  32  33
ATOM     33  C   UNL     1       4.125  -6.151   2.487  0.00  0.00    +0.229 C 
BRANCH  33  34
ATOM     34  C   UNL     1       4.988  -7.319   2.005  0.00  0.00    +0.041 C 
BRANCH  34  36
ATOM     35  C   UNL     1       5.413  -9.771   2.231  0.00  0.00    +0.004 C 
ATOM     36  C   UNL     1       4.551  -8.603   2.714  0.00  0.00    -0.000 C 
ENDBRANCH  34  36
ENDBRANCH  33  34
ENDBRANCH  32  33
ENDBRANCH  26  32
ENDBRANCH  25  29
ENDBRANCH  24  25
ENDBRANCH   1  24
TORSDOF 8
