REMARK  Name = ZINC39734449
REMARK  14 active torsions:
REMARK  status: ('A' for Active; 'I' for Inactive)
REMARK    1  A    between atoms: C_1  and  C_2
REMARK    2  A    between atoms: C_2  and  C_3
REMARK    3  A    between atoms: C_3  and  C_4
REMARK    4  A    between atoms: C_4  and  C_5
REMARK    5  A    between atoms: C_5  and  O_6
REMARK    6  A    between atoms: O_6  and  C_7
REMARK    7  A    between atoms: C_10  and  C_15
REMARK    8  A    between atoms: C_12  and  O_13
REMARK    9  A    between atoms: O_13  and  C_14
REMARK   10  A    between atoms: C_17  and  C_30
REMARK   11  A    between atoms: N_21  and  C_22
REMARK   12  A    between atoms: C_22  and  C_23
REMARK   13  A    between atoms: C_30  and  C_32
REMARK   14  A    between atoms: C_39  and  C_42
REMARK                            x       y       z     vdW  Elec       q    Type
REMARK                         _______ _______ _______ _____ _____    ______ ____
ROOT
ATOM      1  C   UNL     1       4.246  -6.717  -7.311  0.00  0.00    +0.145 C 
ATOM      2  C   UNL     1       5.732  -6.692  -7.584  0.00  0.00    +0.076 C 
ATOM      3  C   UNL     1       5.911  -5.953  -8.704  0.00  0.00    +0.249 C 
ATOM      4  C   UNL     1       4.597  -5.482  -9.189  0.00  0.00    +0.288 C 
ATOM      5  O   UNL     1       4.423  -4.795 -10.177  0.00  0.00    -0.266 OA
ATOM      6  N   UNL     1       3.619  -5.927  -8.377  0.00  0.00    -0.281 N 
ATOM      7  O   UNL     1       7.103  -5.687  -9.286  0.00  0.00    -0.282 OA
ENDROOT
BRANCH   1  11
ATOM      8  C   UNL     1       3.426  -4.952  -3.503  0.00  0.00    +0.162 A 
ATOM      9  C   UNL     1       4.163  -4.256  -4.447  0.00  0.00    +0.050 A 
ATOM     10  C   UNL     1       4.427  -4.830  -5.677  0.00  0.00    +0.009 A 
ATOM     11  C   UNL     1       3.956  -6.097  -5.968  0.00  0.00    -0.019 A 
ATOM     12  C   UNL     1       3.220  -6.796  -5.030  0.00  0.00    +0.055 A 
ATOM     13  C   UNL     1       2.957  -6.229  -3.793  0.00  0.00    +0.162 A 
BRANCH  13  14
ATOM     14  O   UNL     1       2.238  -6.918  -2.867  0.00  0.00    -0.491 OA
ATOM     15  C   UNL     1       1.878  -8.262  -3.194  0.00  0.00    +0.277 C 
ENDBRANCH  13  14
BRANCH   8  16
ATOM     16  O   UNL     1       3.166  -4.389  -2.292  0.00  0.00    -0.488 OA
BRANCH  16  17
ATOM     17  C   UNL     1       3.678  -3.075  -2.064  0.00  0.00    +0.229 C 
BRANCH  17  18
ATOM     18  C   UNL     1       3.288  -2.613  -0.658  0.00  0.00    +0.041 C 
BRANCH  18  19
ATOM     19  C   UNL     1       3.837  -1.206  -0.414  0.00  0.00    +0.003 C 
BRANCH  19  21
ATOM     20  C   UNL     1       3.996   0.664   1.236  0.00  0.00    +0.004 C 
ATOM     21  C   UNL     1       3.447  -0.743   0.991  0.00  0.00    -0.003 C 
ENDBRANCH  19  21
ENDBRANCH  18  19
ENDBRANCH  17  18
ENDBRANCH  16  17
ENDBRANCH   8  16
ENDBRANCH   1  11
BRANCH   2  22
ATOM     22  C   UNL     1       6.778  -7.343  -6.790  0.00  0.00    +0.195 C 
ATOM     23  O   UNL     1       7.661  -6.676  -6.282  0.00  0.00    -0.287 OA
BRANCH  22  24
ATOM     24  C   UNL     1       6.762  -8.808  -6.606  0.00  0.00    +0.023 A 
ATOM     25  C   UNL     1       5.822  -9.592  -7.283  0.00  0.00    +0.015 A 
ATOM     26  C   UNL     1       5.811 -10.956  -7.114  0.00  0.00    +0.046 A 
ATOM     27  C   UNL     1       6.735 -11.572  -6.268  0.00  0.00    +0.124 A 
ATOM     28  C   UNL     1       7.663 -10.785  -5.591  0.00  0.00    -0.002 A 
ATOM     29  C   UNL     1       7.690  -9.423  -5.759  0.00  0.00    +0.019 A 
ATOM     30  C   UNL     1       8.503 -11.720  -4.742  0.00  0.00    +0.083 C 
ATOM     31  C   UNL     1       7.652 -13.012  -4.754  0.00  0.00    +0.175 C 
ATOM     32  O   UNL     1       6.902 -12.889  -5.974  0.00  0.00    -0.488 OA
ATOM     33  C   UNL     1       8.549 -14.252  -4.787  0.00  0.00    +0.052 C 
ENDBRANCH  22  24
ENDBRANCH   2  22
BRANCH   6  34
ATOM     34  C   UNL     1       2.185  -5.670  -8.530  0.00  0.00    +0.140 C 
BRANCH  34  35
ATOM     35  C   UNL     1       1.842  -4.313  -7.911  0.00  0.00    +0.136 C 
ATOM     36  C   UNL     1       0.347  -3.977  -8.147  0.00  0.00    +0.035 C 
ATOM     37  C   UNL     1       0.075  -3.002  -6.970  0.00  0.00    +0.031 C 
ATOM     38  C   UNL     1       0.978  -3.574  -5.855  0.00  0.00    +0.160 C 
ATOM     39  O   UNL     1       1.996  -4.363  -6.484  0.00  0.00    -0.375 OA
ENDBRANCH  34  35
ENDBRANCH   6  34
TORSDOF 11
