REMARK  Name = ZINC10785738
REMARK  10 active torsions:
REMARK  status: ('A' for Active; 'I' for Inactive)
REMARK    1  A    between atoms: C_1  and  C_2
REMARK    2  A    between atoms: N_11  and  C_12
REMARK    3  A    between atoms: C_12  and  C_13
REMARK    4  A    between atoms: C_13  and  C_14
REMARK    5  A    between atoms: C_14  and  N_54
REMARK    6  A    between atoms: C_15  and  N_54
REMARK    7  A    between atoms: C_16  and  N_54
REMARK    8  A    between atoms: C_17  and  C_19
REMARK    9  A    between atoms: C_20  and  C_21
REMARK   10  A    between atoms: C_24  and  N_27
REMARK                            x       y       z     vdW  Elec       q    Type
REMARK                         _______ _______ _______ _____ _____    ______ ____
ROOT
ATOM      1  C   UNL     1       1.293  -2.118   6.465  0.00  0.00    +0.046 C 
ATOM      2  C   UNL     1       0.173  -2.663   5.617  0.00  0.00    -0.023 A 
ATOM      3  C   UNL     1      -0.387  -3.874   5.930  0.00  0.00    +0.025 A 
ATOM      4  C   UNL     1      -1.420  -4.413   5.175  0.00  0.00    +0.042 A 
ATOM      5  C   UNL     1      -1.897  -3.711   4.082  0.00  0.00    +0.037 A 
ATOM      6  C   UNL     1      -1.342  -2.497   3.762  0.00  0.00    +0.042 A 
ATOM      7  C   UNL     1      -0.289  -1.919   4.507  0.00  0.00    +0.083 A 
ATOM      8  N   UNL     1       0.149  -0.719   4.067  0.00  0.00    -0.224 NA
ATOM      9  C   UNL     1      -0.364  -0.123   3.015  0.00  0.00    +0.168 A 
ATOM     10  S   UNL     1      -1.625  -1.280   2.499  0.00  0.00    -0.052 S 
ATOM     11  N   UNL     1      -0.020   1.094   2.454  0.00  0.00    -0.247 N 
ATOM     12  C   UNL     1       0.967   1.833   2.998  0.00  0.00    +0.245 C 
ATOM     13  O   UNL     1       1.555   1.430   3.984  0.00  0.00    -0.270 OA
ATOM     14 CL   UNL     1      -2.107  -5.950   5.598  0.00  0.00    -0.083 Cl
ENDROOT
BRANCH  12  15
ATOM     15  C   UNL     1       1.330   3.120   2.404  0.00  0.00    +0.068 C 
ATOM     16  C   UNL     1       2.318   3.859   2.950  0.00  0.00    +0.013 C 
BRANCH  16  17
ATOM     17  C   UNL     1       2.683   5.154   2.352  0.00  0.00    -0.025 A 
ATOM     18  C   UNL     1       2.013   5.618   1.216  0.00  0.00    +0.010 A 
ATOM     19  C   UNL     1       2.358   6.834   0.665  0.00  0.00    +0.033 A 
ATOM     20  C   UNL     1       3.372   7.590   1.227  0.00  0.00    +0.126 A 
ATOM     21  C   UNL     1       4.044   7.135   2.349  0.00  0.00    +0.033 A 
ATOM     22  C   UNL     1       3.707   5.923   2.914  0.00  0.00    +0.010 A 
BRANCH  20  23
ATOM     23  N   UNL     1       3.740   8.891   0.626  0.00  0.00    +0.056 N 
ATOM     24  O   UNL     1       4.632   9.559   1.119  0.00  0.00    -0.126 OA
ATOM     25  O   UNL     1       3.151   9.295  -0.360  0.00  0.00    -0.126 OA
ENDBRANCH  20  23
ENDBRANCH  16  17
ENDBRANCH  12  15
BRANCH  11  26
ATOM     26  C   UNL     1      -0.729   1.579   1.267  0.00  0.00    +0.114 C 
BRANCH  26  27
ATOM     27  C   UNL     1      -0.013   1.086   0.008  0.00  0.00    +0.001 C 
BRANCH  27  28
ATOM     28  C   UNL     1      -0.753   1.593  -1.232  0.00  0.00    -0.078 C 
BRANCH  28  31
ATOM     29  C   UNL     1      -0.870   1.381  -3.641  0.00  0.00    -0.097 C 
ATOM     30  C   UNL     1       1.269   1.723  -2.558  0.00  0.00    -0.097 C 
ATOM     31  N   UNL     1      -0.062   1.091  -2.438  0.00  0.00    +0.376 N 
ATOM     32  H   UNL     1       0.059   0.074  -2.354  0.00  0.00    -0.083 HD
ENDBRANCH  28  31
ENDBRANCH  27  28
ENDBRANCH  26  27
ENDBRANCH  11  26
TORSDOF 7
