REMARK  Name = ZINC39655490
REMARK  9 active torsions:
REMARK  status: ('A' for Active; 'I' for Inactive)
REMARK    1  A    between atoms: C_1  and  C_2
REMARK    2  A    between atoms: C_2  and  C_3
REMARK    3  A    between atoms: C_3  and  C_5
REMARK    4  A    between atoms: C_3  and  C_11
REMARK    5  A    between atoms: C_15  and  C_24
REMARK    6  A    between atoms: N_26  and  C_27
REMARK    7  A    between atoms: C_27  and  C_28
REMARK    8  A    between atoms: C_28  and  N_29
REMARK    9  A    between atoms: N_29  and  C_30
REMARK                            x       y       z     vdW  Elec       q    Type
REMARK                         _______ _______ _______ _____ _____    ______ ____
ROOT
ATOM      1  C   UNL     1      -2.171  -0.074  -1.361  0.00  0.00    +0.223 C 
ATOM      2  O   UNL     1      -2.775  -0.820  -2.102  0.00  0.00    -0.275 OA
ATOM      3  N   UNL     1      -2.171   1.254  -1.595  0.00  0.00    -0.300 N 
ATOM      4  C   UNL     1      -1.573   2.323  -0.760  0.00  0.00    +0.121 C 
ATOM      5  C   UNL     1      -0.963   3.315  -1.775  0.00  0.00    +0.100 C 
ATOM      6  C   UNL     1      -1.752   3.083  -3.074  0.00  0.00    -0.004 C 
ATOM      7  C   UNL     1      -2.763   1.974  -2.748  0.00  0.00    +0.115 C 
ATOM      8  C   UNL     1      -0.815   2.623  -4.187  0.00  0.00    -0.010 C 
ATOM      9  C   UNL     1      -1.613   2.454  -5.483  0.00  0.00    -0.082 C 
ATOM     10  N   UNL     1      -2.243   3.730  -5.842  0.00  0.00    +0.379 N 
ATOM     11  C   UNL     1      -3.211   4.119  -4.810  0.00  0.00    -0.082 C 
ATOM     12  C   UNL     1      -2.481   4.358  -3.486  0.00  0.00    -0.010 C 
ATOM     13  H   UNL     1      -1.533   4.443  -5.921  0.00  0.00    -0.086 HD
ATOM     14  H   UNL     1      -2.717   3.632  -6.727  0.00  0.00    -0.086 HD
ENDROOT
BRANCH   5  15
ATOM     15  C   UNL     1       0.499   3.016  -1.986  0.00  0.00    +0.218 C 
ATOM     16  O   UNL     1       0.906   1.878  -1.887  0.00  0.00    -0.275 OA
ATOM     17  N   UNL     1       1.355   4.014  -2.285  0.00  0.00    -0.314 N 
ATOM     18  H   UNL     1       1.029   4.924  -2.364  0.00  0.00    +0.149 HD
BRANCH  17  19
ATOM     19  C   UNL     1       2.776   3.724  -2.490  0.00  0.00    +0.123 C 
BRANCH  19  20
ATOM     20  C   UNL     1       3.520   5.021  -2.814  0.00  0.00    +0.120 C 
BRANCH  20  21
ATOM     21  N   UNL     1       4.941   4.731  -3.019  0.00  0.00    -0.342 N 
ATOM     22  H   UNL     1       5.266   3.821  -2.940  0.00  0.00    +0.146 HD
BRANCH  21  23
ATOM     23  C   UNL     1       5.827   5.765  -3.329  0.00  0.00    +0.027 A 
ATOM     24  C   UNL     1       5.364   7.070  -3.438  0.00  0.00    +0.023 A 
ATOM     25  C   UNL     1       6.243   8.090  -3.744  0.00  0.00    +0.002 A 
ATOM     26  C   UNL     1       7.583   7.814  -3.942  0.00  0.00    +0.000 A 
ATOM     27  C   UNL     1       8.048   6.516  -3.836  0.00  0.00    +0.002 A 
ATOM     28  C   UNL     1       7.175   5.492  -3.524  0.00  0.00    +0.023 A 
ENDBRANCH  21  23
ENDBRANCH  20  21
ENDBRANCH  19  20
ENDBRANCH  17  19
ENDBRANCH   5  15
BRANCH   1  29
ATOM     29  C   UNL     1      -1.421  -0.631  -0.178  0.00  0.00    +0.105 C 
BRANCH  29  30
ATOM     30  C   UNL     1      -2.353  -0.739   1.001  0.00  0.00    -0.036 A 
ATOM     31  C   UNL     1      -3.480  -1.536   0.921  0.00  0.00    +0.004 A 
ATOM     32  C   UNL     1      -4.334  -1.635   2.003  0.00  0.00    +0.000 A 
ATOM     33  C   UNL     1      -4.061  -0.939   3.166  0.00  0.00    +0.000 A 
ATOM     34  C   UNL     1      -2.934  -0.143   3.246  0.00  0.00    +0.000 A 
ATOM     35  C   UNL     1      -2.077  -0.047   2.166  0.00  0.00    +0.004 A 
ENDBRANCH  29  30
BRANCH  29  37
ATOM     36  C   UNL     1       0.175  -1.889  -1.631  0.00  0.00    +0.005 C 
ATOM     37  C   UNL     1      -0.877  -2.017  -0.527  0.00  0.00    +0.014 C 
ENDBRANCH  29  37
ENDBRANCH   1  29
TORSDOF 8
