REMARK  Name = ZINC39726267
REMARK  15 active torsions:
REMARK  status: ('A' for Active; 'I' for Inactive)
REMARK    1  A    between atoms: C_1  and  C_2
REMARK    2  A    between atoms: C_2  and  C_4
REMARK    3  A    between atoms: C_2  and  N_10
REMARK    4  A    between atoms: N_10  and  C_11
REMARK    5  A    between atoms: C_11  and  C_12
REMARK    6  A    between atoms: N_14  and  C_15
REMARK    7  A    between atoms: N_14  and  C_19
REMARK    8  A    between atoms: C_15  and  C_16
REMARK    9  A    between atoms: C_16  and  C_17
REMARK   10  A    between atoms: C_16  and  C_18
REMARK   11  A    between atoms: C_20  and  N_32
REMARK   12  A    between atoms: N_21  and  C_28
REMARK   13  A    between atoms: C_28  and  C_29
REMARK   14  A    between atoms: C_29  and  C_30
REMARK   15  A    between atoms: C_29  and  C_31
REMARK                            x       y       z     vdW  Elec       q    Type
REMARK                         _______ _______ _______ _____ _____    ______ ____
ROOT
ATOM      1  C   UNL     1       2.857  -1.099  -2.025  0.00  0.00    +0.234 C 
ATOM      2  O   UNL     1       2.091  -1.729  -2.725  0.00  0.00    -0.274 OA
ATOM      3  N   UNL     1       4.180  -1.114  -2.290  0.00  0.00    -0.263 N 
ENDROOT
BRANCH   3   4
ATOM      4  C   UNL     1       4.662  -1.772  -3.441  0.00  0.00    +0.140 A 
ATOM      5  C   UNL     1       5.525  -2.842  -3.329  0.00  0.00    +0.127 A 
ATOM      6  N   UNL     1       5.978  -3.463  -4.470  0.00  0.00    -0.280 N 
ATOM      7  C   UNL     1       5.583  -3.032  -5.681  0.00  0.00    +0.331 A 
ATOM      8  O   UNL     1       5.994  -3.595  -6.678  0.00  0.00    -0.246 OA
ATOM      9  N   UNL     1       4.741  -1.991  -5.811  0.00  0.00    -0.273 N 
ATOM     10  H   UNL     1       4.471  -1.700  -6.696  0.00  0.00    +0.173 HD
ATOM     11  C   UNL     1       4.265  -1.351  -4.725  0.00  0.00    +0.277 A 
ATOM     12  O   UNL     1       3.500  -0.411  -4.853  0.00  0.00    -0.266 OA
BRANCH   5  13
ATOM     13  N   UNL     1       5.929  -3.282  -2.091  0.00  0.00    -0.343 N 
ATOM     14  H   UNL     1       5.533  -2.906  -1.289  0.00  0.00    +0.144 HD
ATOM     15  H   UNL     1       6.611  -3.969  -2.019  0.00  0.00    +0.144 HD
ENDBRANCH   5  13
BRANCH   6  16
ATOM     16  C   UNL     1       6.895  -4.601  -4.365  0.00  0.00    +0.131 C 
BRANCH  16  17
ATOM     17  C   UNL     1       6.090  -5.899  -4.282  0.00  0.00    +0.003 C 
ATOM     18  C   UNL     1       7.046  -7.094  -4.298  0.00  0.00    +0.009 C 
ATOM     19  C   UNL     1       5.277  -5.914  -2.986  0.00  0.00    +0.009 C 
ENDBRANCH  16  17
ENDBRANCH   6  16
ENDBRANCH   3   4
BRANCH   1  20
ATOM     20  C   UNL     1       2.331  -0.301  -0.860  0.00  0.00    +0.178 C 
BRANCH  20  21
ATOM     21  N   UNL     1       0.863  -0.357  -0.852  0.00  0.00    -0.302 NA
ATOM     22  H   UNL     1       0.537  -1.312  -0.830  0.00  0.00    +0.123 HD
BRANCH  21  24
ATOM     23  C   UNL     1       0.189   1.883  -0.127  0.00  0.00    +0.029 C 
ATOM     24  C   UNL     1       0.313   0.411   0.273  0.00  0.00    +0.081 C 
BRANCH  24  25
ATOM     25  C   UNL     1      -1.048  -0.128   0.633  0.00  0.00    -0.031 A 
ATOM     26  C   UNL     1      -1.924  -0.514  -0.364  0.00  0.00    +0.005 A 
ATOM     27  C   UNL     1      -3.172  -1.009  -0.035  0.00  0.00    +0.000 A 
ATOM     28  C   UNL     1      -3.543  -1.118   1.292  0.00  0.00    +0.000 A 
ATOM     29  C   UNL     1      -2.667  -0.732   2.289  0.00  0.00    +0.000 A 
ATOM     30  C   UNL     1      -1.417  -0.242   1.960  0.00  0.00    +0.005 A 
ENDBRANCH  24  25
ENDBRANCH  21  24
ENDBRANCH  20  21
ENDBRANCH   1  20
BRANCH   3  31
ATOM     31  C   UNL     1       5.116  -0.447  -1.382  0.00  0.00    +0.117 C 
BRANCH  31  32
ATOM     32  C   UNL     1       5.199   1.040  -1.736  0.00  0.00    +0.001 C 
ATOM     33  C   UNL     1       6.050   1.766  -0.693  0.00  0.00    +0.009 C 
ATOM     34  C   UNL     1       5.838   1.200  -3.117  0.00  0.00    +0.009 C 
ENDBRANCH  31  32
ENDBRANCH   3  31
TORSDOF 10
