REMARK  Name = ZINC31162677
REMARK  6 active torsions:
REMARK  status: ('A' for Active; 'I' for Inactive)
REMARK    1  A    between atoms: C_1  and  C_2
REMARK    2  A    between atoms: C_7  and  C_9
REMARK    3  A    between atoms: C_7  and  C_10
REMARK    4  A    between atoms: N_13  and  C_17
REMARK    5  A    between atoms: C_17  and  C_18
REMARK    6  A    between atoms: C_26  and  C_28
REMARK                            x       y       z     vdW  Elec       q    Type
REMARK                         _______ _______ _______ _____ _____    ______ ____
ROOT
ATOM      1  C   UNL     1      -1.386  -5.452  -2.773  0.00  0.00    +0.234 C 
ATOM      2  O   UNL     1      -1.010  -5.728  -1.653  0.00  0.00    -0.274 OA
ATOM      3  N   UNL     1      -1.278  -6.360  -3.763  0.00  0.00    -0.297 N 
ATOM      4  C   UNL     1      -1.723  -6.038  -5.126  0.00  0.00    +0.127 C 
ATOM      5  C   UNL     1      -0.556  -6.276  -6.091  0.00  0.00    +0.127 C 
ATOM      6  N   UNL     1       0.009  -7.607  -5.827  0.00  0.00    -0.295 N 
ATOM      7  C   UNL     1       0.454  -7.929  -4.464  0.00  0.00    +0.127 C 
ATOM      8  C   UNL     1      -0.709  -7.689  -3.499  0.00  0.00    +0.127 C 
ATOM      9  C   UNL     1       0.116  -8.515  -6.816  0.00  0.00    +0.247 C 
ATOM     10  O   UNL     1      -0.349  -8.277  -7.914  0.00  0.00    -0.270 OA
ENDROOT
BRANCH   9  11
ATOM     11  C   UNL     1       0.797  -9.799  -6.568  0.00  0.00    +0.045 A 
ATOM     12  C   UNL     1       2.088  -9.822  -6.061  0.00  0.00    +0.014 A 
ATOM     13  C   UNL     1       2.735 -11.028  -5.824  0.00  0.00    +0.001 A 
ATOM     14  C   UNL     1       2.124 -12.219  -6.082  0.00  0.00    +0.008 A 
ATOM     15  C   UNL     1       0.816 -12.244  -6.596  0.00  0.00    -0.017 A 
ATOM     16  C   UNL     1       0.138 -11.025  -6.839  0.00  0.00    -0.006 A 
ATOM     17  C   UNL     1      -1.168 -11.051  -7.347  0.00  0.00    +0.009 A 
ATOM     18  C   UNL     1      -1.771 -12.247  -7.596  0.00  0.00    +0.001 A 
ATOM     19  C   UNL     1      -1.108 -13.448  -7.353  0.00  0.00    +0.001 A 
ATOM     20  C   UNL     1       0.166 -13.460  -6.871  0.00  0.00    +0.008 A 
ENDBRANCH   9  11
BRANCH   1  21
ATOM     21  C   UNL     1      -1.972  -4.093  -3.058  0.00  0.00    +0.213 C 
BRANCH  21  33
ATOM     22  C   UNL     1       0.111   1.562  -0.038  0.00  0.00    +0.007 C 
ATOM     23  C   UNL     1       0.115   0.030  -0.039  0.00  0.00    -0.011 C 
ATOM     24  C   UNL     1      -1.328  -0.479  -0.013  0.00  0.00    +0.038 C 
ATOM     25  C   UNL     1      -1.336  -2.001  -0.063  0.00  0.00    +0.113 C 
ATOM     26  C   UNL     1      -0.486  -2.631   1.023  0.00  0.00    +0.041 C 
ATOM     27  C   UNL     1       0.878  -1.999   1.236  0.00  0.00    -0.032 C 
ATOM     28  C   UNL     1       0.831  -0.476   1.212  0.00  0.00    +0.009 C 
ATOM     29  C   UNL     1       1.392  -2.431   2.627  0.00  0.00    +0.011 C 
ATOM     30  C   UNL     1       1.881  -2.510   0.199  0.00  0.00    +0.011 C 
ATOM     31  C   UNL     1      -0.963  -2.496  -1.439  0.00  0.00    +0.247 C 
ATOM     32  O   UNL     1       0.024  -2.228  -2.091  0.00  0.00    -0.273 OA
ATOM     33  N   UNL     1      -1.979  -3.297  -1.829  0.00  0.00    -0.215 N 
ATOM     34  C   UNL     1      -2.988  -3.269  -0.952  0.00  0.00    +0.310 C 
ATOM     35  O   UNL     1      -4.021  -3.896  -1.091  0.00  0.00    -0.252 OA
ATOM     36  N   UNL     1      -2.730  -2.473   0.099  0.00  0.00    -0.285 N 
ATOM     37  H   UNL     1      -3.327  -2.243   0.826  0.00  0.00    +0.151 HD
ENDBRANCH  21  33
ENDBRANCH   1  21
TORSDOF 3
