REMARK  Name = ZINC11996247
REMARK  6 active torsions:
REMARK  status: ('A' for Active; 'I' for Inactive)
REMARK    1  A    between atoms: C_4  and  C_7
REMARK    2  A    between atoms: C_8  and  C_18
REMARK    3  A    between atoms: N_10  and  C_12
REMARK    4  A    between atoms: C_18  and  N_62
REMARK    5  A    between atoms: C_25  and  C_29
REMARK    6  A    between atoms: C_27  and  O_28
REMARK                            x       y       z     vdW  Elec       q    Type
REMARK                         _______ _______ _______ _____ _____    ______ ____
ROOT
ATOM      1  C   UNL     1      -2.620   5.531   2.291  0.00  0.00    -0.036 C 
ATOM      2  C   UNL     1      -2.977   5.547   3.762  0.00  0.00    +0.211 C 
ATOM      3  O   UNL     1      -3.762   6.702   4.082  0.00  0.00    -0.490 OA
ATOM      4  C   UNL     1      -5.102   6.570   3.880  0.00  0.00    +0.163 A 
ATOM      5  C   UNL     1      -5.598   6.464   2.594  0.00  0.00    -0.018 A 
ATOM      6  C   UNL     1      -6.947   6.295   2.374  0.00  0.00    +0.015 A 
ATOM      7  C   UNL     1      -7.824   6.250   3.459  0.00  0.00    +0.004 A 
ATOM      8  C   UNL     1      -7.330   6.377   4.756  0.00  0.00    +0.059 A 
ATOM      9  C   UNL     1      -5.971   6.535   4.968  0.00  0.00    +0.159 A 
ATOM     10  C   UNL     1      -4.644   6.566   1.419  0.00  0.00    -0.039 C 
ATOM     11  N   UNL     1      -3.796   5.349   1.415  0.00  0.00    +0.387 N 
ATOM     12  H   UNL     1      -4.351   4.560   1.768  0.00  0.00    -0.081 HD
ENDROOT
BRANCH   7  13
ATOM     13  C   UNL     1      -9.278   6.069   3.232  0.00  0.00    +0.071 A 
ATOM     14  C   UNL     1     -10.147   6.025   4.321  0.00  0.00    +0.028 A 
ATOM     15  C   UNL     1     -11.501   5.855   4.094  0.00  0.00    +0.004 A 
ATOM     16  C   UNL     1     -11.943   5.734   2.784  0.00  0.00    +0.020 A 
ATOM     17  C   UNL     1     -11.026   5.786   1.751  0.00  0.00    +0.111 A 
ATOM     18  N   UNL     1      -9.742   5.954   1.995  0.00  0.00    -0.255 NA
ENDBRANCH   7  13
BRANCH   9  19
ATOM     19  O   UNL     1      -5.487   6.657   6.233  0.00  0.00    -0.503 OA
ATOM     20  H   UNL     1      -5.442   7.569   6.550  0.00  0.00    +0.292 HD
ENDBRANCH   9  19
BRANCH  11  21
ATOM     21  C   UNL     1      -3.357   5.048   0.043  0.00  0.00    -0.039 C 
BRANCH  21  23
ATOM     22  C   UNL     1      -3.407   2.449   0.030  0.00  0.00    +0.094 A 
ATOM     23  C   UNL     1      -2.723   3.680   0.034  0.00  0.00    -0.018 A 
ATOM     24  C   UNL     1      -1.397   3.419   0.027  0.00  0.00    +0.116 A 
ATOM     25  N   UNL     1      -1.239   2.070   0.019  0.00  0.00    -0.239 N 
ATOM     26  N   UNL     1      -2.511   1.484   0.016  0.00  0.00    -0.166 NA
BRANCH  22  30
ATOM     27  C   UNL     1      -7.628   1.938   0.047  0.00  0.00    +0.000 A 
ATOM     28  C   UNL     1      -6.829   1.049  -0.650  0.00  0.00    +0.001 A 
ATOM     29  C   UNL     1      -5.459   1.210  -0.659  0.00  0.00    +0.010 A 
ATOM     30  C   UNL     1      -4.880   2.271   0.036  0.00  0.00    +0.002 A 
ATOM     31  C   UNL     1      -5.689   3.159   0.741  0.00  0.00    +0.010 A 
ATOM     32  C   UNL     1      -7.059   2.992   0.739  0.00  0.00    +0.001 A 
ENDBRANCH  22  30
BRANCH  25  33
ATOM     33  C   UNL     1      -0.017   1.384   0.010  0.00  0.00    +0.065 A 
ATOM     34  C   UNL     1       1.178   2.092   0.002  0.00  0.00    +0.028 A 
ATOM     35  C   UNL     1       2.381   1.413  -0.013  0.00  0.00    +0.002 A 
ATOM     36  C   UNL     1       2.396   0.031  -0.021  0.00  0.00    +0.000 A 
ATOM     37  C   UNL     1       1.208  -0.677  -0.013  0.00  0.00    +0.002 A 
ATOM     38  C   UNL     1       0.002  -0.004   0.002  0.00  0.00    +0.028 A 
ENDBRANCH  25  33
ENDBRANCH  21  23
ENDBRANCH  11  21
TORSDOF 6
