REMARK  Name = ZINC41152443
REMARK  6 active torsions:
REMARK  status: ('A' for Active; 'I' for Inactive)
REMARK    1  A    between atoms: C_1  and  C_2
REMARK    2  A    between atoms: C_2  and  C_3
REMARK    3  A    between atoms: C_3  and  C_4
REMARK    4  A    between atoms: C_3  and  C_5
REMARK    5  A    between atoms: C_3  and  N_18
REMARK    6  A    between atoms: C_7  and  C_10
REMARK                            x       y       z     vdW  Elec       q    Type
REMARK                         _______ _______ _______ _____ _____    ______ ____
ROOT
ATOM      1  C   UNL     1      -1.414  -2.036   0.129  0.00  0.00    +0.161 A 
ATOM      2  N   UNL     1      -1.971  -2.744   1.113  0.00  0.00    -0.193 NA
ATOM      3  C   UNL     1      -1.772  -4.027   0.912  0.00  0.00    +0.258 A 
ATOM      4  O   UNL     1      -1.070  -4.165  -0.226  0.00  0.00    -0.333 OA
ATOM      5  N   UNL     1      -0.855  -2.852  -0.720  0.00  0.00    -0.062 NA
ENDROOT
BRANCH   3   6
ATOM      6  C   UNL     1      -2.236  -5.126   1.785  0.00  0.00    +0.041 A 
ATOM      7  C   UNL     1      -2.964  -4.841   2.942  0.00  0.00    +0.015 A 
ATOM      8  C   UNL     1      -3.396  -5.870   3.752  0.00  0.00    +0.022 A 
ATOM      9  C   UNL     1      -3.109  -7.184   3.421  0.00  0.00    +0.059 A 
ATOM     10  C   UNL     1      -2.387  -7.473   2.274  0.00  0.00    +0.060 A 
ATOM     11  C   UNL     1      -1.954  -6.452   1.452  0.00  0.00    +0.034 A 
ATOM     12 CL   UNL     1      -2.032  -9.123   1.866  0.00  0.00    -0.082 Cl
ATOM     13 CL   UNL     1      -3.655  -8.473   4.447  0.00  0.00    -0.082 Cl
ENDBRANCH   3   6
BRANCH   1  14
ATOM     14  C   UNL     1      -1.433  -0.534   0.013  0.00  0.00    -0.009 C 
ATOM     15  C   UNL     1      -2.135  -0.131  -1.286  0.00  0.00    -0.003 C 
BRANCH  14  16
ATOM     16  N   UNL     1      -2.157   0.036   1.157  0.00  0.00    +0.386 N 
ATOM     17  H   UNL     1      -2.170   1.042   1.080  0.00  0.00    -0.089 HD
ATOM     18  H   UNL     1      -3.103  -0.313   1.165  0.00  0.00    -0.089 HD
ATOM     19  H   UNL     1      -1.694  -0.229   2.014  0.00  0.00    -0.089 HD
ENDBRANCH  14  16
BRANCH  14  21
ATOM     20  C   UNL     1      -0.019   1.526   0.010  0.00  0.00    +0.003 C 
ATOM     21  C   UNL     1       0.002  -0.004   0.002  0.00  0.00    -0.009 C 
ENDBRANCH  14  21
ENDBRANCH   1  14
TORSDOF 4
