REMARK  Name = ZINC08717300
REMARK  14 active torsions:
REMARK  status: ('A' for Active; 'I' for Inactive)
REMARK    1  A    between atoms: C_1  and  C_2
REMARK    2  A    between atoms: C_2  and  N_3
REMARK    3  A    between atoms: N_3  and  C_4
REMARK    4  A    between atoms: N_3  and  S_6
REMARK    5  A    between atoms: C_4  and  C_5
REMARK    6  A    between atoms: S_6  and  C_9
REMARK    7  A    between atoms: C_12  and  O_34
REMARK    8  A    between atoms: C_13  and  N_15
REMARK    9  A    between atoms: C_16  and  C_18
REMARK   10  A    between atoms: C_18  and  C_20
REMARK   11  A    between atoms: C_18  and  O_21
REMARK   12  A    between atoms: O_21  and  C_22
REMARK   13  A    between atoms: C_26  and  C_33
REMARK   14  A    between atoms: O_34  and  C_35
REMARK                            x       y       z     vdW  Elec       q    Type
REMARK                         _______ _______ _______ _____ _____    ______ ____
ROOT
ATOM      1  N   UNL     1      -6.167   2.151   1.848  0.00  0.00    -0.279 N 
ATOM      2  C   UNL     1      -6.991   1.143   1.499  0.00  0.00    +0.258 C 
ATOM      3  O   UNL     1      -6.613  -0.007   1.587  0.00  0.00    -0.271 OA
ATOM      4  H   UNL     1      -6.495   3.064   1.859  0.00  0.00    +0.155 HD
ENDROOT
BRANCH   1   9
ATOM      5  C   UNL     1      -2.902   0.470   2.068  0.00  0.00    +0.107 A 
ATOM      6  C   UNL     1      -2.207   1.345   2.883  0.00  0.00    +0.032 A 
ATOM      7  C   UNL     1      -2.822   2.489   3.358  0.00  0.00    +0.049 A 
ATOM      8  C   UNL     1      -4.137   2.761   3.018  0.00  0.00    +0.141 A 
ATOM      9  C   UNL     1      -4.837   1.881   2.196  0.00  0.00    +0.078 A 
ATOM     10  C   UNL     1      -4.212   0.738   1.719  0.00  0.00    +0.055 A 
BRANCH   5  11
ATOM     11  S   UNL     1      -2.112  -0.986   1.468  0.00  0.00    +0.061 S 
ATOM     12  O   UNL     1      -3.146  -1.913   1.165  0.00  0.00    -0.153 OA
ATOM     13  O   UNL     1      -1.064  -1.285   2.380  0.00  0.00    -0.153 OA
BRANCH  11  14
ATOM     14  N   UNL     1      -1.391  -0.594   0.029  0.00  0.00    -0.177 NA
BRANCH  14  16
ATOM     15  C   UNL     1      -0.017   1.429   0.007  0.00  0.00    +0.022 C 
ATOM     16  C   UNL     1      -0.011  -0.101   0.012  0.00  0.00    +0.106 C 
ENDBRANCH  14  16
BRANCH  14  17
ATOM     17  C   UNL     1      -2.132  -0.741  -1.226  0.00  0.00    +0.106 C 
ATOM     18  C   UNL     1      -1.810  -2.099  -1.853  0.00  0.00    +0.022 C 
ENDBRANCH  14  17
ENDBRANCH  11  14
ENDBRANCH   5  11
BRANCH   8  19
ATOM     19  O   UNL     1      -4.743   3.885   3.484  0.00  0.00    -0.493 OA
ATOM     20  C   UNL     1      -3.964   4.742   4.322  0.00  0.00    +0.277 C 
ENDBRANCH   8  19
ENDBRANCH   1   9
BRANCH   2  21
ATOM     21  C   UNL     1      -8.380   1.443   1.000  0.00  0.00    +0.256 C 
ATOM     22  C   UNL     1      -9.197   2.087   2.123  0.00  0.00    +0.062 C 
BRANCH  21  23
ATOM     23  O   UNL     1      -9.011   0.230   0.588  0.00  0.00    -0.480 OA
BRANCH  23  24
ATOM     24  C   UNL     1      -9.860   0.304  -0.470  0.00  0.00    +0.125 A 
ATOM     25  C   UNL     1     -10.419  -0.861  -0.991  0.00  0.00    +0.046 A 
ATOM     26  C   UNL     1     -11.273  -0.802  -2.054  0.00  0.00    +0.015 A 
ATOM     27  C   UNL     1     -11.589   0.436  -2.624  0.00  0.00    +0.021 A 
ATOM     28  C   UNL     1     -12.503   0.529  -3.764  0.00  0.00    -0.033 A 
ATOM     29  C   UNL     1     -12.771   1.760  -4.273  0.00  0.00    +0.096 A 
ATOM     30  C   UNL     1     -12.174   2.901  -3.700  0.00  0.00    +0.337 A 
ATOM     31  O   UNL     1     -12.423   3.999  -4.165  0.00  0.00    -0.245 OA
ATOM     32  O   UNL     1     -11.337   2.809  -2.654  0.00  0.00    -0.422 OA
ATOM     33  C   UNL     1     -11.028   1.616  -2.102  0.00  0.00    +0.143 A 
ATOM     34  C   UNL     1     -10.167   1.539  -1.018  0.00  0.00    +0.092 A 
ATOM     35  C   UNL     1     -13.128  -0.707  -4.359  0.00  0.00    +0.045 C 
ENDBRANCH  23  24
ENDBRANCH  21  23
ENDBRANCH   2  21
TORSDOF 9
