REMARK  Name = ZINC06112465
REMARK  3 active torsions:
REMARK  status: ('A' for Active; 'I' for Inactive)
REMARK    1  A    between atoms: C_9  and  C_11
REMARK    2  A    between atoms: N_18  and  C_21
REMARK    3  A    between atoms: C_19  and  O_20
REMARK                            x       y       z     vdW  Elec       q    Type
REMARK                         _______ _______ _______ _____ _____    ______ ____
ROOT
ATOM      1  C   UNL     1       1.191   1.939   0.001  0.00  0.00    +0.067 A 
ATOM      2  C   UNL     1      -0.015   1.215   0.009  0.00  0.00    +0.259 A 
ATOM      3  O   UNL     1       0.002  -0.004   0.002  0.00  0.00    -0.267 OA
ATOM      4  N   UNL     1      -1.188   1.877   0.018  0.00  0.00    -0.274 N 
ATOM      5  H   UNL     1      -2.047   1.365   0.016  0.00  0.00    +0.173 HD
ATOM      6  C   UNL     1      -1.213   3.222   0.030  0.00  0.00    +0.337 A 
ATOM      7  O   UNL     1      -2.282   3.801   0.042  0.00  0.00    -0.246 OA
ATOM      8  N   UNL     1      -0.072   3.936   0.023  0.00  0.00    -0.231 N 
ATOM      9  C   UNL     1       1.145   3.301   0.008  0.00  0.00    +0.208 A 
ENDROOT
BRANCH   1  18
ATOM     10  C   UNL     1       2.891  -0.836  -3.746  0.00  0.00    +0.000 A 
ATOM     11  C   UNL     1       2.378   0.447  -3.698  0.00  0.00    +0.000 A 
ATOM     12  C   UNL     1       2.262   1.096  -2.486  0.00  0.00    +0.002 A 
ATOM     13  C   UNL     1       2.657   0.469  -1.313  0.00  0.00    -0.054 A 
ATOM     14  C   UNL     1       3.168  -0.808  -1.367  0.00  0.00    -0.047 A 
ATOM     15  C   UNL     1       3.287  -1.454  -2.588  0.00  0.00    +0.004 A 
ATOM     16  C   UNL     1       3.603  -1.537  -0.121  0.00  0.00    +0.016 C 
ATOM     17  C   UNL     1       3.784  -0.544   1.028  0.00  0.00    -0.077 C 
ATOM     18  C   UNL     1       2.515   1.219  -0.015  0.00  0.00    +0.001 C 
ATOM     19  N   UNL     1       2.572   0.291   1.122  0.00  0.00    +0.387 N 
ATOM     20  H   UNL     1       2.596   0.827   1.998  0.00  0.00    -0.085 HD
ATOM     21  H   UNL     1       1.742  -0.312   1.112  0.00  0.00    -0.085 HD
ENDBRANCH   1  18
BRANCH   8  22
ATOM     22  C   UNL     1      -0.128   5.337   0.030  0.00  0.00    +0.072 A 
ATOM     23  C   UNL     1      -0.160   6.038  -1.167  0.00  0.00    +0.028 A 
ATOM     24  C   UNL     1      -0.219   7.418  -1.157  0.00  0.00    +0.002 A 
ATOM     25  C   UNL     1      -0.235   8.102   0.045  0.00  0.00    +0.002 A 
ATOM     26  C   UNL     1      -0.198   7.408   1.240  0.00  0.00    +0.022 A 
ATOM     27  C   UNL     1      -0.144   6.026   1.236  0.00  0.00    +0.065 A 
ATOM     28 CL   UNL     1      -0.097   5.155   2.737  0.00  0.00    -0.081 Cl
ENDBRANCH   8  22
BRANCH   9  29
ATOM     29  O   UNL     1       2.288   4.021   0.002  0.00  0.00    -0.493 OA
ATOM     30  H   UNL     1       2.150   4.978   0.008  0.00  0.00    +0.294 HD
ENDBRANCH   9  29
TORSDOF 3
