REMARK  Name = ZINC40035290
REMARK  9 active torsions:
REMARK  status: ('A' for Active; 'I' for Inactive)
REMARK    1  A    between atoms: C_1  and  C_2
REMARK    2  A    between atoms: C_2  and  C_3
REMARK    3  A    between atoms: C_3  and  C_37
REMARK    4  A    between atoms: N_15  and  C_28
REMARK    5  A    between atoms: N_18  and  N_19
REMARK    6  A    between atoms: C_20  and  C_21
REMARK    7  A    between atoms: C_31  and  O_34
REMARK    8  A    between atoms: O_34  and  C_35
REMARK    9  A    between atoms: C_35  and  C_36
REMARK                            x       y       z     vdW  Elec       q    Type
REMARK                         _______ _______ _______ _____ _____    ______ ____
ROOT
ATOM      1  C   UNL     1       0.904  -0.970   1.567  0.00  0.00    +0.004 C 
ATOM      2  C   UNL     1       0.941  -2.383   2.144  0.00  0.00    +0.047 C 
ATOM      3  C   UNL     1      -0.454  -2.922   2.313  0.00  0.00    -0.037 A 
ATOM      4  C   UNL     1      -0.718  -4.260   2.102  0.00  0.00    +0.004 A 
ATOM      5  C   UNL     1      -2.002  -4.747   2.264  0.00  0.00    +0.000 A 
ATOM      6  C   UNL     1      -3.031  -3.901   2.637  0.00  0.00    +0.001 A 
ATOM      7  C   UNL     1      -2.781  -2.559   2.848  0.00  0.00    +0.010 A 
ATOM      8  C   UNL     1      -1.491  -2.064   2.686  0.00  0.00    +0.004 A 
ATOM      9  C   UNL     1      -1.194  -0.629   2.897  0.00  0.00    +0.084 A 
ATOM     10  C   UNL     1      -0.030  -0.100   2.358  0.00  0.00    +0.050 A 
ATOM     11  C   UNL     1       0.254   1.256   2.566  0.00  0.00    +0.264 A 
ATOM     12  O   UNL     1       1.269   1.757   2.110  0.00  0.00    -0.267 OA
ATOM     13  N   UNL     1      -0.620   1.997   3.282  0.00  0.00    -0.248 N 
ATOM     14  C   UNL     1      -1.753   1.428   3.784  0.00  0.00    +0.223 A 
ATOM     15  N   UNL     1      -2.024   0.153   3.594  0.00  0.00    -0.214 NA
ATOM     16  N   UNL     1      -2.628   2.200   4.504  0.00  0.00    -0.206 N 
ATOM     17  C   UNL     1       2.312  -0.372   1.613  0.00  0.00    +0.016 C 
ATOM     18  H   UNL     1      -2.404   3.120   4.714  0.00  0.00    +0.177 HD
ENDROOT
BRANCH  13  19
ATOM     19  C   UNL     1      -0.361   3.356   3.509  0.00  0.00    +0.053 A 
ATOM     20  C   UNL     1       0.350   3.749   4.635  0.00  0.00    +0.030 A 
ATOM     21  C   UNL     1       0.606   5.087   4.858  0.00  0.00    +0.047 A 
ATOM     22  C   UNL     1       0.152   6.040   3.957  0.00  0.00    +0.121 A 
ATOM     23  C   UNL     1      -0.559   5.648   2.832  0.00  0.00    +0.047 A 
ATOM     24  C   UNL     1      -0.810   4.309   2.605  0.00  0.00    +0.030 A 
BRANCH  22  25
ATOM     25  O   UNL     1       0.403   7.357   4.177  0.00  0.00    -0.492 OA
BRANCH  25  26
ATOM     26  C   UNL     1      -0.094   8.283   3.209  0.00  0.00    +0.225 C 
ATOM     27  C   UNL     1       0.284   9.707   3.623  0.00  0.00    +0.048 C 
ENDBRANCH  25  26
ENDBRANCH  22  25
ENDBRANCH  13  19
BRANCH   1  29
ATOM     28  C   UNL     1       0.418   0.380  -0.478  0.00  0.00    +0.005 C 
ATOM     29  C   UNL     1       0.429  -1.031   0.114  0.00  0.00    +0.008 C 
ENDBRANCH   1  29
BRANCH  16  30
ATOM     30  N   UNL     1      -3.846   1.659   4.936  0.00  0.00    -0.187 NA
ATOM     31  C   UNL     1      -4.675   2.390   5.617  0.00  0.00    +0.141 C 
BRANCH  31  32
ATOM     32  C   UNL     1      -5.957   1.821   6.071  0.00  0.00    +0.030 A 
ATOM     33  C   UNL     1      -6.854   2.606   6.800  0.00  0.00    +0.012 A 
ATOM     34  C   UNL     1      -8.052   2.068   7.222  0.00  0.00    +0.001 A 
ATOM     35  C   UNL     1      -8.367   0.753   6.926  0.00  0.00    +0.003 A 
ATOM     36  C   UNL     1      -7.486  -0.032   6.205  0.00  0.00    +0.039 A 
ATOM     37  C   UNL     1      -6.284   0.495   5.770  0.00  0.00    +0.132 A 
ATOM     38  F   UNL     1      -5.426  -0.270   5.061  0.00  0.00    -0.205 F 
ENDBRANCH  31  32
ENDBRANCH  16  30
TORSDOF 6
