REMARK  Name = ZINC36605276
REMARK  14 active torsions:
REMARK  status: ('A' for Active; 'I' for Inactive)
REMARK    1  A    between atoms: C_1  and  C_2
REMARK    2  A    between atoms: C_2  and  C_3
REMARK    3  A    between atoms: C_3  and  C_4
REMARK    4  A    between atoms: C_4  and  N_5
REMARK    5  A    between atoms: C_6  and  C_8
REMARK    6  A    between atoms: C_8  and  C_10
REMARK    7  A    between atoms: C_8  and  N_22
REMARK    8  A    between atoms: C_19  and  O_20
REMARK    9  A    between atoms: O_20  and  C_21
REMARK   10  A    between atoms: N_22  and  C_23
REMARK   11  A    between atoms: C_29  and  C_31
REMARK   12  A    between atoms: C_31  and  C_33
REMARK   13  A    between atoms: C_31  and  O_39
REMARK   14  A    between atoms: O_39  and  C_40
REMARK                            x       y       z     vdW  Elec       q    Type
REMARK                         _______ _______ _______ _____ _____    ______ ____
ROOT
ATOM      1  C   UNL     1      -3.717  -4.576   0.064  0.00  0.00    +0.201 C 
ENDROOT
BRANCH   1   2
ATOM      2  C   UNL     1      -3.710  -4.381  -1.430  0.00  0.00    +0.031 A 
ATOM      3  C   UNL     1      -4.495  -3.374  -2.014  0.00  0.00    -0.009 A 
ATOM      4  C   UNL     1      -5.299  -2.529  -1.229  0.00  0.00    +0.009 A 
ATOM      5  C   UNL     1      -6.046  -1.562  -1.829  0.00  0.00    +0.001 A 
ATOM      6  C   UNL     1      -6.028  -1.397  -3.213  0.00  0.00    +0.001 A 
ATOM      7  C   UNL     1      -5.262  -2.196  -4.004  0.00  0.00    +0.008 A 
ATOM      8  C   UNL     1      -4.476  -3.205  -3.421  0.00  0.00    -0.017 A 
ATOM      9  C   UNL     1      -3.672  -4.048  -4.208  0.00  0.00    +0.012 A 
ATOM     10  C   UNL     1      -2.924  -5.015  -3.612  0.00  0.00    +0.046 A 
ATOM     11  C   UNL     1      -2.937  -5.180  -2.223  0.00  0.00    +0.126 A 
BRANCH  11  12
ATOM     12  O   UNL     1      -2.174  -6.151  -1.656  0.00  0.00    -0.495 OA
ATOM     13  C   UNL     1      -1.284  -6.863  -2.519  0.00  0.00    +0.277 C 
ENDBRANCH  11  12
ENDBRANCH   1   2
BRANCH   1  15
ATOM     14  N   UNL     1      -1.738  -3.140   0.439  0.00  0.00    -0.313 N 
ATOM     15  C   UNL     1      -2.332  -4.338   0.608  0.00  0.00    +0.239 C 
ATOM     16  O   UNL     1      -1.751  -5.225   1.198  0.00  0.00    -0.273 OA
ATOM     17  H   UNL     1      -2.202  -2.431  -0.033  0.00  0.00    +0.149 HD
BRANCH  14  18
ATOM     18  C   UNL     1      -0.391  -2.909   0.967  0.00  0.00    +0.104 C 
BRANCH  18  19
ATOM     19  C   UNL     1       0.046  -1.479   0.641  0.00  0.00    +0.018 C 
BRANCH  19  21
ATOM     20  C   UNL     1       1.889   0.192   0.867  0.00  0.00    +0.004 C 
ATOM     21  C   UNL     1       1.452  -1.238   1.193  0.00  0.00    -0.002 C 
ENDBRANCH  19  21
ENDBRANCH  18  19
ENDBRANCH  14  18
ENDBRANCH   1  15
BRANCH   1  22
ATOM     22  N   UNL     1      -4.135  -5.945   0.377  0.00  0.00    -0.253 N 
ATOM     23  C   UNL     1      -4.253  -6.338   1.661  0.00  0.00    +0.254 C 
ATOM     24  O   UNL     1      -4.094  -5.536   2.557  0.00  0.00    -0.272 OA
BRANCH  22  25
ATOM     25  C   UNL     1      -4.413  -6.845  -0.658  0.00  0.00    +0.038 A 
ATOM     26  C   UNL     1      -3.640  -7.988  -0.812  0.00  0.00    +0.023 A 
ATOM     27  C   UNL     1      -3.917  -8.875  -1.835  0.00  0.00    +0.002 A 
ATOM     28  C   UNL     1      -4.963  -8.625  -2.704  0.00  0.00    +0.000 A 
ATOM     29  C   UNL     1      -5.735  -7.487  -2.553  0.00  0.00    +0.002 A 
ATOM     30  C   UNL     1      -5.466  -6.599  -1.530  0.00  0.00    +0.023 A 
ENDBRANCH  22  25
BRANCH  23  31
ATOM     31  C   UNL     1      -4.581  -7.773   1.983  0.00  0.00    +0.234 C 
BRANCH  31  32
ATOM     32  C   UNL     1      -6.032  -8.038   1.673  0.00  0.00    -0.010 A 
ATOM     33  C   UNL     1      -7.017  -7.561   2.517  0.00  0.00    +0.006 A 
ATOM     34  C   UNL     1      -8.348  -7.805   2.233  0.00  0.00    +0.000 A 
ATOM     35  C   UNL     1      -8.693  -8.524   1.104  0.00  0.00    +0.000 A 
ATOM     36  C   UNL     1      -7.708  -9.000   0.259  0.00  0.00    +0.000 A 
ATOM     37  C   UNL     1      -6.378  -8.753   0.541  0.00  0.00    +0.006 A 
ENDBRANCH  31  32
BRANCH  31  38
ATOM     38  O   UNL     1      -4.338  -8.017   3.369  0.00  0.00    -0.366 OA
ATOM     39  C   UNL     1      -3.010  -8.460   3.657  0.00  0.00    +0.195 C 
ENDBRANCH  31  38
ENDBRANCH  23  31
ENDBRANCH   1  22
TORSDOF 11
