REMARK  Name = ZINC39662362
REMARK  6 active torsions:
REMARK  status: ('A' for Active; 'I' for Inactive)
REMARK    1  A    between atoms: C_4  and  C_7
REMARK    2  A    between atoms: C_7  and  C_9
REMARK    3  A    between atoms: C_7  and  N_11
REMARK    4  A    between atoms: C_12  and  C_14
REMARK    5  A    between atoms: C_25  and  C_27
REMARK    6  A    between atoms: C_27  and  C_28
REMARK                            x       y       z     vdW  Elec       q    Type
REMARK                         _______ _______ _______ _____ _____    ______ ____
ROOT
ATOM      1  C   UNL     1       4.619  -3.561  -2.422  0.00  0.00    +0.100 C 
ATOM      2  C   UNL     1       4.211  -4.821  -1.626  0.00  0.00    +0.121 C 
ATOM      3  N   UNL     1       4.980  -5.923  -2.250  0.00  0.00    -0.300 N 
ATOM      4  C   UNL     1       6.308  -5.330  -2.536  0.00  0.00    +0.115 C 
ATOM      5  C   UNL     1       5.996  -3.899  -3.017  0.00  0.00    -0.004 C 
ATOM      6  C   UNL     1       7.050  -2.926  -2.496  0.00  0.00    -0.010 C 
ATOM      7  C   UNL     1       8.399  -3.245  -3.147  0.00  0.00    -0.082 C 
ATOM      8  N   UNL     1       8.279  -3.133  -4.605  0.00  0.00    +0.379 N 
ATOM      9  C   UNL     1       7.332  -4.136  -5.109  0.00  0.00    -0.082 C 
ATOM     10  C   UNL     1       5.938  -3.854  -4.541  0.00  0.00    -0.010 C 
ATOM     11  C   UNL     1       4.566  -7.181  -2.500  0.00  0.00    +0.220 C 
ATOM     12  O   UNL     1       5.321  -7.976  -3.020  0.00  0.00    -0.275 OA
ATOM     13  H   UNL     1       7.949  -2.210  -4.845  0.00  0.00    -0.086 HD
ATOM     14  H   UNL     1       9.183  -3.284  -5.028  0.00  0.00    -0.086 HD
ENDROOT
BRANCH   1  16
ATOM     15  N   UNL     1       4.492  -1.131  -1.980  0.00  0.00    -0.296 N 
ATOM     16  C   UNL     1       4.721  -2.370  -1.504  0.00  0.00    +0.219 C 
ATOM     17  O   UNL     1       5.009  -2.528  -0.337  0.00  0.00    -0.275 OA
ATOM     18  H   UNL     1       4.262  -1.004  -2.914  0.00  0.00    +0.150 HD
BRANCH  15  19
ATOM     19  C   UNL     1       4.592   0.027  -1.087  0.00  0.00    +0.207 C 
BRANCH  19  23
ATOM     20  C   UNL     1       5.482   3.519  -3.381  0.00  0.00    +0.000 A 
ATOM     21  C   UNL     1       6.089   3.325  -2.154  0.00  0.00    +0.000 A 
ATOM     22  C   UNL     1       5.801   2.195  -1.412  0.00  0.00    +0.006 A 
ATOM     23  C   UNL     1       4.906   1.259  -1.896  0.00  0.00    -0.013 A 
ATOM     24  C   UNL     1       4.298   1.454  -3.123  0.00  0.00    +0.006 A 
ATOM     25  C   UNL     1       4.588   2.584  -3.865  0.00  0.00    +0.000 A 
ENDBRANCH  19  23
BRANCH  19  26
ATOM     26  C   UNL     1       3.313   0.214  -0.383  0.00  0.00    +0.090 C 
ATOM     27  N   UNL     1       2.327   0.359   0.161  0.00  0.00    -0.194 NA
ENDBRANCH  19  26
ENDBRANCH  15  19
ENDBRANCH   1  16
BRANCH  11  28
ATOM     28  C   UNL     1       3.166  -7.601  -2.134  0.00  0.00    +0.131 C 
BRANCH  28  29
ATOM     29  C   UNL     1       2.958  -9.043  -2.516  0.00  0.00    -0.039 A 
ATOM     30  C   UNL     1       2.482  -9.363  -3.774  0.00  0.00    +0.005 A 
ATOM     31  C   UNL     1       2.291 -10.686  -4.125  0.00  0.00    +0.020 A 
ATOM     32  C   UNL     1       2.575 -11.691  -3.217  0.00  0.00    +0.041 A 
ATOM     33  C   UNL     1       3.051 -11.370  -1.958  0.00  0.00    +0.020 A 
ATOM     34  C   UNL     1       3.247 -10.047  -1.610  0.00  0.00    +0.005 A 
ATOM     35 CL   UNL     1       2.334 -13.353  -3.657  0.00  0.00    -0.084 Cl
ENDBRANCH  28  29
ENDBRANCH  11  28
TORSDOF 6
