REMARK  Name = ZINC19526386
REMARK  10 active torsions:
REMARK  status: ('A' for Active; 'I' for Inactive)
REMARK    1  A    between atoms: C_1  and  C_2
REMARK    2  A    between atoms: C_2  and  N_3
REMARK    3  A    between atoms: N_3  and  C_4
REMARK    4  A    between atoms: N_3  and  C_6
REMARK    5  A    between atoms: C_4  and  C_5
REMARK    6  A    between atoms: C_6  and  C_7
REMARK    7  A    between atoms: C_7  and  N_8
REMARK    8  A    between atoms: C_18  and  C_34
REMARK    9  A    between atoms: C_26  and  C_28
REMARK   10  A    between atoms: C_31  and  C_33
REMARK                            x       y       z     vdW  Elec       q    Type
REMARK                         _______ _______ _______ _____ _____    ______ ____
ROOT
ATOM      1  N   UNL     1      -3.382   3.131   3.590  0.00  0.00    -0.272 N 
ATOM      2  C   UNL     1      -2.845   3.133   4.875  0.00  0.00    +0.048 A 
ATOM      3  C   UNL     1      -3.468   2.480   5.924  0.00  0.00    +0.024 A 
ATOM      4  C   UNL     1      -2.901   2.511   7.185  0.00  0.00    +0.002 A 
ATOM      5  C   UNL     1      -1.715   3.192   7.406  0.00  0.00    +0.001 A 
ATOM      6  C   UNL     1      -1.080   3.847   6.370  0.00  0.00    +0.015 A 
ATOM      7  C   UNL     1      -1.640   3.822   5.095  0.00  0.00    +0.058 A 
ATOM      8  C   UNL     1      -0.997   4.504   3.958  0.00  0.00    +0.246 C 
ATOM      9  O   UNL     1      -0.948   5.719   3.928  0.00  0.00    -0.270 OA
ATOM     10  N   UNL     1      -0.458   3.787   2.952  0.00  0.00    -0.304 N 
ATOM     11  C   UNL     1      -0.278   2.347   3.065  0.00  0.00    +0.060 C 
ATOM     12  C   UNL     1       0.179   1.995   4.498  0.00  0.00    +0.134 C 
ATOM     13  N   UNL     1      -0.469   0.693   4.784  0.00  0.00    -0.298 N 
ATOM     14  C   UNL     1      -1.819   0.815   4.184  0.00  0.00    +0.122 C 
ATOM     15  C   UNL     1      -1.586   1.577   2.860  0.00  0.00    +0.117 C 
ATOM     16  C   UNL     1      -2.743   2.488   2.597  0.00  0.00    +0.226 C 
ATOM     17  O   UNL     1      -3.116   2.650   1.455  0.00  0.00    -0.275 OA
ATOM     18  C   UNL     1       0.051  -0.363   5.441  0.00  0.00    +0.219 C 
ATOM     19  O   UNL     1       1.181  -0.308   5.878  0.00  0.00    -0.275 OA
ATOM     20  C   UNL     1       0.768   1.872   2.055  0.00  0.00    +0.034 C 
ATOM     21  H   UNL     1      -0.151   4.308   2.033  0.00  0.00    +0.150 HD
ENDROOT
BRANCH  18  22
ATOM     22  C   UNL     1      -0.771  -1.611   5.632  0.00  0.00    +0.078 C 
ATOM     23  C   UNL     1      -1.224  -1.948   7.055  0.00  0.00    +0.017 C 
ATOM     24  C   UNL     1      -0.124  -2.775   6.386  0.00  0.00    -0.002 C 
ATOM     25  C   UNL     1       1.309  -2.582   6.888  0.00  0.00    +0.008 C 
ENDBRANCH  18  22
BRANCH   1  26
ATOM     26  C   UNL     1      -4.640   3.831   3.320  0.00  0.00    +0.095 C 
BRANCH  26  27
ATOM     27  C   UNL     1      -5.813   2.872   3.533  0.00  0.00    -0.059 C 
BRANCH  27  28
ATOM     28  N   UNL     1      -7.075   3.574   3.262  0.00  0.00    +0.380 N 
ATOM     29  H   UNL     1      -7.079   4.501   3.854  0.00  0.00    -0.082 HD
BRANCH  28  31
ATOM     30  C   UNL     1      -7.153   2.676   0.985  0.00  0.00    -0.017 C 
ATOM     31  C   UNL     1      -7.178   3.942   1.844  0.00  0.00    -0.082 C 
ENDBRANCH  28  31
BRANCH  28  32
ATOM     32  C   UNL     1      -8.227   2.765   3.682  0.00  0.00    -0.082 C 
ATOM     33  C   UNL     1      -9.472   3.651   3.755  0.00  0.00    -0.017 C 
ENDBRANCH  28  32
ENDBRANCH  27  28
ENDBRANCH  26  27
ENDBRANCH   1  26
TORSDOF 6
