REMARK  Name = ZINC00146254
REMARK  5 active torsions:
REMARK  status: ('A' for Active; 'I' for Inactive)
REMARK    1  A    between atoms: C_6  and  C_7
REMARK    2  A    between atoms: C_8  and  C_9
REMARK    3  A    between atoms: N_11  and  C_12
REMARK    4  A    between atoms: C_12  and  N_14
REMARK    5  A    between atoms: N_14  and  C_15
REMARK                            x       y       z     vdW  Elec       q    Type
REMARK                         _______ _______ _______ _____ _____    ______ ____
ROOT
ATOM      1  C   UNL     1       3.892   5.111   2.663  0.00  0.00    +0.242 C 
ATOM      2  O   UNL     1       4.882   4.420   2.509  0.00  0.00    -0.270 OA
ATOM      3  N   UNL     1       2.723   4.749   2.099  0.00  0.00    -0.264 N 
ATOM      4  H   UNL     1       1.934   5.300   2.222  0.00  0.00    +0.157 HD
ENDROOT
BRANCH   1   6
ATOM      5  C   UNL     1       5.143   6.696   4.027  0.00  0.00    +0.013 C 
ATOM      6  C   UNL     1       3.971   6.333   3.461  0.00  0.00    +0.068 C 
BRANCH   5  12
ATOM      7  C   UNL     1       4.086   8.721   5.008  0.00  0.00    +0.012 A 
ATOM      8  C   UNL     1       4.163   9.872   5.761  0.00  0.00    +0.050 A 
ATOM      9  C   UNL     1       5.367  10.246   6.344  0.00  0.00    +0.166 A 
ATOM     10  C   UNL     1       6.505   9.457   6.169  0.00  0.00    +0.167 A 
ATOM     11  C   UNL     1       6.435   8.299   5.421  0.00  0.00    +0.057 A 
ATOM     12  C   UNL     1       5.223   7.924   4.829  0.00  0.00    -0.021 A 
ATOM     13  O   UNL     1       7.545  10.039   6.837  0.00  0.00    -0.453 OA
ATOM     14  C   UNL     1       6.939  10.967   7.756  0.00  0.00    +0.466 C 
ATOM     15  O   UNL     1       5.697  11.319   7.119  0.00  0.00    -0.453 OA
ENDBRANCH   5  12
ENDBRANCH   1   6
BRANCH   3  16
ATOM     16  C   UNL     1       2.650   3.622   1.363  0.00  0.00    +0.137 C 
ATOM     17  S   UNL     1       4.042   2.650   1.146  0.00  0.00    -0.018 S 
BRANCH  16  18
ATOM     18  N   UNL     1       1.481   3.260   0.799  0.00  0.00    -0.323 N 
ATOM     19  H   UNL     1       0.692   3.811   0.922  0.00  0.00    +0.148 HD
BRANCH  18  20
ATOM     20  C   UNL     1       1.401   2.035  -0.000  0.00  0.00    +0.072 C 
ATOM     21  C   UNL     1      -0.019   1.538   0.011  0.00  0.00    +0.022 C 
ATOM     22  C   UNL     1       0.002  -0.004   0.002  0.00  0.00    +0.002 C 
ATOM     23  C   UNL     1       0.231  -0.548  -1.328  0.00  0.00    +0.000 C 
ATOM     24  C   UNL     1       1.598  -0.131  -1.907  0.00  0.00    +0.000 C 
ATOM     25  C   UNL     1       1.480   1.268  -2.449  0.00  0.00    +0.002 C 
ATOM     26  C   UNL     1       1.910   2.335  -1.423  0.00  0.00    +0.022 C 
ENDBRANCH  18  20
ENDBRANCH  16  18
ENDBRANCH   3  16
TORSDOF 5
