REMARK  Name = ZINC38732547
REMARK  3 active torsions:
REMARK  status: ('A' for Active; 'I' for Inactive)
REMARK    1  A    between atoms: C_13  and  C_15
REMARK    2  A    between atoms: C_21  and  C_23
REMARK    3  A    between atoms: N_28  and  C_31
REMARK                            x       y       z     vdW  Elec       q    Type
REMARK                         _______ _______ _______ _____ _____    ______ ____
ROOT
ATOM      1  C   UNL     1      -0.024  -6.646   1.152  0.00  0.00    +0.087 C 
ATOM      2  C   UNL     1      -0.791  -6.391  -0.147  0.00  0.00    +0.013 C 
ATOM      3  C   UNL     1      -2.098  -7.186  -0.133  0.00  0.00    +0.001 C 
ATOM      4  C   UNL     1      -1.785  -8.679  -0.009  0.00  0.00    +0.001 C 
ATOM      5  C   UNL     1      -1.018  -8.934   1.290  0.00  0.00    +0.013 C 
ATOM      6  C   UNL     1       0.289  -8.138   1.275  0.00  0.00    +0.087 C 
ENDROOT
BRANCH   1  19
ATOM      7  C   UNL     1       0.041   1.365   2.444  0.00  0.00    +0.005 A 
ATOM      8  C   UNL     1       1.253   2.044   2.418  0.00  0.00    +0.018 A 
ATOM      9  C   UNL     1       2.430   1.324   2.378  0.00  0.00    +0.084 A 
ATOM     10  N   UNL     1       2.416   0.004   2.364  0.00  0.00    -0.350 N 
ATOM     11  C   UNL     1       1.282  -0.678   2.387  0.00  0.00    +0.099 A 
ATOM     12  C   UNL     1       0.059  -0.018   2.428  0.00  0.00    +0.042 A 
ATOM     13  N   UNL     1       1.315  -2.068   2.370  0.00  0.00    -0.314 N 
ATOM     14  C   UNL     1       0.076  -2.847   2.508  0.00  0.00    +0.125 C 
ATOM     15  C   UNL     1      -0.042  -3.798   1.311  0.00  0.00    +0.126 C 
ATOM     16  N   UNL     1       1.232  -4.514   1.154  0.00  0.00    -0.298 N 
ATOM     17  C   UNL     1       2.470  -3.736   1.015  0.00  0.00    +0.126 C 
ATOM     18  C   UNL     1       2.587  -2.785   2.207  0.00  0.00    +0.125 C 
ATOM     19  C   UNL     1       1.263  -5.862   1.137  0.00  0.00    +0.219 C 
ATOM     20  O   UNL     1       2.327  -6.443   1.111  0.00  0.00    -0.275 OA
ATOM     21  H   UNL     1       3.258  -0.477   2.335  0.00  0.00    +0.166 HD
ENDBRANCH   1  19
BRANCH   6  22
ATOM     22  C   UNL     1       1.129  -8.573   0.102  0.00  0.00    +0.219 C 
ATOM     23  O   UNL     1       0.950  -8.076  -0.990  0.00  0.00    -0.275 OA
ATOM     24  N   UNL     1       2.079  -9.515   0.266  0.00  0.00    -0.298 N 
ATOM     25  C   UNL     1       2.223 -10.216   1.550  0.00  0.00    +0.126 C 
ATOM     26  C   UNL     1       2.136 -11.726   1.296  0.00  0.00    +0.124 C 
ATOM     27  N   UNL     1       3.046 -12.071   0.194  0.00  0.00    -0.325 N 
ATOM     28  C   UNL     1       2.902 -11.370  -1.089  0.00  0.00    +0.124 C 
ATOM     29  C   UNL     1       2.985  -9.864  -0.837  0.00  0.00    +0.126 C 
BRANCH  27  30
ATOM     30  C   UNL     1       4.028 -13.044   0.364  0.00  0.00    +0.070 A 
ATOM     31  C   UNL     1       5.299 -12.705   0.829  0.00  0.00    +0.081 A 
ATOM     32  C   UNL     1       6.244 -13.699   0.984  0.00  0.00    +0.132 A 
ATOM     33  N   UNL     1       5.957 -14.956   0.698  0.00  0.00    -0.260 NA
ATOM     34  C   UNL     1       4.767 -15.317   0.256  0.00  0.00    +0.132 A 
ATOM     35  C   UNL     1       3.765 -14.384   0.079  0.00  0.00    +0.081 A 
ATOM     36 CL   UNL     1       2.201 -14.871  -0.496  0.00  0.00    -0.080 Cl
ATOM     37 CL   UNL     1       5.688 -11.056   1.206  0.00  0.00    -0.080 Cl
ENDBRANCH  27  30
ENDBRANCH   6  22
TORSDOF 3
