REMARK  Name = ZINC09466378
REMARK  13 active torsions:
REMARK  status: ('A' for Active; 'I' for Inactive)
REMARK    1  A    between atoms: C_1  and  C_2
REMARK    2  A    between atoms: C_2  and  O_3
REMARK    3  A    between atoms: O_3  and  C_4
REMARK    4  A    between atoms: C_4  and  C_6
REMARK    5  A    between atoms: C_7  and  C_34
REMARK    6  A    between atoms: C_8  and  C_13
REMARK    7  A    between atoms: C_11  and  C_12
REMARK    8  A    between atoms: C_13  and  C_15
REMARK    9  A    between atoms: C_15  and  O_16
REMARK   10  A    between atoms: O_16  and  C_17
REMARK   11  A    between atoms: C_17  and  C_19
REMARK   12  A    between atoms: N_22  and  C_25
REMARK   13  A    between atoms: C_28  and  C_30
REMARK                            x       y       z     vdW  Elec       q    Type
REMARK                         _______ _______ _______ _____ _____    ______ ____
ROOT
ATOM      1  C   UNL     1      -5.369   3.729   7.887  0.00  0.00    +0.311 C 
ATOM      2  O   UNL     1      -5.935   4.790   7.767  0.00  0.00    -0.251 OA
ENDROOT
BRANCH   1   3
ATOM      3  C   UNL     1      -4.716   3.085   6.691  0.00  0.00    +0.101 C 
ATOM      4  C   UNL     1      -4.915   3.973   5.459  0.00  0.00    +0.033 C 
ATOM      5  C   UNL     1      -4.200   3.343   4.262  0.00  0.00    +0.107 C 
ATOM      6  N   UNL     1      -2.769   3.205   4.561  0.00  0.00    -0.317 N 
ATOM      7  C   UNL     1      -2.551   2.319   5.712  0.00  0.00    +0.107 C 
ATOM      8  C   UNL     1      -3.217   2.918   6.953  0.00  0.00    +0.033 C 
BRANCH   6   9
ATOM      9  C   UNL     1      -2.068   2.757   3.448  0.00  0.00    +0.099 A 
ATOM     10  C   UNL     1      -0.692   2.563   3.532  0.00  0.00    +0.042 A 
ATOM     11  C   UNL     1      -0.007   2.118   2.416  0.00  0.00    +0.017 A 
ATOM     12  C   UNL     1      -0.722   1.881   1.250  0.00  0.00    +0.071 A 
ATOM     13  C   UNL     1      -2.085   2.100   1.236  0.00  0.00    +0.096 A 
ATOM     14  N   UNL     1      -2.792   2.532   2.314  0.00  0.00    -0.349 N 
ATOM     15  H   UNL     1      -3.808   2.679   2.277  0.00  0.00    +0.167 HD
BRANCH  12  16
ATOM     16  C   UNL     1      -0.017   1.395   0.010  0.00  0.00    +0.419 C 
ATOM     17  F   UNL     1       0.002  -0.004   0.002  0.00  0.00    -0.166 F 
ATOM     18  F   UNL     1       1.296   1.879  -0.000  0.00  0.00    -0.166 F 
ATOM     19  F   UNL     1      -0.694   1.858  -1.124  0.00  0.00    -0.166 F 
ENDBRANCH  12  16
ENDBRANCH   6   9
ENDBRANCH   1   3
BRANCH   1  20
ATOM     20  O   UNL     1      -5.321   3.125   9.084  0.00  0.00    -0.456 OA
BRANCH  20  21
ATOM     21  C   UNL     1      -5.971   3.803  10.191  0.00  0.00    +0.313 C 
BRANCH  21  22
ATOM     22  C   UNL     1      -5.814   2.982  11.445  0.00  0.00    +0.217 C 
ATOM     23  O   UNL     1      -5.213   1.928  11.409  0.00  0.00    -0.287 OA
BRANCH  22  26
ATOM     24  C   UNL     1      -6.982   3.600  14.813  0.00  0.00    +0.083 A 
ATOM     25  C   UNL     1      -6.304   2.789  13.878  0.00  0.00    -0.008 A 
ATOM     26  C   UNL     1      -6.368   3.440  12.665  0.00  0.00    +0.090 A 
ATOM     27  N   UNL     1      -7.072   4.613  12.846  0.00  0.00    -0.355 N 
ATOM     28  H   UNL     1      -7.268   5.263  12.153  0.00  0.00    +0.166 HD
ATOM     29  C   UNL     1      -7.441   4.714  14.131  0.00  0.00    +0.028 A 
ATOM     30  C   UNL     1      -8.227   5.850  14.733  0.00  0.00    +0.064 C 
ATOM     31  C   UNL     1      -5.636   1.466  14.154  0.00  0.00    +0.047 C 
BRANCH  24  32
ATOM     32  C   UNL     1      -7.169   3.313  16.245  0.00  0.00    +0.341 C 
ATOM     33  O   UNL     1      -8.144   2.690  16.617  0.00  0.00    -0.245 OA
BRANCH  32  34
ATOM     34  O   UNL     1      -6.260   3.742  17.143  0.00  0.00    -0.461 OA
BRANCH  34  36
ATOM     35  C   UNL     1      -5.379   3.987  19.400  0.00  0.00    +0.048 C 
ATOM     36  C   UNL     1      -6.510   3.423  18.538  0.00  0.00    +0.229 C 
ENDBRANCH  34  36
ENDBRANCH  32  34
ENDBRANCH  24  32
ENDBRANCH  22  26
ENDBRANCH  21  22
ENDBRANCH  20  21
ENDBRANCH   1  20
TORSDOF 10
