REMARK  Name = ZINC41248907
REMARK  1 active torsions:
REMARK  status: ('A' for Active; 'I' for Inactive)
REMARK    1  A    between atoms: C_5  and  C_6
REMARK                            x       y       z     vdW  Elec       q    Type
REMARK                         _______ _______ _______ _____ _____    ______ ____
ROOT
ATOM      1  C   UNL     1      -1.124  -0.944   0.008  0.00  0.00    +0.060 A 
ATOM      2  C   UNL     1      -0.902  -2.311   0.005  0.00  0.00    +0.070 A 
ATOM      3  C   UNL     1      -2.007  -3.172   0.011  0.00  0.00    +0.124 A 
ATOM      4  N   UNL     1      -3.237  -2.668   0.021  0.00  0.00    -0.179 NA
ATOM      5  C   UNL     1      -3.445  -1.355   0.025  0.00  0.00    +0.348 A 
ATOM      6  O   UNL     1      -4.589  -0.932   0.034  0.00  0.00    -0.245 OA
ATOM      7  N   UNL     1      -2.420  -0.483   0.024  0.00  0.00    -0.305 N 
ATOM      8  H   UNL     1      -2.596   0.471   0.031  0.00  0.00    +0.170 HD
ATOM      9  N   UNL     1      -1.819  -4.537   0.008  0.00  0.00    -0.343 N 
ATOM     10  H   UNL     1      -0.921  -4.903   0.000  0.00  0.00    +0.144 HD
ATOM     11  H   UNL     1      -2.585  -5.132   0.012  0.00  0.00    +0.144 HD
ENDROOT
BRANCH   1  16
ATOM     12  C   UNL     1      -0.017   1.382   0.010  0.00  0.00    +0.019 A 
ATOM     13  C   UNL     1       1.214   1.996   0.001  0.00  0.00    +0.028 A 
ATOM     14  C   UNL     1       2.333   1.229  -0.014  0.00  0.00    +0.079 A 
ATOM     15  S   UNL     1       1.751  -0.347  -0.017  0.00  0.00    -0.075 S 
ATOM     16  C   UNL     1       0.002  -0.004   0.002  0.00  0.00    +0.037 A 
ATOM     17 CL   UNL     1       3.987   1.756  -0.027  0.00  0.00    -0.076 Cl
ENDBRANCH   1  16
TORSDOF 1
