REMARK  Name = ZINC14014304
REMARK  7 active torsions:
REMARK  status: ('A' for Active; 'I' for Inactive)
REMARK    1  A    between atoms: C_1  and  C_2
REMARK    2  A    between atoms: C_5  and  N_9
REMARK    3  A    between atoms: C_6  and  C_8
REMARK    4  A    between atoms: C_21  and  C_23
REMARK    5  A    between atoms: C_23  and  C_24
REMARK    6  A    between atoms: N_26  and  C_27
REMARK    7  A    between atoms: C_32  and  C_33
REMARK                            x       y       z     vdW  Elec       q    Type
REMARK                         _______ _______ _______ _____ _____    ______ ____
ROOT
ATOM      1  N   UNL     1       5.522   6.365   4.551  0.00  0.00    -0.214 N 
ATOM      2  C   UNL     1       5.168   6.911   3.354  0.00  0.00    +0.171 A 
ATOM      3  C   UNL     1       4.907   5.842   2.481  0.00  0.00    +0.103 A 
ATOM      4  C   UNL     1       5.122   4.653   3.212  0.00  0.00    +0.150 A 
ATOM      5  N   UNL     1       5.482   4.971   4.424  0.00  0.00    -0.172 NA
ATOM      6  C   UNL     1       4.515   6.125   1.156  0.00  0.00    +0.266 A 
ATOM      7  O   UNL     1       4.283   5.214   0.380  0.00  0.00    -0.267 OA
ATOM      8  N   UNL     1       4.394   7.428   0.742  0.00  0.00    -0.283 N 
ATOM      9  C   UNL     1       4.668   8.404   1.657  0.00  0.00    +0.174 A 
ATOM     10  N   UNL     1       5.034   8.159   2.896  0.00  0.00    -0.203 NA
ATOM     11  S   UNL     1       4.426   9.963   0.833  0.00  0.00    -0.085 S 
ATOM     12  C   UNL     1       3.935   9.352  -0.822  0.00  0.00    +0.103 C 
ATOM     13  C   UNL     1       3.996   7.833  -0.605  0.00  0.00    +0.112 C 
ENDROOT
BRANCH   1  18
ATOM     14  C   UNL     1       6.912   9.242   9.240  0.00  0.00    +0.044 C 
ATOM     15  C   UNL     1       6.543   8.478   7.994  0.00  0.00    -0.050 A 
ATOM     16  C   UNL     1       6.158   9.161   6.855  0.00  0.00    +0.005 A 
ATOM     17  C   UNL     1       5.819   8.464   5.712  0.00  0.00    +0.028 A 
ATOM     18  C   UNL     1       5.865   7.075   5.708  0.00  0.00    +0.071 A 
ATOM     19  C   UNL     1       6.248   6.393   6.855  0.00  0.00    -0.025 A 
ATOM     20  C   UNL     1       6.591   7.096   7.993  0.00  0.00    +0.008 A 
ATOM     21  C   UNL     1       6.295   4.887   6.856  0.00  0.00    +0.046 C 
ENDBRANCH   1  18
BRANCH  13  22
ATOM     22  C   UNL     1       2.615   7.245  -0.900  0.00  0.00    +0.122 C 
BRANCH  22  23
ATOM     23  C   UNL     1       2.255   7.507  -2.340  0.00  0.00    +0.219 C 
ATOM     24  O   UNL     1       3.071   7.999  -3.090  0.00  0.00    -0.275 OA
ATOM     25  N   UNL     1       1.025   7.193  -2.795  0.00  0.00    -0.285 N 
ATOM     26  H   UNL     1       0.352   6.858  -2.182  0.00  0.00    +0.155 HD
BRANCH  25  27
ATOM     27  C   UNL     1       0.720   7.352  -4.149  0.00  0.00    +0.041 A 
ATOM     28  C   UNL     1       1.289   8.389  -4.875  0.00  0.00    +0.024 A 
ATOM     29  C   UNL     1       0.985   8.544  -6.213  0.00  0.00    +0.002 A 
ATOM     30  C   UNL     1       0.114   7.670  -6.838  0.00  0.00    +0.001 A 
ATOM     31  C   UNL     1      -0.464   6.637  -6.128  0.00  0.00    +0.010 A 
ATOM     32  C   UNL     1      -0.162   6.466  -4.779  0.00  0.00    +0.003 A 
BRANCH  32  33
ATOM     33  C   UNL     1      -0.775   5.354  -4.013  0.00  0.00    -0.016 A 
ATOM     34  C   UNL     1       0.025   4.510  -3.245  0.00  0.00    +0.008 A 
ATOM     35  C   UNL     1      -0.552   3.481  -2.529  0.00  0.00    +0.001 A 
ATOM     36  C   UNL     1      -1.919   3.279  -2.582  0.00  0.00    +0.000 A 
ATOM     37  C   UNL     1      -2.717   4.110  -3.348  0.00  0.00    +0.001 A 
ATOM     38  C   UNL     1      -2.152   5.147  -4.063  0.00  0.00    +0.008 A 
ENDBRANCH  32  33
ENDBRANCH  25  27
ENDBRANCH  22  23
ENDBRANCH  13  22
TORSDOF 5
