REMARK  Name = ZINC40823129
REMARK  5 active torsions:
REMARK  status: ('A' for Active; 'I' for Inactive)
REMARK    1  A    between atoms: C_1  and  C_2
REMARK    2  A    between atoms: C_8  and  C_10
REMARK    3  A    between atoms: C_11  and  C_30
REMARK    4  A    between atoms: N_19  and  N_20
REMARK    5  A    between atoms: C_21  and  C_23
REMARK                            x       y       z     vdW  Elec       q    Type
REMARK                         _______ _______ _______ _____ _____    ______ ____
ROOT
ATOM      1  C   UNL     1      -3.622  -4.355  -0.003  0.00  0.00    +0.193 A 
ATOM      2  C   UNL     1      -4.989  -4.365  -0.001  0.00  0.00    +0.009 A 
ATOM      3  C   UNL     1      -5.371  -5.712  -0.004  0.00  0.00    +0.042 A 
ATOM      4  C   UNL     1      -4.221  -6.467  -0.005  0.00  0.00    +0.115 A 
ATOM      5  O   UNL     1      -3.183  -5.635  -0.012  0.00  0.00    -0.454 OA
ATOM      6  C   UNL     1      -4.230  -7.974  -0.002  0.00  0.00    +0.075 C 
ATOM      7  C   UNL     1      -5.583  -8.474   0.511  0.00  0.00    +0.014 C 
ATOM      8  C   UNL     1      -6.730  -7.832  -0.277  0.00  0.00    +0.058 C 
ATOM      9  C   UNL     1      -6.713  -6.334  -0.007  0.00  0.00    +0.070 C 
ATOM     10  N   UNL     1      -7.797  -5.653   0.205  0.00  0.00    -0.184 NA
ATOM     11  C   UNL     1      -5.902  -3.166   0.003  0.00  0.00    +0.048 C 
ENDROOT
BRANCH   1  19
ATOM     12  C   UNL     1      -0.018   1.503   0.010  0.00  0.00    +0.089 C 
ATOM     13  C   UNL     1       0.002  -0.004   0.002  0.00  0.00    +0.136 A 
ATOM     14  C   UNL     1      -1.076  -0.807   0.003  0.00  0.00    +0.091 A 
ATOM     15  C   UNL     1      -0.625  -2.147  -0.007  0.00  0.00    +0.168 A 
ATOM     16  N   UNL     1       0.683  -2.130  -0.013  0.00  0.00    -0.063 NA
ATOM     17  O   UNL     1       1.100  -0.776  -0.013  0.00  0.00    -0.358 OA
ATOM     18  N   UNL     1      -1.431  -3.284  -0.009  0.00  0.00    -0.261 N 
ATOM     19  C   UNL     1      -2.773  -3.159  -0.001  0.00  0.00    +0.285 C 
ATOM     20  O   UNL     1      -3.281  -2.053   0.007  0.00  0.00    -0.266 OA
ATOM     21  H   UNL     1      -1.026  -4.165  -0.015  0.00  0.00    +0.157 HD
ENDBRANCH   1  19
BRANCH  10  22
ATOM     22  N   UNL     1      -9.042  -6.295   0.190  0.00  0.00    -0.203 N 
ATOM     23  C   UNL     1     -10.168  -5.587   0.410  0.00  0.00    +0.265 C 
ATOM     24  O   UNL     1     -10.103  -4.391   0.621  0.00  0.00    -0.268 OA
ATOM     25  H   UNL     1      -9.094  -7.248   0.022  0.00  0.00    +0.178 HD
BRANCH  23  26
ATOM     26  C   UNL     1     -11.481  -6.264   0.395  0.00  0.00    +0.057 A 
ATOM     27  C   UNL     1     -12.659  -5.539   0.616  0.00  0.00    +0.031 A 
ATOM     28  C   UNL     1     -13.863  -6.220   0.590  0.00  0.00    +0.037 A 
ATOM     29  C   UNL     1     -13.865  -7.584   0.349  0.00  0.00    +0.126 A 
ATOM     30  N   UNL     1     -12.740  -8.240   0.144  0.00  0.00    -0.261 NA
ATOM     31  C   UNL     1     -11.570  -7.636   0.153  0.00  0.00    +0.123 A 
ATOM     32 BR   UNL     1     -15.489  -5.299   0.882  0.00  0.00    -0.049 Br
ENDBRANCH  23  26
ENDBRANCH  10  22
TORSDOF 3
