REMARK  Name = ZINC32408439
REMARK  13 active torsions:
REMARK  status: ('A' for Active; 'I' for Inactive)
REMARK    1  A    between atoms: C_1  and  C_2
REMARK    2  A    between atoms: C_2  and  C_3
REMARK    3  A    between atoms: C_2  and  O_4
REMARK    4  A    between atoms: O_4  and  C_5
REMARK    5  A    between atoms: C_5  and  C_7
REMARK    6  A    between atoms: C_7  and  C_8
REMARK    7  A    between atoms: C_8  and  C_10
REMARK    8  A    between atoms: C_8  and  N_19
REMARK    9  A    between atoms: C_15  and  N_16
REMARK   10  A    between atoms: N_19  and  S_20
REMARK   11  A    between atoms: S_20  and  C_23
REMARK   12  A    between atoms: C_26  and  O_33
REMARK   13  A    between atoms: O_33  and  C_34
REMARK                            x       y       z     vdW  Elec       q    Type
REMARK                         _______ _______ _______ _____ _____    ______ ____
ROOT
ATOM      1  C   UNL     1      -2.875  -3.509  -1.627  0.00  0.00    +0.119 C 
ENDROOT
BRANCH   1   2
ATOM      2  C   UNL     1      -4.298  -3.998  -1.706  0.00  0.00    +0.002 A 
ATOM      3  C   UNL     1      -4.786  -4.862  -0.743  0.00  0.00    +0.007 A 
ATOM      4  C   UNL     1      -6.091  -5.311  -0.815  0.00  0.00    +0.000 A 
ATOM      5  C   UNL     1      -6.909  -4.896  -1.849  0.00  0.00    +0.002 A 
ATOM      6  C   UNL     1      -6.422  -4.032  -2.812  0.00  0.00    +0.033 A 
ATOM      7  C   UNL     1      -5.117  -3.579  -2.737  0.00  0.00    +0.131 A 
BRANCH   7   8
ATOM      8  N   UNL     1      -4.597  -2.650  -3.765  0.00  0.00    +0.057 N 
ATOM      9  O   UNL     1      -5.337  -2.214  -4.616  0.00  0.00    -0.126 OA
ATOM     10  O   UNL     1      -3.432  -2.326  -3.752  0.00  0.00    -0.126 OA
ENDBRANCH   7   8
ENDBRANCH   1   2
BRANCH   1  11
ATOM     11  N   UNL     1      -2.091  -4.419  -0.789  0.00  0.00    -0.182 NA
ATOM     12  H   UNL     1      -2.137  -4.349   0.178  0.00  0.00    +0.149 HD
BRANCH  11  13
ATOM     13  S   UNL     1      -1.126  -5.567  -1.490  0.00  0.00    +0.060 S 
ATOM     14  O   UNL     1      -0.376  -4.905  -2.500  0.00  0.00    -0.153 OA
ATOM     15  O   UNL     1      -0.510  -6.284  -0.429  0.00  0.00    -0.153 OA
BRANCH  13  16
ATOM     16  C   UNL     1      -2.188  -6.705  -2.317  0.00  0.00    +0.113 A 
ATOM     17  C   UNL     1      -2.165  -6.797  -3.675  0.00  0.00    +0.033 A 
ATOM     18  C   UNL     1      -2.995  -7.689  -4.348  0.00  0.00    +0.048 A 
ATOM     19  C   UNL     1      -3.857  -8.499  -3.664  0.00  0.00    +0.128 A 
ATOM     20  C   UNL     1      -3.906  -8.431  -2.257  0.00  0.00    +0.026 A 
ATOM     21  C   UNL     1      -3.056  -7.525  -1.576  0.00  0.00    +0.012 A 
ATOM     22  C   UNL     1      -3.101  -7.460  -0.173  0.00  0.00    +0.010 A 
ATOM     23  C   UNL     1      -3.955  -8.269   0.511  0.00  0.00    +0.001 A 
ATOM     24  C   UNL     1      -4.787  -9.164  -0.158  0.00  0.00    +0.001 A 
ATOM     25  C   UNL     1      -4.778  -9.246  -1.517  0.00  0.00    +0.012 A 
BRANCH  19  26
ATOM     26  O   UNL     1      -4.661  -9.364  -4.335  0.00  0.00    -0.495 OA
ATOM     27  C   UNL     1      -4.555  -9.376  -5.760  0.00  0.00    +0.277 C 
ENDBRANCH  19  26
ENDBRANCH  13  16
ENDBRANCH  11  13
ENDBRANCH   1  11
BRANCH   1  28
ATOM     28  C   UNL     1      -2.852  -2.106  -1.018  0.00  0.00    +0.145 C 
BRANCH  28  29
ATOM     29  C   UNL     1      -1.444  -1.567  -1.052  0.00  0.00    +0.309 C 
ATOM     30  O   UNL     1      -0.552  -2.236  -1.516  0.00  0.00    -0.251 OA
BRANCH  29  31
ATOM     31  O   UNL     1      -1.183  -0.343  -0.566  0.00  0.00    -0.462 OA
BRANCH  31  33
ATOM     32  C   UNL     1       0.202   1.627  -0.769  0.00  0.00    +0.052 C 
ATOM     33  C   UNL     1       0.173   0.104  -0.631  0.00  0.00    +0.170 C 
ATOM     34  C   UNL     1       0.907  -0.306   0.648  0.00  0.00    +0.052 C 
ENDBRANCH  31  33
ENDBRANCH  29  31
ENDBRANCH  28  29
ENDBRANCH   1  28
TORSDOF 10
