REMARK  Name = ZINC09768676
REMARK  12 active torsions:
REMARK  status: ('A' for Active; 'I' for Inactive)
REMARK    1  A    between atoms: C_1  and  C_2
REMARK    2  A    between atoms: C_2  and  C_3
REMARK    3  A    between atoms: N_9  and  S_10
REMARK    4  A    between atoms: S_10  and  C_13
REMARK    5  A    between atoms: C_16  and  C_19
REMARK    6  A    between atoms: C_19  and  N_21
REMARK    7  A    between atoms: N_23  and  C_33
REMARK    8  A    between atoms: C_25  and  C_32
REMARK    9  A    between atoms: C_27  and  C_31
REMARK   10  A    between atoms: C_33  and  C_34
REMARK   11  A    between atoms: C_34  and  O_36
REMARK   12  A    between atoms: O_36  and  C_37
REMARK                            x       y       z     vdW  Elec       q    Type
REMARK                         _______ _______ _______ _____ _____    ______ ____
ROOT
ATOM      1  C   UNL     1       2.307  -0.725  -9.204  0.00  0.00    +0.269 C 
ATOM      2  O   UNL     1       3.080  -0.038  -9.848  0.00  0.00    -0.268 OA
ENDROOT
BRANCH   1   3
ATOM      3  N   UNL     1       1.810  -1.847  -9.734  0.00  0.00    -0.152 NA
ATOM      4  C   UNL     1       2.159  -2.213 -10.963  0.00  0.00    +0.167 A 
ATOM      5  N   UNL     1       1.762  -3.310 -11.662  0.00  0.00    -0.310 N 
ATOM      6  C   UNL     1       2.236  -3.526 -12.942  0.00  0.00    +0.061 A 
ATOM      7  C   UNL     1       1.944  -4.588 -13.812  0.00  0.00    -0.026 A 
ATOM      8  C   UNL     1       2.509  -4.647 -15.064  0.00  0.00    +0.008 A 
ATOM      9  C   UNL     1       3.380  -3.665 -15.506  0.00  0.00    -0.049 A 
ATOM     10  C   UNL     1       3.686  -2.607 -14.669  0.00  0.00    +0.020 A 
ATOM     11  C   UNL     1       3.122  -2.547 -13.416  0.00  0.00    +0.039 A 
ATOM     12  S   UNL     1       3.227  -1.403 -12.063  0.00  0.00    -0.052 S 
ATOM     13  C   UNL     1       3.988  -3.749 -16.882  0.00  0.00    +0.044 C 
ATOM     14  C   UNL     1       1.000  -5.676 -13.369  0.00  0.00    +0.046 C 
BRANCH   5  15
ATOM     15  C   UNL     1       0.829  -4.264 -11.058  0.00  0.00    +0.244 C 
BRANCH  15  16
ATOM     16  C   UNL     1      -0.436  -4.317 -11.875  0.00  0.00    +0.327 C 
ATOM     17  O   UNL     1      -0.601  -3.537 -12.783  0.00  0.00    -0.249 OA
BRANCH  16  18
ATOM     18  O   UNL     1      -1.379  -5.230 -11.595  0.00  0.00    -0.467 OA
ATOM     19  C   UNL     1      -2.572  -5.222 -12.424  0.00  0.00    +0.280 C 
ENDBRANCH  16  18
ENDBRANCH  15  16
ENDBRANCH   5  15
ENDBRANCH   1   3
BRANCH   1  23
ATOM     20  C   UNL     1       1.187   0.445  -5.275  0.00  0.00    +0.106 A 
ATOM     21  C   UNL     1       0.676  -0.720  -5.819  0.00  0.00    +0.029 A 
ATOM     22  C   UNL     1       1.031  -1.102  -7.096  0.00  0.00    +0.015 A 
ATOM     23  C   UNL     1       1.917  -0.318  -7.835  0.00  0.00    +0.039 A 
ATOM     24  C   UNL     1       2.433   0.853  -7.279  0.00  0.00    +0.015 A 
ATOM     25  C   UNL     1       2.066   1.227  -6.002  0.00  0.00    +0.029 A 
BRANCH  20  26
ATOM     26  S   UNL     1       0.722   0.931  -3.646  0.00  0.00    +0.061 S 
ATOM     27  O   UNL     1       1.680   1.889  -3.219  0.00  0.00    -0.153 OA
ATOM     28  O   UNL     1       0.467  -0.266  -2.923  0.00  0.00    -0.153 OA
BRANCH  26  34
ATOM     29  C   UNL     1      -0.768   3.142  -4.164  0.00  0.00    +0.080 C 
ATOM     30  C   UNL     1      -1.560   3.925  -3.112  0.00  0.00    +0.021 C 
ATOM     31  C   UNL     1      -2.936   3.280  -2.930  0.00  0.00    +0.003 C 
ATOM     32  C   UNL     1      -2.765   1.843  -2.435  0.00  0.00    +0.017 C 
ATOM     33  C   UNL     1      -1.987   1.036  -3.479  0.00  0.00    +0.110 C 
ATOM     34  N   UNL     1      -0.724   1.728  -3.767  0.00  0.00    -0.174 NA
BRANCH  29  36
ATOM     35  C   UNL     1       0.620   5.101  -4.856  0.00  0.00    +0.005 C 
ATOM     36  C   UNL     1       0.656   3.694  -4.255  0.00  0.00    +0.017 C 
ENDBRANCH  29  36
ENDBRANCH  26  34
ENDBRANCH  20  26
ENDBRANCH   1  23
TORSDOF 8
