REMARK  Name = ZINC04391408
REMARK  4 active torsions:
REMARK  status: ('A' for Active; 'I' for Inactive)
REMARK    1  A    between atoms: C_1  and  C_2
REMARK    2  A    between atoms: C_3  and  C_29
REMARK    3  A    between atoms: C_4  and  C_20
REMARK    4  A    between atoms: C_10  and  C_15
REMARK                            x       y       z     vdW  Elec       q    Type
REMARK                         _______ _______ _______ _____ _____    ______ ____
ROOT
ATOM      1  C   UNL     1       4.992   8.757   3.516  0.00  0.00    +0.061 C 
ATOM      2  C   UNL     1       4.627   7.898   2.333  0.00  0.00    +0.014 C 
ATOM      3  C   UNL     1       4.997   8.272   1.097  0.00  0.00    +0.043 C 
ATOM      4  C   UNL     1       4.659   7.437  -0.103  0.00  0.00    +0.090 C 
ATOM      5  C   UNL     1       3.554   6.460   0.210  0.00  0.00    +0.024 C 
ATOM      6  C   UNL     1       3.242   6.159   1.489  0.00  0.00    +0.016 C 
ATOM      7  N   UNL     1       3.920   6.743   2.525  0.00  0.00    -0.321 N 
ATOM      8  C   UNL     1       2.140   5.180   1.810  0.00  0.00    +0.060 C 
ATOM      9  C   UNL     1       2.038   4.138   0.695  0.00  0.00    +0.039 C 
ATOM     10  C   UNL     1       1.772   4.861  -0.629  0.00  0.00    +0.088 C 
ATOM     11  C   UNL     1       2.864   5.870  -0.863  0.00  0.00    +0.162 C 
ATOM     12  O   UNL     1       3.155   6.178  -2.001  0.00  0.00    -0.292 OA
ATOM     13  H   UNL     1       3.894   6.273   3.520  0.00  0.00    +0.152 HD
ENDROOT
BRANCH   3  14
ATOM     14  C   UNL     1       5.721   9.477   0.924  0.00  0.00    +0.248 C 
ATOM     15  O   UNL     1       5.163  10.463   0.477  0.00  0.00    -0.270 OA
ATOM     16  N   UNL     1       7.027   9.532   1.253  0.00  0.00    -0.267 N 
ATOM     17  C   UNL     1       7.711  10.743   1.187  0.00  0.00    +0.125 A 
ATOM     18  C   UNL     1       9.081  10.774   1.421  0.00  0.00    +0.044 A 
ATOM     19  C   UNL     1       9.748  11.984   1.352  0.00  0.00    +0.005 A 
ATOM     20  C   UNL     1       9.020  13.127   1.048  0.00  0.00    +0.020 A 
ATOM     21  C   UNL     1       7.661  13.022   0.826  0.00  0.00    +0.113 A 
ATOM     22  N   UNL     1       7.052  11.854   0.895  0.00  0.00    -0.240 NA
ATOM     23  H   UNL     1       7.552   8.621   1.575  0.00  0.00    +0.157 HD
ENDBRANCH   3  14
BRANCH   4  24
ATOM     24  C   UNL     1       5.884   6.676  -0.538  0.00  0.00    -0.032 A 
ATOM     25  C   UNL     1       6.474   5.769   0.323  0.00  0.00    +0.008 A 
ATOM     26  C   UNL     1       7.596   5.064  -0.072  0.00  0.00    +0.050 A 
ATOM     27  C   UNL     1       8.138   5.273  -1.330  0.00  0.00    +0.166 A 
ATOM     28  C   UNL     1       7.547   6.190  -2.195  0.00  0.00    +0.167 A 
ATOM     29  C   UNL     1       6.420   6.889  -1.794  0.00  0.00    +0.054 A 
ATOM     30  O   UNL     1       8.260   6.214  -3.359  0.00  0.00    -0.453 OA
ATOM     31  C   UNL     1       9.048   5.009  -3.352  0.00  0.00    +0.466 C 
ATOM     32  O   UNL     1       9.221   4.722  -1.952  0.00  0.00    -0.453 OA
ENDBRANCH   4  24
BRANCH   9  33
ATOM     33  C   UNL     1       0.905   3.189   0.990  0.00  0.00    -0.006 A 
ATOM     34  C   UNL     1       0.939   1.845   1.161  0.00  0.00    +0.011 A 
ATOM     35  C   UNL     1      -0.239   1.173   1.427  0.00  0.00    +0.008 A 
ATOM     36  C   UNL     1      -1.395   1.876   1.503  0.00  0.00    +0.045 A 
ATOM     37  S   UNL     1      -0.831   3.544   1.205  0.00  0.00    -0.101 S 
ENDBRANCH   9  33
TORSDOF 3
