REMARK  Name = ZINC39884015
REMARK  10 active torsions:
REMARK  status: ('A' for Active; 'I' for Inactive)
REMARK    1  A    between atoms: C_1  and  C_2
REMARK    2  A    between atoms: C_2  and  O_3
REMARK    3  A    between atoms: O_3  and  C_4
REMARK    4  A    between atoms: C_4  and  C_6
REMARK    5  A    between atoms: C_6  and  N_7
REMARK    6  A    between atoms: C_25  and  C_35
REMARK    7  A    between atoms: C_38  and  C_41
REMARK    8  A    between atoms: C_41  and  C_42
REMARK    9  A    between atoms: C_41  and  C_43
REMARK   10  A    between atoms: C_41  and  C_44
REMARK                            x       y       z     vdW  Elec       q    Type
REMARK                         _______ _______ _______ _____ _____    ______ ____
ROOT
ATOM      1  N   UNL     1       1.497  -3.844   2.426  0.00  0.00    -0.231 N 
ATOM      2  C   UNL     1       0.516  -4.582   2.957  0.00  0.00    +0.226 C 
ATOM      3  O   UNL     1      -0.463  -4.143   3.521  0.00  0.00    -0.275 OA
ATOM      4  C   UNL     1       0.818  -6.051   2.744  0.00  0.00    +0.091 C 
ATOM      5  C   UNL     1       1.328  -6.610   4.129  0.00  0.00    +0.007 C 
ATOM      6  C   UNL     1       2.268  -7.742   3.558  0.00  0.00    +0.010 C 
ATOM      7  C   UNL     1       3.200  -6.783   2.708  0.00  0.00    +0.015 C 
ATOM      8  C   UNL     1       2.116  -6.018   1.884  0.00  0.00    +0.092 C 
ATOM      9  C   UNL     1       2.457  -4.550   1.817  0.00  0.00    +0.226 C 
ATOM     10  O   UNL     1       3.447  -4.083   1.295  0.00  0.00    -0.275 OA
ATOM     11  C   UNL     1       3.667  -5.895   3.880  0.00  0.00    +0.061 C 
ATOM     12  C   UNL     1       2.294  -5.501   4.535  0.00  0.00    +0.019 C 
ATOM     13  C   UNL     1       2.443  -5.000   5.927  0.00  0.00    +0.063 C 
ATOM     14  C   UNL     1       3.322  -3.776   5.891  0.00  0.00    +0.032 A 
ATOM     15  C   UNL     1       4.164  -3.350   4.924  0.00  0.00    +0.087 A 
ATOM     16  N   UNL     1       4.813  -2.171   5.200  0.00  0.00    -0.311 N 
ATOM     17  H   UNL     1       5.427  -1.793   4.552  0.00  0.00    +0.170 HD
ATOM     18  C   UNL     1       4.597  -1.541   6.370  0.00  0.00    +0.289 A 
ATOM     19  O   UNL     1       5.088  -0.500   6.770  0.00  0.00    -0.260 OA
ATOM     20  S   UNL     1       3.485  -2.536   7.148  0.00  0.00    -0.030 S 
ATOM     21  S   UNL     1       4.457  -4.344   3.385  0.00  0.00    -0.103 S 
ENDROOT
BRANCH  13  22
ATOM     22  C   UNL     1       1.091  -4.640   6.486  0.00  0.00    -0.039 A 
ATOM     23  C   UNL     1       0.320  -3.675   5.863  0.00  0.00    +0.004 A 
ATOM     24  C   UNL     1      -0.921  -3.345   6.376  0.00  0.00    +0.004 A 
ATOM     25  C   UNL     1      -1.391  -3.979   7.511  0.00  0.00    -0.042 A 
ATOM     26  C   UNL     1      -0.621  -4.944   8.133  0.00  0.00    +0.004 A 
ATOM     27  C   UNL     1       0.618  -5.277   7.618  0.00  0.00    +0.004 A 
BRANCH  25  28
ATOM     28  C   UNL     1      -2.743  -3.619   8.070  0.00  0.00    -0.013 C 
ATOM     29  C   UNL     1      -3.820  -3.895   7.019  0.00  0.00    +0.015 C 
ATOM     30  C   UNL     1      -3.020  -4.460   9.318  0.00  0.00    +0.015 C 
ATOM     31  C   UNL     1      -2.762  -2.135   8.442  0.00  0.00    +0.015 C 
ENDBRANCH  25  28
ENDBRANCH  13  22
BRANCH   1  32
ATOM     32  C   UNL     1       1.516  -2.381   2.500  0.00  0.00    +0.236 C 
BRANCH  32  33
ATOM     33  C   UNL     1       0.801  -1.808   1.304  0.00  0.00    +0.325 C 
ATOM     34  O   UNL     1       0.324  -2.546   0.475  0.00  0.00    -0.249 OA
BRANCH  33  35
ATOM     35  O   UNL     1       0.693  -0.477   1.160  0.00  0.00    -0.464 OA
BRANCH  35  37
ATOM     36  C   UNL     1      -0.019   1.526   0.010  0.00  0.00    +0.048 C 
ATOM     37  C   UNL     1       0.002  -0.004   0.002  0.00  0.00    +0.229 C 
ENDBRANCH  35  37
ENDBRANCH  33  35
ENDBRANCH  32  33
ENDBRANCH   1  32
TORSDOF 6
