REMARK  Name = ZINC15942803
REMARK  13 active torsions:
REMARK  status: ('A' for Active; 'I' for Inactive)
REMARK    1  A    between atoms: C_1  and  C_2
REMARK    2  A    between atoms: C_2  and  O_3
REMARK    3  A    between atoms: O_3  and  C_4
REMARK    4  A    between atoms: C_4  and  C_6
REMARK    5  A    between atoms: C_7  and  C_31
REMARK    6  A    between atoms: N_8  and  C_30
REMARK    7  A    between atoms: C_9  and  C_29
REMARK    8  A    between atoms: C_10  and  S_11
REMARK    9  A    between atoms: S_11  and  N_14
REMARK   10  A    between atoms: N_14  and  C_15
REMARK   11  A    between atoms: C_18  and  C_21
REMARK   12  A    between atoms: C_21  and  N_22
REMARK   13  A    between atoms: C_25  and  C_28
REMARK                            x       y       z     vdW  Elec       q    Type
REMARK                         _______ _______ _______ _____ _____    ______ ____
ROOT
ATOM      1  N   UNL     1      -3.553  -1.037   3.327  0.00  0.00    -0.216 N 
ATOM      2  H   UNL     1      -2.847  -0.377   3.398  0.00  0.00    +0.174 HD
ENDROOT
BRANCH   1   3
ATOM      3  C   UNL     1      -4.889  -0.649   3.457  0.00  0.00    +0.048 A 
ATOM      4  C   UNL     1      -5.836  -1.097   2.546  0.00  0.00    +0.025 A 
ATOM      5  C   UNL     1      -7.156  -0.712   2.677  0.00  0.00    +0.003 A 
ATOM      6  C   UNL     1      -7.534   0.121   3.715  0.00  0.00    -0.064 A 
ATOM      7  C   UNL     1      -6.593   0.570   4.623  0.00  0.00    +0.003 A 
ATOM      8  C   UNL     1      -5.273   0.183   4.501  0.00  0.00    +0.025 A 
BRANCH   6   9
ATOM      9  C   UNL     1      -8.974   0.541   3.854  0.00  0.00    -0.043 C 
BRANCH   9  10
ATOM     10  N   UNL     1      -9.687  -0.428   4.698  0.00  0.00    +0.382 N 
ATOM     11  C   UNL     1      -9.130  -0.395   6.056  0.00  0.00    -0.078 C 
ATOM     12  C   UNL     1      -9.814  -1.458   6.918  0.00  0.00    -0.016 C 
ATOM     13  C   UNL     1     -11.318  -1.173   6.973  0.00  0.00    -0.018 C 
ATOM     14  C   UNL     1     -11.874  -1.137   5.547  0.00  0.00    -0.016 C 
ATOM     15  C   UNL     1     -11.114  -0.085   4.736  0.00  0.00    -0.078 C 
ATOM     16  C   UNL     1     -12.019  -2.277   7.767  0.00  0.00    +0.007 C 
ATOM     17  H   UNL     1      -9.575  -1.354   4.313  0.00  0.00    -0.081 HD
ENDBRANCH   9  10
ENDBRANCH   6   9
ENDBRANCH   1   3
BRANCH   1  18
ATOM     18  S   UNL     1      -3.177  -2.626   3.051  0.00  0.00    +0.075 S 
ATOM     19  O   UNL     1      -3.941  -3.391   3.974  0.00  0.00    -0.150 OA
ATOM     20  O   UNL     1      -1.759  -2.703   2.988  0.00  0.00    -0.150 OA
BRANCH  18  25
ATOM     21  C   UNL     1      -3.141  -2.705   0.162  0.00  0.00    +0.106 A 
ATOM     22  C   UNL     1      -3.964  -3.228  -0.812  0.00  0.00    +0.031 A 
ATOM     23  N   UNL     1      -5.011  -3.818  -0.205  0.00  0.00    -0.349 N 
ATOM     24  C   UNL     1      -4.904  -3.700   1.150  0.00  0.00    +0.043 A 
ATOM     25  C   UNL     1      -3.775  -3.032   1.444  0.00  0.00    +0.143 A 
ATOM     26  C   UNL     1      -5.889  -4.238   2.155  0.00  0.00    +0.065 C 
ATOM     27  C   UNL     1      -6.110  -4.493  -0.901  0.00  0.00    +0.149 C 
ATOM     28  C   UNL     1      -3.733  -3.152  -2.299  0.00  0.00    +0.064 C 
BRANCH  21  29
ATOM     29  C   UNL     1      -1.881  -1.973  -0.043  0.00  0.00    +0.343 C 
ATOM     30  O   UNL     1      -0.829  -2.579  -0.096  0.00  0.00    -0.245 OA
BRANCH  29  31
ATOM     31  O   UNL     1      -1.894  -0.631  -0.171  0.00  0.00    -0.461 OA
BRANCH  31  33
ATOM     32  C   UNL     1      -0.849   1.524  -0.491  0.00  0.00    +0.048 C 
ATOM     33  C   UNL     1      -0.635   0.014  -0.367  0.00  0.00    +0.229 C 
ENDBRANCH  31  33
ENDBRANCH  29  31
ENDBRANCH  21  29
ENDBRANCH  18  25
ENDBRANCH   1  18
TORSDOF 8
