REMARK  Name = ZINC63350926
REMARK  16 active torsions:
REMARK  status: ('A' for Active; 'I' for Inactive)
REMARK    1  A    between atoms: C_1  and  C_2
REMARK    2  A    between atoms: C_2  and  C_3
REMARK    3  A    between atoms: C_3  and  C_4
REMARK    4  A    between atoms: C_4  and  C_5
REMARK    5  A    between atoms: C_12  and  O_17
REMARK    6  A    between atoms: C_14  and  C_16
REMARK    7  A    between atoms: O_17  and  C_18
REMARK    8  A    between atoms: C_18  and  C_20
REMARK    9  A    between atoms: C_20  and  C_22
REMARK   10  A    between atoms: C_20  and  N_32
REMARK   11  A    between atoms: C_22  and  C_23
REMARK   12  A    between atoms: C_33  and  O_35
REMARK   13  A    between atoms: O_35  and  C_36
REMARK   14  A    between atoms: C_36  and  C_37
REMARK   15  A    between atoms: C_36  and  C_38
REMARK   16  A    between atoms: C_36  and  C_39
REMARK                            x       y       z     vdW  Elec       q    Type
REMARK                         _______ _______ _______ _____ _____    ______ ____
ROOT
ATOM      1  C   UNL     1      -3.365  -0.941  -1.789  0.00  0.00    +0.189 C 
ENDROOT
BRANCH   1   2
ATOM      2  N   UNL     1      -4.517  -0.196  -2.303  0.00  0.00    -0.268 N 
ATOM      3  C   UNL     1      -5.463  -0.831  -3.024  0.00  0.00    +0.401 C 
ATOM      4  O   UNL     1      -5.360  -2.021  -3.247  0.00  0.00    -0.226 OA
ATOM      5  H   UNL     1      -4.599   0.754  -2.125  0.00  0.00    +0.153 HD
BRANCH   3   6
ATOM      6  O   UNL     1      -6.522  -0.146  -3.496  0.00  0.00    -0.445 OA
BRANCH   6   7
ATOM      7  C   UNL     1      -7.486  -0.882  -4.252  0.00  0.00    +0.107 C 
ATOM      8  C   UNL     1      -8.071  -1.998  -3.383  0.00  0.00    +0.055 C 
ATOM      9  C   UNL     1      -8.607   0.057  -4.700  0.00  0.00    +0.055 C 
ATOM     10  C   UNL     1      -6.811  -1.494  -5.481  0.00  0.00    +0.055 C 
ENDBRANCH   6   7
ENDBRANCH   3   6
ENDBRANCH   1   2
BRANCH   1  11
ATOM     11  C   UNL     1      -2.602  -1.543  -2.941  0.00  0.00    +0.333 C 
ATOM     12  O   UNL     1      -3.141  -1.689  -4.012  0.00  0.00    -0.248 OA
BRANCH  11  13
ATOM     13  O   UNL     1      -1.323  -1.918  -2.776  0.00  0.00    -0.424 OA
BRANCH  13  21
ATOM     14  C   UNL     1       1.490  -1.639  -3.085  0.00  0.00    -0.026 A 
ATOM     15  C   UNL     1       2.827  -1.574  -3.315  0.00  0.00    +0.096 A 
ATOM     16  C   UNL     1       3.387  -2.282  -4.399  0.00  0.00    +0.337 A 
ATOM     17  O   UNL     1       4.588  -2.216  -4.593  0.00  0.00    -0.245 OA
ATOM     18  O   UNL     1       2.631  -3.026  -5.221  0.00  0.00    -0.422 OA
ATOM     19  C   UNL     1       1.296  -3.132  -5.048  0.00  0.00    +0.143 A 
ATOM     20  C   UNL     1       0.673  -2.457  -3.983  0.00  0.00    +0.063 A 
ATOM     21  C   UNL     1      -0.714  -2.570  -3.799  0.00  0.00    +0.143 A 
ATOM     22  C   UNL     1      -1.454  -3.352  -4.668  0.00  0.00    +0.050 A 
ATOM     23  C   UNL     1      -0.832  -4.018  -5.711  0.00  0.00    -0.043 A 
ATOM     24  C   UNL     1       0.529  -3.905  -5.909  0.00  0.00    +0.050 A 
ATOM     25  C   UNL     1      -1.653  -4.866  -6.648  0.00  0.00    +0.044 C 
BRANCH  14  26
ATOM     26  C   UNL     1       0.865  -0.894  -1.934  0.00  0.00    +0.036 C 
BRANCH  26  27
ATOM     27  C   UNL     1       0.334   0.454  -2.427  0.00  0.00    +0.004 C 
BRANCH  27  29
ATOM     28  C   UNL     1      -0.832   2.558  -1.751  0.00  0.00    +0.004 C 
ATOM     29  C   UNL     1      -0.300   1.210  -1.258  0.00  0.00    -0.003 C 
ENDBRANCH  27  29
ENDBRANCH  26  27
ENDBRANCH  14  26
ENDBRANCH  13  21
ENDBRANCH  11  13
ENDBRANCH   1  11
BRANCH   1  30
ATOM     30  C   UNL     1      -3.851  -2.055  -0.861  0.00  0.00    +0.067 C 
BRANCH  30  31
ATOM     31  C   UNL     1      -4.507  -1.448   0.353  0.00  0.00    -0.039 C 
ATOM     32  C   UNL     1      -5.827  -1.221   0.535  0.00  0.00    -0.001 A 
ATOM     33  C   UNL     1      -7.004  -1.461  -0.309  0.00  0.00    +0.010 A 
ATOM     34  C   UNL     1      -8.227  -1.119   0.157  0.00  0.00    +0.001 A 
ATOM     35  C   UNL     1      -8.398  -0.543   1.423  0.00  0.00    +0.002 A 
ATOM     36  C   UNL     1      -7.366  -0.292   2.256  0.00  0.00    +0.026 A 
ATOM     37  C   UNL     1      -6.036  -0.612   1.868  0.00  0.00    +0.043 A 
ATOM     38  N   UNL     1      -4.888  -0.468   2.486  0.00  0.00    -0.380 N 
ATOM     39  C   UNL     1      -3.822  -0.976   1.615  0.00  0.00    +0.144 C 
ATOM     40  H   UNL     1      -4.765  -0.092   3.371  0.00  0.00    +0.160 HD
ENDBRANCH  30  31
ENDBRANCH   1  30
TORSDOF 11
