REMARK  Name = ZINC01029504
REMARK  6 active torsions:
REMARK  status: ('A' for Active; 'I' for Inactive)
REMARK    1  A    between atoms: C_1  and  C_2
REMARK    2  A    between atoms: C_5  and  C_9
REMARK    3  A    between atoms: C_6  and  C_8
REMARK    4  A    between atoms: C_9  and  C_11
REMARK    5  A    between atoms: C_12  and  N_29
REMARK    6  A    between atoms: C_14  and  C_23
REMARK                            x       y       z     vdW  Elec       q    Type
REMARK                         _______ _______ _______ _____ _____    ______ ____
ROOT
ATOM      1  C   UNL     1      -0.888   6.291   0.016  0.00  0.00    +0.083 A 
ATOM      2  C   UNL     1       0.373   5.727   0.084  0.00  0.00    +0.053 A 
ATOM      3  C   UNL     1       0.476   4.305   0.358  0.00  0.00    +0.037 A 
ATOM      4  C   UNL     1       1.649   3.502   0.475  0.00  0.00    -0.001 A 
ATOM      5  C   UNL     1       1.514   2.146   0.746  0.00  0.00    -0.018 A 
ATOM      6  C   UNL     1       0.254   1.591   0.897  0.00  0.00    +0.046 A 
ATOM      7  N   UNL     1      -0.826   2.345   0.779  0.00  0.00    -0.244 NA
ATOM      8  C   UNL     1      -0.755   3.634   0.530  0.00  0.00    +0.112 A 
ATOM      9  S   UNL     1      -1.972   4.910   0.321  0.00  0.00    -0.064 S 
ATOM     10  C   UNL     1       0.380   0.109   1.184  0.00  0.00    +0.056 C 
ATOM     11  C   UNL     1       1.845  -0.094   1.625  0.00  0.00    +0.011 C 
ATOM     12  C   UNL     1       2.568   1.074   0.921  0.00  0.00    +0.038 C 
ENDROOT
BRANCH   4  13
ATOM     13  C   UNL     1       2.993   4.106   0.312  0.00  0.00    -0.014 A 
ATOM     14  C   UNL     1       3.853   4.250   1.405  0.00  0.00    +0.028 A 
ATOM     15  C   UNL     1       5.098   4.812   1.208  0.00  0.00    +0.111 A 
ATOM     16  N   UNL     1       5.474   5.220   0.011  0.00  0.00    -0.263 NA
ATOM     17  C   UNL     1       4.692   5.107  -1.045  0.00  0.00    +0.111 A 
ATOM     18  C   UNL     1       3.433   4.552  -0.938  0.00  0.00    +0.028 A 
ENDBRANCH   4  13
BRANCH   2  19
ATOM     19  N   UNL     1       1.509   6.500  -0.104  0.00  0.00    -0.356 N 
ATOM     20  H   UNL     1       1.443   7.359  -0.550  0.00  0.00    +0.142 HD
ATOM     21  H   UNL     1       2.369   6.182   0.211  0.00  0.00    +0.142 HD
ENDBRANCH   2  19
BRANCH   1  22
ATOM     22  C   UNL     1      -1.234   7.639  -0.235  0.00  0.00    +0.202 C 
ATOM     23  O   UNL     1      -0.363   8.458  -0.470  0.00  0.00    -0.286 OA
BRANCH  22  28
ATOM     24  C   UNL     1      -6.757   9.256  -0.147  0.00  0.00    +0.044 C 
ATOM     25  C   UNL     1      -5.311   8.833  -0.170  0.00  0.00    -0.050 A 
ATOM     26  C   UNL     1      -4.481   9.156   0.889  0.00  0.00    +0.004 A 
ATOM     27  C   UNL     1      -3.158   8.768   0.876  0.00  0.00    +0.012 A 
ATOM     28  C   UNL     1      -2.653   8.055  -0.213  0.00  0.00    +0.026 A 
ATOM     29  C   UNL     1      -3.495   7.732  -1.278  0.00  0.00    -0.039 A 
ATOM     30  C   UNL     1      -4.818   8.122  -1.250  0.00  0.00    +0.007 A 
ATOM     31  C   UNL     1      -2.961   6.958  -2.455  0.00  0.00    +0.044 C 
ENDBRANCH  22  28
ENDBRANCH   1  22
TORSDOF 4
