REMARK  Name = ZINC12652719
REMARK  13 active torsions:
REMARK  status: ('A' for Active; 'I' for Inactive)
REMARK    1  A    between atoms: C_1  and  C_2
REMARK    2  A    between atoms: C_2  and  C_3
REMARK    3  A    between atoms: C_3  and  C_27
REMARK    4  A    between atoms: N_4  and  N_5
REMARK    5  A    between atoms: N_5  and  C_6
REMARK    6  A    between atoms: C_9  and  N_24
REMARK    7  A    between atoms: C_11  and  S_12
REMARK    8  A    between atoms: S_12  and  N_15
REMARK    9  A    between atoms: N_15  and  C_16
REMARK   10  A    between atoms: C_19  and  C_23
REMARK   11  A    between atoms: C_21  and  C_22
REMARK   12  A    between atoms: C_30  and  O_33
REMARK   13  A    between atoms: O_33  and  C_34
REMARK                            x       y       z     vdW  Elec       q    Type
REMARK                         _______ _______ _______ _____ _____    ______ ____
ROOT
ATOM      1  C   UNL     1       1.259   0.967  -2.877  0.00  0.00    +0.075 A 
ATOM      2  C   UNL     1       1.087   1.342  -4.205  0.00  0.00    +0.029 A 
ATOM      3  C   UNL     1       2.174   1.384  -5.055  0.00  0.00    +0.035 A 
ATOM      4  C   UNL     1       3.434   1.058  -4.585  0.00  0.00    +0.128 A 
ATOM      5  C   UNL     1       3.610   0.689  -3.264  0.00  0.00    +0.063 A 
ATOM      6  C   UNL     1       2.527   0.645  -2.408  0.00  0.00    +0.133 A 
ENDROOT
BRANCH   6   7
ATOM      7  S   UNL     1       2.752   0.174  -0.725  0.00  0.00    +0.074 S 
ATOM      8  O   UNL     1       2.095   1.157   0.063  0.00  0.00    -0.150 OA
ATOM      9  O   UNL     1       4.132  -0.130  -0.570  0.00  0.00    -0.150 OA
BRANCH   7  10
ATOM     10  N   UNL     1       1.927  -1.243  -0.499  0.00  0.00    -0.216 N 
ATOM     11  H   UNL     1       1.216  -1.291   0.159  0.00  0.00    +0.174 HD
BRANCH  10  12
ATOM     12  C   UNL     1       2.254  -2.371  -1.256  0.00  0.00    +0.051 A 
ATOM     13  C   UNL     1       3.575  -2.609  -1.614  0.00  0.00    +0.025 A 
ATOM     14  C   UNL     1       3.894  -3.722  -2.367  0.00  0.00    +0.005 A 
ATOM     15  C   UNL     1       2.902  -4.604  -2.755  0.00  0.00    -0.050 A 
ATOM     16  C   UNL     1       1.587  -4.370  -2.400  0.00  0.00    +0.008 A 
ATOM     17  C   UNL     1       1.260  -3.256  -1.652  0.00  0.00    -0.028 A 
ATOM     18  C   UNL     1      -0.174  -3.002  -1.265  0.00  0.00    +0.046 C 
ATOM     19  C   UNL     1       3.256  -5.821  -3.571  0.00  0.00    +0.044 C 
ENDBRANCH  10  12
ENDBRANCH   7  10
ENDBRANCH   6   7
BRANCH   4  20
ATOM     20  N   UNL     1       4.597   1.104  -5.500  0.00  0.00    +0.056 N 
ATOM     21  O   UNL     1       5.707   0.818  -5.089  0.00  0.00    -0.126 OA
ATOM     22  O   UNL     1       4.444   1.429  -6.664  0.00  0.00    -0.126 OA
ENDBRANCH   4  20
BRANCH   1  23
ATOM     23  N   UNL     1       0.162   0.918  -2.016  0.00  0.00    -0.236 N 
ATOM     24  H   UNL     1       0.293   0.724  -1.075  0.00  0.00    +0.174 HD
BRANCH  23  26
ATOM     25  C   UNL     1      -2.137   1.201  -1.696  0.00  0.00    +0.066 C 
ATOM     26  N   UNL     1      -1.128   1.150  -2.512  0.00  0.00    -0.186 NA
BRANCH  25  27
ATOM     27  C   UNL     1      -3.505   1.351  -2.225  0.00  0.00    -0.002 A 
ATOM     28  C   UNL     1      -4.593   1.400  -1.350  0.00  0.00    +0.013 A 
ATOM     29  C   UNL     1      -5.870   1.545  -1.848  0.00  0.00    +0.046 A 
ATOM     30  C   UNL     1      -6.077   1.630  -3.219  0.00  0.00    +0.127 A 
ATOM     31  C   UNL     1      -4.999   1.576  -4.093  0.00  0.00    +0.046 A 
ATOM     32  C   UNL     1      -3.718   1.437  -3.603  0.00  0.00    +0.013 A 
BRANCH  30  33
ATOM     33  O   UNL     1      -7.338   1.768  -3.706  0.00  0.00    -0.434 OA
BRANCH  33  34
ATOM     34  C   UNL     1      -8.400   1.816  -2.752  0.00  0.00    +0.541 C 
ATOM     35  F   UNL     1      -8.412   0.633  -2.006  0.00  0.00    -0.166 F 
ATOM     36  F   UNL     1      -8.208   2.905  -1.895  0.00  0.00    -0.166 F 
ENDBRANCH  33  34
ENDBRANCH  30  33
ENDBRANCH  25  27
BRANCH  25  38
ATOM     37  C   UNL     1      -1.687   2.510   0.361  0.00  0.00    +0.010 C 
ATOM     38  C   UNL     1      -1.909   1.108  -0.209  0.00  0.00    +0.054 C 
ENDBRANCH  25  38
ENDBRANCH  23  26
ENDBRANCH   1  23
TORSDOF 10
