REMARK  Name = ZINC34683710
REMARK  9 active torsions:
REMARK  status: ('A' for Active; 'I' for Inactive)
REMARK    1  A    between atoms: C_1  and  C_2
REMARK    2  A    between atoms: C_2  and  C_3
REMARK    3  A    between atoms: C_2  and  C_4
REMARK    4  A    between atoms: C_7  and  C_10
REMARK    5  A    between atoms: C_10  and  N_11
REMARK    6  A    between atoms: C_14  and  N_17
REMARK    7  A    between atoms: N_17  and  C_18
REMARK    8  A    between atoms: N_17  and  S_25
REMARK    9  A    between atoms: S_25  and  C_28
REMARK                            x       y       z     vdW  Elec       q    Type
REMARK                         _______ _______ _______ _____ _____    ______ ____
ROOT
ATOM      1  N   UNL     1      -9.411   1.637  -1.575  0.00  0.00    -0.200 N 
ENDROOT
BRANCH   1   5
ATOM      2  N   UNL     1      -6.832  -1.659  -1.078  0.00  0.00    +0.382 N 
ATOM      3  C   UNL     1      -6.563  -0.480  -0.246  0.00  0.00    -0.077 C 
ATOM      4  C   UNL     1      -7.247   0.746  -0.856  0.00  0.00    +0.006 C 
ATOM      5  C   UNL     1      -8.758   0.500  -0.922  0.00  0.00    +0.095 C 
ATOM      6  C   UNL     1      -9.022  -0.774  -1.730  0.00  0.00    +0.006 C 
ATOM      7  C   UNL     1      -8.272  -1.943  -1.088  0.00  0.00    -0.077 C 
ATOM      8  H   UNL     1      -6.519  -1.482  -2.021  0.00  0.00    -0.081 HD
BRANCH   2   9
ATOM      9  C   UNL     1      -6.110  -2.816  -0.532  0.00  0.00    -0.043 C 
BRANCH   9  13
ATOM     10  C   UNL     1      -1.902  -2.136  -0.822  0.00  0.00    -0.045 A 
ATOM     11  C   UNL     1      -2.591  -1.738   0.309  0.00  0.00    +0.004 A 
ATOM     12  C   UNL     1      -3.952  -1.958   0.403  0.00  0.00    +0.002 A 
ATOM     13  C   UNL     1      -4.625  -2.575  -0.635  0.00  0.00    -0.064 A 
ATOM     14  C   UNL     1      -3.938  -2.972  -1.766  0.00  0.00    +0.002 A 
ATOM     15  C   UNL     1      -2.577  -2.749  -1.862  0.00  0.00    +0.004 A 
BRANCH  10  17
ATOM     16  C   UNL     1      -0.135  -0.396  -0.822  0.00  0.00    +0.012 C 
ATOM     17  C   UNL     1      -0.418  -1.897  -0.924  0.00  0.00    +0.013 C 
ATOM     18  C   UNL     1       0.296  -2.629   0.214  0.00  0.00    +0.012 C 
ENDBRANCH  10  17
ENDBRANCH   9  13
ENDBRANCH   2   9
ENDBRANCH   1   5
BRANCH   1  19
ATOM     19  C   UNL     1      -9.139   1.925  -2.916  0.00  0.00    +0.052 A 
ATOM     20  C   UNL     1      -7.912   2.466  -3.276  0.00  0.00    +0.027 A 
ATOM     21  C   UNL     1      -7.646   2.749  -4.601  0.00  0.00    +0.040 A 
ATOM     22  C   UNL     1      -8.601   2.494  -5.570  0.00  0.00    +0.124 A 
ATOM     23  C   UNL     1      -9.825   1.954  -5.213  0.00  0.00    +0.040 A 
ATOM     24  C   UNL     1     -10.094   1.665  -3.890  0.00  0.00    +0.027 A 
ATOM     25  F   UNL     1      -8.338   2.772  -6.866  0.00  0.00    -0.205 F 
ENDBRANCH   1  19
BRANCH   1  26
ATOM     26  S   UNL     1     -10.471   2.583  -0.723  0.00  0.00    +0.075 S 
ATOM     27  O   UNL     1     -11.245   3.290  -1.683  0.00  0.00    -0.150 OA
ATOM     28  O   UNL     1     -11.060   1.746   0.262  0.00  0.00    -0.150 OA
BRANCH  26  29
ATOM     29  C   UNL     1      -9.518   3.786   0.142  0.00  0.00    +0.109 A 
ATOM     30  C   UNL     1      -9.051   3.512   1.414  0.00  0.00    +0.031 A 
ATOM     31  C   UNL     1      -8.303   4.455   2.093  0.00  0.00    +0.040 A 
ATOM     32  C   UNL     1      -8.021   5.673   1.500  0.00  0.00    +0.124 A 
ATOM     33  C   UNL     1      -8.489   5.946   0.225  0.00  0.00    +0.040 A 
ATOM     34  C   UNL     1      -9.233   5.000  -0.454  0.00  0.00    +0.031 A 
ATOM     35  F   UNL     1      -7.290   6.596   2.163  0.00  0.00    -0.205 F 
ENDBRANCH  26  29
ENDBRANCH   1  26
TORSDOF 7
