REMARK  Name = ZINC01993291
REMARK  11 active torsions:
REMARK  status: ('A' for Active; 'I' for Inactive)
REMARK    1  A    between atoms: C_1  and  C_2
REMARK    2  A    between atoms: C_5  and  N_9
REMARK    3  A    between atoms: C_6  and  C_8
REMARK    4  A    between atoms: C_10  and  C_12
REMARK    5  A    between atoms: C_12  and  O_13
REMARK    6  A    between atoms: O_13  and  C_14
REMARK    7  A    between atoms: C_21  and  C_34
REMARK    8  A    between atoms: C_22  and  O_25
REMARK    9  A    between atoms: O_25  and  C_26
REMARK   10  A    between atoms: C_28  and  C_33
REMARK   11  A    between atoms: C_30  and  C_32
REMARK                            x       y       z     vdW  Elec       q    Type
REMARK                         _______ _______ _______ _____ _____    ______ ____
ROOT
ATOM      1  C   UNL     1       3.626   1.603  -0.051  0.00  0.00    +0.125 A 
ATOM      2  C   UNL     1       3.782   2.988  -0.059  0.00  0.00    +0.046 A 
ATOM      3  C   UNL     1       5.030   3.542  -0.073  0.00  0.00    +0.019 A 
ATOM      4  C   UNL     1       6.154   2.715  -0.090  0.00  0.00    +0.068 A 
ATOM      5  C   UNL     1       6.006   1.317  -0.087  0.00  0.00    +0.143 A 
ATOM      6  C   UNL     1       4.731   0.769  -0.068  0.00  0.00    +0.092 A 
ATOM      7  O   UNL     1       7.099   0.528  -0.104  0.00  0.00    -0.447 OA
ATOM      8  C   UNL     1       8.343   1.025  -0.123  0.00  0.00    +0.254 A 
ATOM      9  C   UNL     1       8.600   2.348  -0.128  0.00  0.00    +0.222 A 
ATOM     10  C   UNL     1       7.517   3.273  -0.111  0.00  0.00    +0.235 A 
ATOM     11  O   UNL     1       7.711   4.477  -0.115  0.00  0.00    -0.283 OA
ENDROOT
BRANCH   8  12
ATOM     12  C   UNL     1       9.504   0.064  -0.141  0.00  0.00    +0.454 C 
ATOM     13  F   UNL     1       9.884  -0.233   1.172  0.00  0.00    -0.163 F 
ATOM     14  F   UNL     1       9.126  -1.113  -0.794  0.00  0.00    -0.163 F 
ATOM     15  F   UNL     1      10.582   0.647  -0.817  0.00  0.00    -0.163 F 
ENDBRANCH   8  12
BRANCH   1  16
ATOM     16  O   UNL     1       2.379   1.067  -0.031  0.00  0.00    -0.483 OA
BRANCH  16  17
ATOM     17  C   UNL     1       1.280   1.980  -0.015  0.00  0.00    +0.324 C 
BRANCH  17  19
ATOM     18  N   UNL     1      -1.191   1.867   0.018  0.00  0.00    -0.282 N 
ATOM     19  C   UNL     1      -0.014   1.209   0.005  0.00  0.00    +0.255 C 
ATOM     20  O   UNL     1       0.003  -0.004   0.005  0.00  0.00    -0.272 OA
ATOM     21  H   UNL     1      -1.205   2.833   0.099  0.00  0.00    +0.155 HD
BRANCH  18  26
ATOM     22  C   UNL     1      -6.058  -1.018  -0.403  0.00  0.00    +0.044 C 
ATOM     23  C   UNL     1      -4.765  -0.252  -0.291  0.00  0.00    -0.050 A 
ATOM     24  C   UNL     1      -3.597  -0.791  -0.800  0.00  0.00    +0.005 A 
ATOM     25  C   UNL     1      -2.411  -0.091  -0.699  0.00  0.00    +0.024 A 
ATOM     26  C   UNL     1      -2.391   1.155  -0.086  0.00  0.00    +0.036 A 
ATOM     27  C   UNL     1      -3.564   1.691   0.428  0.00  0.00    -0.029 A 
ATOM     28  C   UNL     1      -4.748   0.989   0.320  0.00  0.00    +0.008 A 
ATOM     29  C   UNL     1      -3.546   3.040   1.100  0.00  0.00    +0.045 C 
ENDBRANCH  18  26
ENDBRANCH  17  19
ENDBRANCH  16  17
ENDBRANCH   1  16
BRANCH   9  30
ATOM     30  O   UNL     1       9.885   2.797  -0.147  0.00  0.00    -0.448 OA
BRANCH  30  31
ATOM     31  C   UNL     1      10.505   3.007   1.043  0.00  0.00    +0.129 A 
ATOM     32  C   UNL     1       9.828   2.770   2.231  0.00  0.00    +0.049 A 
ATOM     33  C   UNL     1      10.463   2.980   3.440  0.00  0.00    -0.047 A 
ATOM     34  C   UNL     1      11.768   3.436   3.467  0.00  0.00    +0.007 A 
ATOM     35  C   UNL     1      12.443   3.678   2.285  0.00  0.00    -0.047 A 
ATOM     36  C   UNL     1      11.815   3.464   1.073  0.00  0.00    +0.049 A 
ATOM     37  C   UNL     1      13.866   4.174   2.318  0.00  0.00    +0.044 C 
ATOM     38  C   UNL     1       9.730   2.718   4.731  0.00  0.00    +0.044 C 
ENDBRANCH  30  31
ENDBRANCH   9  30
TORSDOF 7
