REMARK  Name = ZINC40259165
REMARK  4 active torsions:
REMARK  status: ('A' for Active; 'I' for Inactive)
REMARK    1  A    between atoms: C_1  and  C_2
REMARK    2  A    between atoms: C_5  and  C_7
REMARK    3  A    between atoms: C_7  and  C_9
REMARK    4  A    between atoms: C_7  and  O_20
REMARK                            x       y       z     vdW  Elec       q    Type
REMARK                         _______ _______ _______ _____ _____    ______ ____
ROOT
ATOM      1  C   UNL     1       1.446  -4.435  -1.430  0.00  0.00    -0.011 A 
ATOM      2  C   UNL     1       2.704  -4.099  -1.898  0.00  0.00    +0.009 A 
ATOM      3  C   UNL     1       3.080  -4.438  -3.183  0.00  0.00    +0.030 A 
ATOM      4  C   UNL     1       2.194  -5.117  -4.005  0.00  0.00    +0.087 A 
ATOM      5  C   UNL     1       0.926  -5.457  -3.534  0.00  0.00    +0.157 A 
ATOM      6  C   UNL     1       0.559  -5.117  -2.241  0.00  0.00    +0.055 A 
ATOM      7  O   UNL     1       0.285  -6.105  -4.537  0.00  0.00    -0.408 OA
ATOM      8  C   UNL     1       1.096  -6.181  -5.603  0.00  0.00    +0.419 A 
ATOM      9  O   UNL     1       0.815  -6.703  -6.665  0.00  0.00    -0.223 OA
ATOM     10  N   UNL     1       2.272  -5.588  -5.315  0.00  0.00    -0.288 N 
ATOM     11  H   UNL     1       3.033  -5.504  -5.911  0.00  0.00    +0.172 HD
ENDROOT
BRANCH   1  12
ATOM     12  C   UNL     1       1.043  -4.062  -0.027  0.00  0.00    +0.181 C 
BRANCH  12  17
ATOM     13  C   UNL     1      -0.018   1.503   0.010  0.00  0.00    +0.051 C 
ATOM     14  C   UNL     1       0.002  -0.004   0.002  0.00  0.00    -0.013 A 
ATOM     15  C   UNL     1      -1.039  -0.872   0.002  0.00  0.00    +0.011 A 
ATOM     16  C   UNL     1      -0.780  -2.230  -0.007  0.00  0.00    +0.014 A 
ATOM     17  C   UNL     1       0.507  -2.653  -0.016  0.00  0.00    +0.023 A 
ATOM     18  S   UNL     1       1.404  -1.109  -0.018  0.00  0.00    -0.095 S 
ENDBRANCH  12  17
BRANCH  12  19
ATOM     19  O   UNL     1       2.181  -4.145   0.833  0.00  0.00    -0.382 OA
ATOM     20  H   UNL     1       2.909  -3.561   0.580  0.00  0.00    +0.211 HD
ENDBRANCH  12  19
ENDBRANCH   1  12
TORSDOF 3
