REMARK  Name = ZINC12140312
REMARK  12 active torsions:
REMARK  status: ('A' for Active; 'I' for Inactive)
REMARK    1  A    between atoms: C_1  and  C_2
REMARK    2  A    between atoms: C_7  and  O_30
REMARK    3  A    between atoms: C_8  and  C_10
REMARK    4  A    between atoms: C_10  and  C_12
REMARK    5  A    between atoms: C_10  and  N_54
REMARK    6  A    between atoms: C_14  and  O_20
REMARK    7  A    between atoms: C_17  and  O_18
REMARK    8  A    between atoms: O_18  and  C_19
REMARK    9  A    between atoms: O_20  and  C_21
REMARK   10  A    between atoms: C_22  and  N_54
REMARK   11  A    between atoms: C_23  and  C_24
REMARK   12  A    between atoms: C_23  and  N_54
REMARK                            x       y       z     vdW  Elec       q    Type
REMARK                         _______ _______ _______ _____ _____    ______ ____
ROOT
ATOM      1  C   UNL     1       5.247   2.833  -0.034  0.00  0.00    +0.009 C 
ENDROOT
BRANCH   1   9
ATOM      2  C   UNL     1      -1.215  -0.893   0.008  0.00  0.00    +0.090 C 
ATOM      3  C   UNL     1       0.002  -0.004   0.002  0.00  0.00    +0.150 A 
ATOM      4  N   UNL     1      -0.016   1.327   0.009  0.00  0.00    -0.205 NA
ATOM      5  C   UNL     1       1.210   1.775   0.000  0.00  0.00    +0.199 A 
ATOM      6  N   UNL     1       2.079   0.728  -0.014  0.00  0.00    -0.173 N 
ATOM      7  N   UNL     1       1.241  -0.418  -0.012  0.00  0.00    -0.147 NA
ATOM      8  C   UNL     1       3.421   1.023  -0.025  0.00  0.00    +0.225 A 
ATOM      9  C   UNL     1       3.839   2.294  -0.023  0.00  0.00    +0.045 A 
ATOM     10  S   UNL     1       2.291   3.185  -0.003  0.00  0.00    -0.050 S 
BRANCH   8  11
ATOM     11  O   UNL     1       4.333   0.014  -0.039  0.00  0.00    -0.492 OA
ATOM     12  H   UNL     1       4.588  -0.273  -0.926  0.00  0.00    +0.294 HD
ENDBRANCH   8  11
ENDBRANCH   1   9
BRANCH   1  13
ATOM     13  C   UNL     1       5.570   3.363  -1.407  0.00  0.00    -0.011 A 
ATOM     14  C   UNL     1       5.500   4.720  -1.658  0.00  0.00    +0.051 A 
ATOM     15  C   UNL     1       5.803   5.208  -2.920  0.00  0.00    +0.121 A 
ATOM     16  C   UNL     1       6.167   4.333  -3.934  0.00  0.00    +0.049 A 
ATOM     17  C   UNL     1       6.232   2.977  -3.684  0.00  0.00    +0.049 A 
ATOM     18  C   UNL     1       5.934   2.489  -2.421  0.00  0.00    +0.122 A 
BRANCH  18  19
ATOM     19  O   UNL     1       5.998   1.153  -2.175  0.00  0.00    -0.495 OA
ATOM     20  C   UNL     1       6.379   0.310  -3.264  0.00  0.00    +0.277 C 
ENDBRANCH  18  19
BRANCH  15  21
ATOM     21  O   UNL     1       5.739   6.544  -3.166  0.00  0.00    -0.495 OA
ATOM     22  C   UNL     1       6.059   6.977  -4.489  0.00  0.00    +0.277 C 
ENDBRANCH  15  21
ENDBRANCH   1  13
BRANCH   1  24
ATOM     23  C   UNL     1       4.964   3.460   2.287  0.00  0.00    -0.094 C 
ATOM     24  N   UNL     1       5.346   3.938   0.942  0.00  0.00    +0.388 N 
ATOM     25  H   UNL     1       4.705   4.690   0.661  0.00  0.00    -0.080 HD
BRANCH  24  26
ATOM     26  C   UNL     1       6.726   4.468   0.966  0.00  0.00    -0.042 C 
BRANCH  26  27
ATOM     27  C   UNL     1       6.749   5.725   1.797  0.00  0.00    -0.064 A 
ATOM     28  C   UNL     1       6.515   6.951   1.202  0.00  0.00    +0.002 A 
ATOM     29  C   UNL     1       6.531   8.104   1.965  0.00  0.00    +0.000 A 
ATOM     30  C   UNL     1       6.792   8.032   3.321  0.00  0.00    +0.000 A 
ATOM     31  C   UNL     1       7.032   6.806   3.914  0.00  0.00    +0.000 A 
ATOM     32  C   UNL     1       7.010   5.653   3.152  0.00  0.00    +0.002 A 
ENDBRANCH  26  27
ENDBRANCH  24  26
ENDBRANCH   1  24
TORSDOF 8
