REMARK  Name = ZINC23544443
REMARK  8 active torsions:
REMARK  status: ('A' for Active; 'I' for Inactive)
REMARK    1  A    between atoms: C_1  and  C_2
REMARK    2  A    between atoms: C_2  and  C_3
REMARK    3  A    between atoms: C_3  and  C_4
REMARK    4  A    between atoms: C_4  and  N_5
REMARK    5  A    between atoms: C_15  and  S_16
REMARK    6  A    between atoms: S_16  and  C_17
REMARK    7  A    between atoms: C_17  and  C_18
REMARK    8  A    between atoms: C_24  and  C_29
REMARK                            x       y       z     vdW  Elec       q    Type
REMARK                         _______ _______ _______ _____ _____    ______ ____
ROOT
ATOM      1  C   UNL     1       5.368  -2.792  -1.348  0.00  0.00    +0.151 C 
ENDROOT
BRANCH   1   2
ATOM      2  C   UNL     1       6.232  -2.564  -0.134  0.00  0.00    +0.121 A 
ATOM      3  N   UNL     1       7.568  -2.796  -0.213  0.00  0.00    -0.310 N 
ATOM      4  H   UNL     1       7.948  -3.104  -1.050  0.00  0.00    +0.170 HD
ATOM      5  C   UNL     1       8.374  -2.605   0.848  0.00  0.00    +0.260 A 
ATOM      6  O   UNL     1       9.572  -2.816   0.760  0.00  0.00    -0.267 OA
ATOM      7  C   UNL     1       7.805  -2.149   2.079  0.00  0.00    +0.080 A 
ATOM      8  C   UNL     1       8.460  -1.871   3.352  0.00  0.00    +0.004 A 
ATOM      9  C   UNL     1       7.706  -1.444   4.393  0.00  0.00    +0.056 A 
ATOM     10  S   UNL     1       6.058  -1.391   3.715  0.00  0.00    -0.076 S 
ATOM     11  C   UNL     1       6.416  -1.938   2.066  0.00  0.00    +0.116 A 
ATOM     12  N   UNL     1       5.684  -2.144   0.974  0.00  0.00    -0.226 NA
BRANCH   8  13
ATOM     13  C   UNL     1       9.923  -2.054   3.503  0.00  0.00    -0.017 A 
ATOM     14  C   UNL     1      10.527  -3.241   3.092  0.00  0.00    +0.008 A 
ATOM     15  C   UNL     1      11.890  -3.405   3.235  0.00  0.00    +0.001 A 
ATOM     16  C   UNL     1      12.656  -2.393   3.786  0.00  0.00    +0.000 A 
ATOM     17  C   UNL     1      12.063  -1.213   4.196  0.00  0.00    +0.001 A 
ATOM     18  C   UNL     1      10.702  -1.036   4.053  0.00  0.00    +0.008 A 
ENDBRANCH   8  13
ENDBRANCH   1   2
BRANCH   1  19
ATOM     19  S   UNL     1       3.644  -2.396  -0.946  0.00  0.00    -0.080 S 
BRANCH  19  30
ATOM     20  N   UNL     1       1.425  -2.500  -2.470  0.00  0.00    -0.287 N 
ATOM     21  C   UNL     1       0.717  -2.722  -3.603  0.00  0.00    +0.262 A 
ATOM     22  O   UNL     1      -0.485  -2.537  -3.643  0.00  0.00    -0.267 OA
ATOM     23  C   UNL     1       1.455  -3.195  -4.782  0.00  0.00    +0.065 A 
ATOM     24  C   UNL     1       0.818  -3.452  -5.995  0.00  0.00    +0.015 A 
ATOM     25  C   UNL     1       1.553  -3.890  -7.062  0.00  0.00    +0.001 A 
ATOM     26  C   UNL     1       2.924  -4.081  -6.949  0.00  0.00    +0.002 A 
ATOM     27  C   UNL     1       3.574  -3.837  -5.772  0.00  0.00    +0.028 A 
ATOM     28  C   UNL     1       2.850  -3.388  -4.663  0.00  0.00    +0.079 A 
ATOM     29  N   UNL     1       3.451  -3.134  -3.483  0.00  0.00    -0.223 NA
ATOM     30  C   UNL     1       2.774  -2.708  -2.446  0.00  0.00    +0.173 A 
BRANCH  20  31
ATOM     31  C   UNL     1       0.739  -2.027  -1.265  0.00  0.00    +0.127 C 
BRANCH  31  32
ATOM     32  C   UNL     1       0.718  -0.497  -1.257  0.00  0.00    +0.021 C 
BRANCH  32  34
ATOM     33  C   UNL     1      -0.019   1.526   0.010  0.00  0.00    +0.004 C 
ATOM     34  C   UNL     1       0.002  -0.004   0.002  0.00  0.00    -0.002 C 
ENDBRANCH  32  34
ENDBRANCH  31  32
ENDBRANCH  20  31
ENDBRANCH  19  30
ENDBRANCH   1  19
TORSDOF 7
