REMARK  Name = ZINC15813506
REMARK  11 active torsions:
REMARK  status: ('A' for Active; 'I' for Inactive)
REMARK    1  A    between atoms: C_1  and  C_2
REMARK    2  A    between atoms: C_2  and  O_3
REMARK    3  A    between atoms: O_3  and  C_4
REMARK    4  A    between atoms: C_9  and  N_10
REMARK    5  A    between atoms: C_11  and  C_13
REMARK    6  A    between atoms: C_13  and  C_15
REMARK    7  A    between atoms: C_13  and  S_16
REMARK    8  A    between atoms: S_16  and  C_17
REMARK    9  A    between atoms: N_27  and  C_28
REMARK   10  A    between atoms: C_31  and  C_35
REMARK   11  A    between atoms: C_32  and  C_34
REMARK                            x       y       z     vdW  Elec       q    Type
REMARK                         _______ _______ _______ _____ _____    ______ ____
ROOT
ATOM      1  C   UNL     1       2.402  -0.244   0.113  0.00  0.00    +0.177 A 
ATOM      2  N   UNL     1       3.515  -0.936   0.128  0.00  0.00    -0.223 NA
ATOM      3  C   UNL     1       4.724  -0.333   0.048  0.00  0.00    +0.079 A 
ATOM      4  C   UNL     1       5.913  -1.069   0.070  0.00  0.00    +0.028 A 
ATOM      5  C   UNL     1       7.112  -0.418  -0.012  0.00  0.00    +0.002 A 
ATOM      6  C   UNL     1       7.169   0.965  -0.118  0.00  0.00    +0.001 A 
ATOM      7  C   UNL     1       6.023   1.712  -0.142  0.00  0.00    +0.015 A 
ATOM      8  C   UNL     1       4.786   1.075  -0.060  0.00  0.00    +0.065 A 
ATOM      9  C   UNL     1       3.524   1.826  -0.081  0.00  0.00    +0.267 A 
ATOM     10  O   UNL     1       3.513   3.040  -0.172  0.00  0.00    -0.267 OA
ATOM     11  N   UNL     1       2.373   1.119   0.005  0.00  0.00    -0.255 N 
ENDROOT
BRANCH  11  12
ATOM     12  C   UNL     1       1.143   1.789  -0.011  0.00  0.00    +0.052 A 
ATOM     13  C   UNL     1       0.263   1.604  -1.069  0.00  0.00    +0.026 A 
ATOM     14  C   UNL     1      -0.946   2.270  -1.084  0.00  0.00    +0.005 A 
ATOM     15  C   UNL     1      -1.288   3.111  -0.041  0.00  0.00    -0.047 A 
ATOM     16  C   UNL     1      -0.414   3.297   1.014  0.00  0.00    -0.046 A 
ATOM     17  C   UNL     1       0.800   2.639   1.033  0.00  0.00    +0.030 A 
ATOM     18  C   UNL     1      -0.787   4.220   2.146  0.00  0.00    +0.044 C 
ATOM     19  C   UNL     1      -2.611   3.831  -0.058  0.00  0.00    +0.044 C 
ENDBRANCH  11  12
BRANCH   1  20
ATOM     20  S   UNL     1       0.872  -1.111   0.229  0.00  0.00    -0.075 S 
BRANCH  20  21
ATOM     21  C   UNL     1       1.482  -2.811   0.346  0.00  0.00    +0.137 C 
ATOM     22  C   UNL     1       2.188  -3.190  -0.958  0.00  0.00    +0.029 C 
BRANCH  21  24
ATOM     23  N   UNL     1       0.526  -4.932   1.186  0.00  0.00    -0.282 N 
ATOM     24  C   UNL     1       0.323  -3.745   0.580  0.00  0.00    +0.230 C 
ATOM     25  O   UNL     1      -0.792  -3.430   0.223  0.00  0.00    -0.274 OA
ATOM     26  H   UNL     1       1.407  -5.160   1.522  0.00  0.00    +0.155 HD
BRANCH  23  32
ATOM     27  C   UNL     1      -0.280  -7.199   1.451  0.00  0.00    +0.142 A 
ATOM     28  C   UNL     1      -1.333  -8.088   1.594  0.00  0.00    +0.047 A 
ATOM     29  C   UNL     1      -2.634  -7.620   1.617  0.00  0.00    +0.004 A 
ATOM     30  C   UNL     1      -2.888  -6.266   1.498  0.00  0.00    +0.002 A 
ATOM     31  C   UNL     1      -1.843  -5.373   1.361  0.00  0.00    +0.027 A 
ATOM     32  C   UNL     1      -0.535  -5.835   1.331  0.00  0.00    +0.076 A 
BRANCH  27  33
ATOM     33  O   UNL     1       1.000  -7.658   1.429  0.00  0.00    -0.490 OA
BRANCH  33  35
ATOM     34  C   UNL     1       2.681  -9.392   1.510  0.00  0.00    +0.048 C 
ATOM     35  C   UNL     1       1.187  -9.069   1.557  0.00  0.00    +0.226 C 
ENDBRANCH  33  35
ENDBRANCH  27  33
ENDBRANCH  23  32
ENDBRANCH  21  24
ENDBRANCH  20  21
ENDBRANCH   1  20
TORSDOF 7
