REMARK  Name = ZINC13495416
REMARK  18 active torsions:
REMARK  status: ('A' for Active; 'I' for Inactive)
REMARK    1  A    between atoms: C_1  and  C_2
REMARK    2  A    between atoms: C_2  and  C_3
REMARK    3  A    between atoms: C_3  and  C_5
REMARK    4  A    between atoms: C_3  and  N_15
REMARK    5  A    between atoms: N_9  and  C_10
REMARK    6  A    between atoms: C_10  and  C_11
REMARK    7  A    between atoms: C_10  and  C_12
REMARK    8  A    between atoms: C_10  and  C_13
REMARK    9  A    between atoms: C_13  and  C_14
REMARK   10  A    between atoms: N_15  and  C_16
REMARK   11  A    between atoms: N_15  and  C_25
REMARK   12  A    between atoms: C_16  and  C_17
REMARK   13  A    between atoms: C_22  and  O_23
REMARK   14  A    between atoms: O_23  and  C_24
REMARK   15  A    between atoms: C_25  and  C_26
REMARK   16  A    between atoms: C_30  and  O_38
REMARK   17  A    between atoms: O_38  and  C_39
REMARK   18  A    between atoms: C_39  and  C_40
REMARK                            x       y       z     vdW  Elec       q    Type
REMARK                         _______ _______ _______ _____ _____    ______ ____
ROOT
ATOM      1  N   UNL     1       3.869   1.482  -2.586  0.00  0.00    -0.284 NA
ENDROOT
BRANCH   1   2
ATOM      2  C   UNL     1       3.162   0.540  -1.707  0.00  0.00    +0.127 C 
BRANCH   2   3
ATOM      3  C   UNL     1       3.968  -0.727  -1.578  0.00  0.00    +0.169 A 
ATOM      4  N   UNL     1       5.273  -0.833  -1.630  0.00  0.00    -0.112 NA
ATOM      5  N   UNL     1       5.577  -2.077  -1.483  0.00  0.00    -0.023 NA
ATOM      6  N   UNL     1       4.500  -2.765  -1.333  0.00  0.00    -0.043 NA
ATOM      7  N   UNL     1       3.486  -1.968  -1.382  0.00  0.00    -0.222 N 
BRANCH   7   8
ATOM      8  C   UNL     1       2.076  -2.345  -1.255  0.00  0.00    +0.061 C 
ATOM      9  C   UNL     1       1.369  -2.131  -2.595  0.00  0.00    +0.036 C 
ATOM     10  C   UNL     1       1.411  -1.478  -0.184  0.00  0.00    +0.036 C 
BRANCH   8  11
ATOM     11  C   UNL     1       1.976  -3.818  -0.854  0.00  0.00    +0.026 C 
ATOM     12  C   UNL     1       0.503  -4.211  -0.722  0.00  0.00    +0.006 C 
ENDBRANCH   8  11
ENDBRANCH   7   8
ENDBRANCH   2   3
BRANCH   2  14
ATOM     13  C   UNL     1       2.141   2.446  -0.455  0.00  0.00    +0.006 C 
ATOM     14  C   UNL     1       2.979   1.172  -0.326  0.00  0.00    +0.023 C 
ENDBRANCH   2  14
ENDBRANCH   1   2
BRANCH   1  15
ATOM     15  C   UNL     1       2.922   2.357  -3.290  0.00  0.00    +0.124 C 
BRANCH  15  16
ATOM     16  C   UNL     1       3.615   3.013  -4.456  0.00  0.00    +0.008 A 
ATOM     17  C   UNL     1       3.941   4.354  -4.402  0.00  0.00    +0.008 A 
ATOM     18  C   UNL     1       4.582   4.955  -5.469  0.00  0.00    +0.001 A 
ATOM     19  C   UNL     1       4.888   4.218  -6.599  0.00  0.00    +0.004 A 
ATOM     20  C   UNL     1       4.560   2.878  -6.660  0.00  0.00    +0.046 A 
ATOM     21  C   UNL     1       3.922   2.271  -5.588  0.00  0.00    +0.124 A 
BRANCH  21  22
ATOM     22  O   UNL     1       3.597   0.953  -5.646  0.00  0.00    -0.495 OA
ATOM     23  C   UNL     1       3.943   0.252  -6.842  0.00  0.00    +0.277 C 
ENDBRANCH  21  22
ENDBRANCH  15  16
ENDBRANCH   1  15
BRANCH   1  24
ATOM     24  C   UNL     1       4.853   2.269  -1.832  0.00  0.00    +0.126 C 
BRANCH  24  25
ATOM     25  C   UNL     1       6.132   1.483  -1.701  0.00  0.00    +0.031 A 
ATOM     26  C   UNL     1       7.008   1.442  -2.735  0.00  0.00    +0.020 A 
ATOM     27  C   UNL     1       8.242   0.670  -2.577  0.00  0.00    +0.002 A 
ATOM     28  C   UNL     1       9.183   0.592  -3.610  0.00  0.00    +0.055 A 
ATOM     29  C   UNL     1      10.335  -0.145  -3.427  0.00  0.00    +0.121 A 
ATOM     30  C   UNL     1      10.563  -0.808  -2.224  0.00  0.00    +0.047 A 
ATOM     31  C   UNL     1       9.645  -0.739  -1.200  0.00  0.00    +0.030 A 
ATOM     32  C   UNL     1       8.476  -0.002  -1.363  0.00  0.00    +0.049 A 
ATOM     33  N   UNL     1       7.543   0.080  -0.349  0.00  0.00    -0.322 N 
ATOM     34  H   UNL     1       7.717  -0.446   0.602  0.00  0.00    +0.169 HD
ATOM     35  C   UNL     1       6.416   0.796  -0.501  0.00  0.00    +0.254 A 
ATOM     36  O   UNL     1       5.617   0.851   0.418  0.00  0.00    -0.268 OA
BRANCH  29  37
ATOM     37  O   UNL     1      11.253  -0.224  -4.428  0.00  0.00    -0.492 OA
BRANCH  37  38
ATOM     38  C   UNL     1      12.424  -1.003  -4.173  0.00  0.00    +0.225 C 
ATOM     39  C   UNL     1      13.332  -0.975  -5.404  0.00  0.00    +0.048 C 
ENDBRANCH  37  38
ENDBRANCH  29  37
ENDBRANCH  24  25
ENDBRANCH   1  24
TORSDOF 12
