REMARK  Name = ZINC33596991
REMARK  10 active torsions:
REMARK  status: ('A' for Active; 'I' for Inactive)
REMARK    1  A    between atoms: C_1  and  C_2
REMARK    2  A    between atoms: C_7  and  N_8
REMARK    3  A    between atoms: C_13  and  C_32
REMARK    4  A    between atoms: C_16  and  C_21
REMARK    5  A    between atoms: C_16  and  C_29
REMARK    6  A    between atoms: C_21  and  C_22
REMARK    7  A    between atoms: C_25  and  O_28
REMARK    8  A    between atoms: C_35  and  O_40
REMARK    9  A    between atoms: C_36  and  O_38
REMARK   10  A    between atoms: O_38  and  C_39
REMARK                            x       y       z     vdW  Elec       q    Type
REMARK                         _______ _______ _______ _____ _____    ______ ____
ROOT
ATOM      1  N   UNL     1       0.554   0.419   2.398  0.00  0.00    -0.210 N 
ATOM      2  C   UNL     1      -0.632   0.449   3.089  0.00  0.00    +0.229 C 
ATOM      3  O   UNL     1      -1.688  -0.054   2.769  0.00  0.00    -0.275 OA
ATOM      4  C   UNL     1      -0.346   1.212   4.278  0.00  0.00    +0.077 C 
ATOM      5  C   UNL     1      -0.864   1.433   5.640  0.00  0.00    -0.027 C 
ATOM      6  N   UNL     1       0.244   2.228   6.273  0.00  0.00    +0.396 N 
ATOM      7  C   UNL     1       1.500   1.945   5.516  0.00  0.00    +0.052 C 
ATOM      8  C   UNL     1       1.143   0.779   4.582  0.00  0.00    +0.086 C 
ATOM      9  C   UNL     1       1.616   0.824   3.155  0.00  0.00    +0.229 C 
ATOM     10  O   UNL     1       2.713   1.155   2.760  0.00  0.00    -0.275 OA
ATOM     11  H   UNL     1       0.030   3.213   6.223  0.00  0.00    -0.083 HD
ATOM     12  H   UNL     1       0.356   1.951   7.237  0.00  0.00    -0.083 HD
ENDROOT
BRANCH   1  19
ATOM     13  C   UNL     1       0.294   2.390   0.361  0.00  0.00    +0.045 C 
ATOM     14  C   UNL     1       0.544   0.940   0.038  0.00  0.00    -0.029 A 
ATOM     15  C   UNL     1       0.658   0.535  -1.278  0.00  0.00    +0.005 A 
ATOM     16  C   UNL     1       0.888  -0.796  -1.576  0.00  0.00    +0.000 A 
ATOM     17  C   UNL     1       1.003  -1.725  -0.558  0.00  0.00    +0.002 A 
ATOM     18  C   UNL     1       0.889  -1.326   0.759  0.00  0.00    +0.024 A 
ATOM     19  C   UNL     1       0.664   0.010   1.062  0.00  0.00    +0.047 A 
ENDBRANCH   1  19
BRANCH   5  20
ATOM     20  C   UNL     1      -2.145   2.226   5.606  0.00  0.00    -0.057 A 
ATOM     21  C   UNL     1      -2.114   3.573   5.297  0.00  0.00    +0.006 A 
ATOM     22  C   UNL     1      -3.286   4.305   5.265  0.00  0.00    +0.049 A 
ATOM     23  C   UNL     1      -4.496   3.689   5.541  0.00  0.00    +0.158 A 
ATOM     24  C   UNL     1      -4.527   2.333   5.851  0.00  0.00    +0.161 A 
ATOM     25  C   UNL     1      -3.349   1.604   5.877  0.00  0.00    +0.051 A 
BRANCH  24  26
ATOM     26  O   UNL     1      -5.712   1.723   6.123  0.00  0.00    -0.491 OA
ATOM     27  C   UNL     1      -5.668   0.329   6.433  0.00  0.00    +0.277 C 
ENDBRANCH  24  26
BRANCH  23  28
ATOM     28  O   UNL     1      -5.650   4.408   5.510  0.00  0.00    -0.503 OA
ATOM     29  H   UNL     1      -6.081   4.422   4.644  0.00  0.00    +0.292 HD
ENDBRANCH  23  28
ENDBRANCH   5  20
BRANCH   7  30
ATOM     30  C   UNL     1       2.596   1.524   6.461  0.00  0.00    +0.347 C 
ATOM     31  O   UNL     1       2.383   1.485   7.661  0.00  0.00    -0.248 OA
ATOM     32  O   UNL     1       3.694   1.224   6.026  0.00  0.00    -0.248 OA
ENDBRANCH   7  30
BRANCH   7  33
ATOM     33  C   UNL     1       1.930   3.180   4.722  0.00  0.00    +0.035 C 
BRANCH  33  34
ATOM     34  C   UNL     1       2.276   4.295   5.675  0.00  0.00    -0.048 A 
ATOM     35  C   UNL     1       1.324   5.242   6.003  0.00  0.00    +0.007 A 
ATOM     36  C   UNL     1       1.638   6.266   6.876  0.00  0.00    +0.045 A 
ATOM     37  C   UNL     1       2.911   6.342   7.424  0.00  0.00    +0.117 A 
ATOM     38  C   UNL     1       3.864   5.390   7.093  0.00  0.00    +0.045 A 
ATOM     39  C   UNL     1       3.543   4.365   6.224  0.00  0.00    +0.007 A 
BRANCH  37  40
ATOM     40  O   UNL     1       3.223   7.348   8.283  0.00  0.00    -0.507 OA
ATOM     41  H   UNL     1       3.050   7.140   9.211  0.00  0.00    +0.292 HD
ENDBRANCH  37  40
ENDBRANCH  33  34
ENDBRANCH   7  33
TORSDOF 8
