REMARK  Name = ZINC35910057
REMARK  8 active torsions:
REMARK  status: ('A' for Active; 'I' for Inactive)
REMARK    1  A    between atoms: C_1  and  C_2
REMARK    2  A    between atoms: C_2  and  C_3
REMARK    3  A    between atoms: C_3  and  C_5
REMARK    4  A    between atoms: C_3  and  N_11
REMARK    5  A    between atoms: C_15  and  N_25
REMARK    6  A    between atoms: C_20  and  C_24
REMARK    7  A    between atoms: N_25  and  S_26
REMARK    8  A    between atoms: S_26  and  C_29
REMARK                            x       y       z     vdW  Elec       q    Type
REMARK                         _______ _______ _______ _____ _____    ______ ____
ROOT
ATOM      1  N   UNL     1       1.013  -0.476  -1.446  0.00  0.00    -0.287 N 
ATOM      2  C   UNL     1       2.360  -0.035  -1.591  0.00  0.00    +0.147 C 
ATOM      3  C   UNL     1       2.733   0.779  -2.791  0.00  0.00    +0.013 A 
ATOM      4  C   UNL     1       4.102   1.086  -2.839  0.00  0.00    +0.033 A 
ATOM      5  C   UNL     1       4.647   1.784  -3.897  0.00  0.00    +0.049 A 
ATOM      6  C   UNL     1       3.816   2.179  -4.938  0.00  0.00    +0.028 A 
ATOM      7  C   UNL     1       2.477   1.892  -4.872  0.00  0.00    +0.048 A 
ATOM      8  C   UNL     1       1.912   1.208  -3.769  0.00  0.00    +0.126 A 
ATOM      9  O   UNL     1       0.552   1.194  -3.903  0.00  0.00    -0.480 OA
ATOM     10  C   UNL     1      -0.215   0.045  -3.607  0.00  0.00    +0.256 C 
ATOM     11  C   UNL     1      -0.017  -0.370  -2.182  0.00  0.00    +0.257 C 
ATOM     12  O   UNL     1      -1.050  -0.660  -1.615  0.00  0.00    -0.272 OA
ATOM     13  C   UNL     1       0.217  -1.100  -4.525  0.00  0.00    +0.062 C 
ENDROOT
BRANCH   5  14
ATOM     14  N   UNL     1       6.013   2.089  -3.921  0.00  0.00    -0.216 N 
ATOM     15  H   UNL     1       6.365   2.784  -3.344  0.00  0.00    +0.174 HD
BRANCH  14  16
ATOM     16  S   UNL     1       7.028   1.263  -4.936  0.00  0.00    +0.072 S 
ATOM     17  O   UNL     1       6.409   1.260  -6.215  0.00  0.00    -0.150 OA
ATOM     18  O   UNL     1       8.331   1.787  -4.722  0.00  0.00    -0.150 OA
BRANCH  16  19
ATOM     19  C   UNL     1       7.062  -0.412  -4.390  0.00  0.00    +0.110 A 
ATOM     20  C   UNL     1       7.925  -0.791  -3.379  0.00  0.00    +0.029 A 
ATOM     21  C   UNL     1       7.952  -2.105  -2.949  0.00  0.00    +0.003 A 
ATOM     22  C   UNL     1       7.117  -3.040  -3.531  0.00  0.00    +0.020 A 
ATOM     23  C   UNL     1       6.253  -2.661  -4.542  0.00  0.00    +0.043 A 
ATOM     24  C   UNL     1       6.221  -1.344  -4.968  0.00  0.00    +0.048 A 
ATOM     25 CL   UNL     1       5.202  -3.834  -5.273  0.00  0.00    -0.083 Cl
ENDBRANCH  16  19
ENDBRANCH  14  16
ENDBRANCH   5  14
BRANCH   1  26
ATOM     26  C   UNL     1       0.767  -1.203  -0.198  0.00  0.00    +0.106 C 
BRANCH  26  27
ATOM     27  C   UNL     1       0.067  -2.502  -0.502  0.00  0.00    -0.027 A 
ATOM     28  C   UNL     1       0.335  -3.171  -1.682  0.00  0.00    +0.005 A 
ATOM     29  C   UNL     1      -0.307  -4.363  -1.961  0.00  0.00    +0.000 A 
ATOM     30  C   UNL     1      -1.217  -4.886  -1.061  0.00  0.00    +0.000 A 
ATOM     31  C   UNL     1      -1.484  -4.217   0.119  0.00  0.00    +0.000 A 
ATOM     32  C   UNL     1      -0.839  -3.027   0.400  0.00  0.00    +0.005 A 
ENDBRANCH  26  27
BRANCH  26  34
ATOM     33  C   UNL     1       0.574   0.989   0.986  0.00  0.00    +0.006 C 
ATOM     34  C   UNL     1      -0.112  -0.353   0.722  0.00  0.00    +0.024 C 
ENDBRANCH  26  34
ENDBRANCH   1  26
TORSDOF 6
