REMARK  Name = ZINC58997302
REMARK  10 active torsions:
REMARK  status: ('A' for Active; 'I' for Inactive)
REMARK    1  A    between atoms: C_3  and  C_11
REMARK    2  A    between atoms: C_5  and  C_7
REMARK    3  A    between atoms: C_11  and  N_12
REMARK    4  A    between atoms: C_13  and  C_15
REMARK    5  A    between atoms: C_15  and  S_16
REMARK    6  A    between atoms: S_16  and  C_17
REMARK    7  A    between atoms: N_22  and  N_23
REMARK    8  A    between atoms: C_24  and  C_25
REMARK    9  A    between atoms: C_27  and  N_32
REMARK   10  A    between atoms: C_30  and  O_31
REMARK                            x       y       z     vdW  Elec       q    Type
REMARK                         _______ _______ _______ _____ _____    ______ ____
ROOT
ATOM      1  C   UNL     1       7.633   4.491   4.708  0.00  0.00    +0.211 A 
ATOM      2  N   UNL     1       8.695   5.125   5.192  0.00  0.00    -0.186 NA
ATOM      3  C   UNL     1       8.625   5.066   6.519  0.00  0.00    +0.232 A 
ATOM      4  N   UNL     1       7.483   4.375   6.834  0.00  0.00    -0.245 N 
ATOM      5  N   UNL     1       6.902   4.045   5.732  0.00  0.00    -0.144 NA
ATOM      6  N   UNL     1       9.511   5.589   7.391  0.00  0.00    -0.205 N 
ATOM      7  H   UNL     1       9.367   5.490   8.346  0.00  0.00    +0.177 HD
ATOM      8  H   UNL     1       7.167   4.173   7.729  0.00  0.00    +0.192 HD
ENDROOT
BRANCH   6   9
ATOM      9  N   UNL     1      10.549   6.219   6.957  0.00  0.00    -0.187 NA
ATOM     10  C   UNL     1      11.423   6.734   7.817  0.00  0.00    +0.142 C 
BRANCH  10  11
ATOM     11  C   UNL     1      12.554   7.422   7.344  0.00  0.00    +0.038 A 
ATOM     12  C   UNL     1      13.494   7.969   8.246  0.00  0.00    +0.045 A 
ATOM     13  C   UNL     1      14.584   8.630   7.771  0.00  0.00    +0.127 A 
ATOM     14  C   UNL     1      14.797   8.782   6.404  0.00  0.00    +0.036 A 
ATOM     15  C   UNL     1      13.911   8.268   5.479  0.00  0.00    +0.048 A 
ATOM     16  C   UNL     1      12.784   7.578   5.905  0.00  0.00    +0.126 A 
BRANCH  13  17
ATOM     17  N   UNL     1      15.561   9.200   8.726  0.00  0.00    +0.056 N 
ATOM     18  O   UNL     1      15.371   9.064  10.022  0.00  0.00    -0.126 OA
ATOM     19  O   UNL     1      16.620   9.843   8.279  0.00  0.00    -0.126 OA
ENDBRANCH  13  17
BRANCH  16  20
ATOM     20  O   UNL     1      11.911   7.064   5.009  0.00  0.00    -0.506 OA
ATOM     21  H   UNL     1      11.202   7.672   4.757  0.00  0.00    +0.292 HD
ENDBRANCH  16  20
ENDBRANCH  10  11
ENDBRANCH   6   9
BRANCH   1  22
ATOM     22  S   UNL     1       7.250   4.281   3.001  0.00  0.00    -0.075 S 
BRANCH  22  23
ATOM     23  C   UNL     1       5.692   3.353   3.012  0.00  0.00    +0.173 C 
BRANCH  23  25
ATOM     24  N   UNL     1       4.105   2.425   1.356  0.00  0.00    -0.311 N 
ATOM     25  C   UNL     1       5.246   3.102   1.594  0.00  0.00    +0.224 C 
ATOM     26  O   UNL     1       5.914   3.510   0.667  0.00  0.00    -0.275 OA
ATOM     27  H   UNL     1       3.571   2.099   2.097  0.00  0.00    +0.149 HD
BRANCH  24  28
ATOM     28  C   UNL     1       3.672   2.182  -0.022  0.00  0.00    +0.139 C 
BRANCH  28  31
ATOM     29  C   UNL     1      -0.017   1.378   0.010  0.00  0.00    +0.001 A 
ATOM     30  C   UNL     1       1.171   2.085   0.002  0.00  0.00    +0.005 A 
ATOM     31  C   UNL     1       2.377   1.411  -0.013  0.00  0.00    -0.030 A 
ATOM     32  C   UNL     1       2.396   0.028  -0.020  0.00  0.00    +0.017 A 
ATOM     33  C   UNL     1       1.209  -0.679  -0.012  0.00  0.00    +0.055 A 
ATOM     34  C   UNL     1       0.002  -0.004   0.002  0.00  0.00    +0.012 A 
BRANCH  33  35
ATOM     35  C   UNL     1       1.229  -2.186  -0.020  0.00  0.00    +0.417 C 
ATOM     36  F   UNL     1       1.249  -2.660   1.296  0.00  0.00    -0.166 F 
ATOM     37  F   UNL     1       0.086  -2.664  -0.671  0.00  0.00    -0.166 F 
ATOM     38  F   UNL     1       2.371  -2.633  -0.694  0.00  0.00    -0.166 F 
ENDBRANCH  33  35
ENDBRANCH  28  31
ENDBRANCH  24  28
ENDBRANCH  23  25
ENDBRANCH  22  23
ENDBRANCH   1  22
TORSDOF 10
