REMARK  Name = ZINC01035365
REMARK  6 active torsions:
REMARK  status: ('A' for Active; 'I' for Inactive)
REMARK    1  A    between atoms: C_1  and  C_2
REMARK    2  A    between atoms: C_9  and  N_13
REMARK    3  A    between atoms: C_10  and  C_11
REMARK    4  A    between atoms: C_14  and  C_16
REMARK    5  A    between atoms: C_16  and  S_17
REMARK    6  A    between atoms: S_17  and  C_18
REMARK                            x       y       z     vdW  Elec       q    Type
REMARK                         _______ _______ _______ _____ _____    ______ ____
ROOT
ATOM      1  N   UNL     1      -5.247  -4.045   0.030  0.00  0.00    -0.278 N 
ATOM      2  C   UNL     1      -3.915  -4.250   0.016  0.00  0.00    +0.228 C 
ATOM      3  O   UNL     1      -3.476  -5.381   0.005  0.00  0.00    -0.275 OA
ATOM      4  H   UNL     1      -5.598  -3.141   0.038  0.00  0.00    +0.155 HD
ENDROOT
BRANCH   1  12
ATOM      5  C   UNL     1      -9.802 -10.405  -0.058  0.00  0.00    +0.008 C 
ATOM      6  C   UNL     1      -9.274  -8.997  -0.339  0.00  0.00    -0.009 C 
ATOM      7  C   UNL     1     -10.042  -7.980   0.511  0.00  0.00    +0.008 C 
ATOM      8  C   UNL     1      -9.698  -6.559   0.058  0.00  0.00    +0.037 C 
ATOM      9  C   UNL     1      -8.183  -6.402   0.044  0.00  0.00    -0.018 A 
ATOM     10  C   UNL     1      -7.371  -7.483   0.031  0.00  0.00    -0.004 A 
ATOM     11  S   UNL     1      -5.731  -6.817   0.019  0.00  0.00    -0.077 S 
ATOM     12  C   UNL     1      -6.116  -5.128   0.032  0.00  0.00    +0.090 A 
ATOM     13  C   UNL     1      -7.503  -5.119   0.051  0.00  0.00    +0.084 A 
ATOM     14  C   UNL     1      -7.785  -8.923   0.026  0.00  0.00    +0.046 C 
BRANCH  13  15
ATOM     15  C   UNL     1      -8.237  -3.890   0.072  0.00  0.00    +0.102 C 
ATOM     16  N   UNL     1      -8.820  -2.915   0.089  0.00  0.00    -0.191 NA
ENDBRANCH  13  15
ENDBRANCH   1  12
BRANCH   2  17
ATOM     17  C   UNL     1      -2.972  -3.075   0.014  0.00  0.00    +0.175 C 
BRANCH  17  18
ATOM     18  S   UNL     1      -1.263  -3.673  -0.006  0.00  0.00    -0.058 S 
BRANCH  18  19
ATOM     19  C   UNL     1      -0.401  -2.136  -0.006  0.00  0.00    +0.258 A 
ATOM     20  N   UNL     1      -0.970  -0.957   0.006  0.00  0.00    -0.203 NA
ATOM     21  C   UNL     1       0.002  -0.004   0.002  0.00  0.00    +0.110 A 
ATOM     22  C   UNL     1      -0.017   1.391   0.010  0.00  0.00    +0.031 A 
ATOM     23  C   UNL     1       1.170   2.091   0.002  0.00  0.00    +0.002 A 
ATOM     24  C   UNL     1       2.381   1.417  -0.012  0.00  0.00    +0.004 A 
ATOM     25  C   UNL     1       2.414   0.037  -0.020  0.00  0.00    +0.048 A 
ATOM     26  C   UNL     1       1.230  -0.682  -0.013  0.00  0.00    +0.156 A 
ATOM     27  O   UNL     1       0.937  -2.003  -0.018  0.00  0.00    -0.431 OA
ENDBRANCH  18  19
ENDBRANCH  17  18
ENDBRANCH   2  17
TORSDOF 5
