REMARK  Name = ZINC16022281
REMARK  8 active torsions:
REMARK  status: ('A' for Active; 'I' for Inactive)
REMARK    1  A    between atoms: C_1  and  C_2
REMARK    2  A    between atoms: C_2  and  C_3
REMARK    3  A    between atoms: C_2  and  C_4
REMARK    4  A    between atoms: C_4  and  C_5
REMARK    5  A    between atoms: N_13  and  C_16
REMARK    6  A    between atoms: C_16  and  C_17
REMARK    7  A    between atoms: C_16  and  C_18
REMARK    8  A    between atoms: C_16  and  C_19
REMARK                            x       y       z     vdW  Elec       q    Type
REMARK                         _______ _______ _______ _____ _____    ______ ____
ROOT
ATOM      1  C   UNL     1      -2.135  -0.131  -1.286  0.00  0.00    -0.057 C 
ATOM      2  C   UNL     1      -3.612  -0.580  -1.259  0.00  0.00    +0.073 C 
ATOM      3  C   UNL     1      -3.917  -1.036  -2.713  0.00  0.00    +0.088 C 
ATOM      4  C   UNL     1      -4.187  -2.517  -2.563  0.00  0.00    +0.225 C 
ATOM      5  O   UNL     1      -4.477  -3.271  -3.467  0.00  0.00    -0.275 OA
ATOM      6  N   UNL     1      -4.055  -2.865  -1.278  0.00  0.00    -0.236 N 
ATOM      7  C   UNL     1      -3.734  -1.848  -0.446  0.00  0.00    +0.224 C 
ATOM      8  O   UNL     1      -3.567  -1.931   0.752  0.00  0.00    -0.275 OA
ATOM      9  C   UNL     1      -2.602  -0.813  -3.471  0.00  0.00    +0.050 C 
ATOM     10  N   UNL     1      -1.536  -0.850  -2.442  0.00  0.00    +0.394 N 
ATOM     11  C   UNL     1      -2.619   0.484  -4.229  0.00  0.00    -0.025 A 
ATOM     12  C   UNL     1      -2.776   1.799  -3.853  0.00  0.00    +0.043 A 
ATOM     13  C   UNL     1      -2.744   2.802  -4.809  0.00  0.00    +0.124 A 
ATOM     14  C   UNL     1      -2.555   2.476  -6.141  0.00  0.00    +0.040 A 
ATOM     15  C   UNL     1      -2.397   1.159  -6.520  0.00  0.00    +0.026 A 
ATOM     16  C   UNL     1      -2.426   0.146  -5.565  0.00  0.00    +0.036 A 
ATOM     17  N   UNL     1      -2.290  -1.239  -5.698  0.00  0.00    -0.286 N 
ATOM     18  C   UNL     1      -2.380  -1.874  -4.513  0.00  0.00    +0.211 C 
ATOM     19  O   UNL     1      -2.297  -3.069  -4.324  0.00  0.00    -0.277 OA
ATOM     20  F   UNL     1      -2.899   4.093  -4.442  0.00  0.00    -0.205 F 
ATOM     21  H   UNL     1      -0.714  -0.365  -2.771  0.00  0.00    -0.083 HD
ATOM     22  H   UNL     1      -2.148  -1.690  -6.545  0.00  0.00    +0.155 HD
ATOM     23  H   UNL     1      -1.310  -1.800  -2.189  0.00  0.00    -0.083 HD
ENDROOT
BRANCH   6  24
ATOM     24  C   UNL     1      -4.250  -4.238  -0.805  0.00  0.00    +0.036 C 
ATOM     25  C   UNL     1      -3.251  -5.164  -1.503  0.00  0.00    +0.031 C 
ATOM     26  C   UNL     1      -4.026  -4.293   0.707  0.00  0.00    +0.031 C 
ATOM     27  C   UNL     1      -5.676  -4.691  -1.127  0.00  0.00    +0.031 C 
ENDBRANCH   6  24
BRANCH   1  28
ATOM     28  C   UNL     1      -1.433  -0.534   0.013  0.00  0.00    -0.012 C 
BRANCH  28  30
ATOM     29  C   UNL     1      -0.019   1.526   0.010  0.00  0.00    +0.007 C 
ATOM     30  C   UNL     1       0.002  -0.004   0.002  0.00  0.00    -0.019 C 
ATOM     31  C   UNL     1       0.742  -0.511   1.242  0.00  0.00    +0.007 C 
ENDBRANCH  28  30
ENDBRANCH   1  28
TORSDOF 3
