REMARK  Name = ZINC39687659
REMARK  7 active torsions:
REMARK  status: ('A' for Active; 'I' for Inactive)
REMARK    1  A    between atoms: C_1  and  C_2
REMARK    2  A    between atoms: C_2  and  C_3
REMARK    3  A    between atoms: C_3  and  C_5
REMARK    4  A    between atoms: C_3  and  C_11
REMARK    5  A    between atoms: C_15  and  C_24
REMARK    6  A    between atoms: N_26  and  C_27
REMARK    7  A    between atoms: C_34  and  C_39
REMARK                            x       y       z     vdW  Elec       q    Type
REMARK                         _______ _______ _______ _____ _____    ______ ____
ROOT
ATOM      1  C   UNL     1      -2.314  -0.003  -2.008  0.00  0.00    +0.223 C 
ATOM      2  O   UNL     1      -2.913  -0.634  -2.853  0.00  0.00    -0.275 OA
ATOM      3  N   UNL     1      -2.270   1.342  -2.077  0.00  0.00    -0.300 N 
ATOM      4  C   UNL     1      -1.671   2.283  -1.100  0.00  0.00    +0.121 C 
ATOM      5  C   UNL     1      -1.000   3.371  -1.968  0.00  0.00    +0.100 C 
ATOM      6  C   UNL     1      -1.751   3.323  -3.308  0.00  0.00    -0.004 C 
ATOM      7  C   UNL     1      -2.802   2.215  -3.150  0.00  0.00    +0.115 C 
ATOM      8  C   UNL     1      -0.790   2.973  -4.441  0.00  0.00    -0.010 C 
ATOM      9  C   UNL     1      -1.549   2.988  -5.771  0.00  0.00    -0.082 C 
ATOM     10  N   UNL     1      -2.131   4.317  -5.989  0.00  0.00    +0.379 N 
ATOM     11  C   UNL     1      -3.123   4.608  -4.947  0.00  0.00    -0.082 C 
ATOM     12  C   UNL     1      -2.431   4.662  -3.582  0.00  0.00    -0.010 C 
ATOM     13  H   UNL     1      -1.400   5.012  -5.959  0.00  0.00    -0.086 HD
ATOM     14  H   UNL     1      -2.578   4.343  -6.894  0.00  0.00    -0.086 HD
ENDROOT
BRANCH   5  15
ATOM     15  C   UNL     1       0.460   3.055  -2.170  0.00  0.00    +0.218 C 
ATOM     16  O   UNL     1       0.833   1.901  -2.186  0.00  0.00    -0.275 OA
ATOM     17  N   UNL     1       1.349   4.054  -2.332  0.00  0.00    -0.312 N 
ATOM     18  H   UNL     1       1.064   4.977  -2.245  0.00  0.00    +0.149 HD
BRANCH  17  19
ATOM     19  C   UNL     1       2.748   3.746  -2.640  0.00  0.00    +0.076 C 
ATOM     20  C   UNL     1       3.516   3.504  -1.339  0.00  0.00    +0.041 C 
ATOM     21  C   UNL     1       4.969   3.148  -1.666  0.00  0.00    +0.108 C 
ATOM     22  N   UNL     1       5.536   4.207  -2.513  0.00  0.00    -0.316 N 
ATOM     23  C   UNL     1       4.827   4.582  -3.744  0.00  0.00    +0.108 C 
ATOM     24  C   UNL     1       3.375   4.922  -3.393  0.00  0.00    +0.041 C 
ATOM     25  C   UNL     1       6.720   4.842  -2.156  0.00  0.00    +0.102 A 
ATOM     26  C   UNL     1       7.929   4.388  -2.672  0.00  0.00    -0.012 A 
ATOM     27  C   UNL     1       9.099   5.029  -2.308  0.00  0.00    +0.008 A 
ATOM     28  C   UNL     1       9.021   6.107  -1.437  0.00  0.00    +0.018 A 
ATOM     29  C   UNL     1       7.787   6.505  -0.963  0.00  0.00    +0.084 A 
ATOM     30  N   UNL     1       6.686   5.878  -1.331  0.00  0.00    -0.349 N 
ATOM     31  C   UNL     1       7.963   3.212  -3.615  0.00  0.00    +0.047 C 
ATOM     32  H   UNL     1       5.831   6.180  -0.987  0.00  0.00    +0.167 HD
ENDBRANCH  17  19
ENDBRANCH   5  15
BRANCH   1  33
ATOM     33  C   UNL     1      -1.621  -0.723  -0.880  0.00  0.00    +0.105 C 
BRANCH  33  34
ATOM     34  C   UNL     1      -2.593  -0.937   0.252  0.00  0.00    -0.036 A 
ATOM     35  C   UNL     1      -3.742  -1.677   0.045  0.00  0.00    +0.004 A 
ATOM     36  C   UNL     1      -4.634  -1.874   1.083  0.00  0.00    +0.000 A 
ATOM     37  C   UNL     1      -4.376  -1.330   2.328  0.00  0.00    +0.000 A 
ATOM     38  C   UNL     1      -3.227  -0.591   2.535  0.00  0.00    +0.000 A 
ATOM     39  C   UNL     1      -2.333  -0.398   1.498  0.00  0.00    +0.004 A 
ENDBRANCH  33  34
BRANCH  33  41
ATOM     40  C   UNL     1      -0.020  -1.856  -2.426  0.00  0.00    +0.005 C 
ATOM     41  C   UNL     1      -1.111  -2.077  -1.376  0.00  0.00    +0.014 C 
ENDBRANCH  33  41
ENDBRANCH   1  33
TORSDOF 5
