REMARK  Name = ZINC27532141
REMARK  7 active torsions:
REMARK  status: ('A' for Active; 'I' for Inactive)
REMARK    1  A    between atoms: C_1  and  C_2
REMARK    2  A    between atoms: C_2  and  O_3
REMARK    3  A    between atoms: O_3  and  C_4
REMARK    4  A    between atoms: C_9  and  C_10
REMARK    5  A    between atoms: C_10  and  N_11
REMARK    6  A    between atoms: N_11  and  N_12
REMARK    7  A    between atoms: C_22  and  C_23
REMARK                            x       y       z     vdW  Elec       q    Type
REMARK                         _______ _______ _______ _____ _____    ______ ____
ROOT
ATOM      1  N   UNL     1       3.642   1.787  -0.104  0.00  0.00    -0.211 N 
ATOM      2  C   UNL     1       4.753   1.174  -0.576  0.00  0.00    +0.279 A 
ATOM      3  O   UNL     1       5.654   1.810  -1.092  0.00  0.00    -0.265 OA
ATOM      4  C   UNL     1       4.827  -0.288  -0.445  0.00  0.00    +0.066 A 
ATOM      5  C   UNL     1       5.927  -1.012  -0.903  0.00  0.00    +0.015 A 
ATOM      6  C   UNL     1       5.944  -2.382  -0.755  0.00  0.00    +0.001 A 
ATOM      7  C   UNL     1       4.879  -3.041  -0.155  0.00  0.00    +0.002 A 
ATOM      8  C   UNL     1       3.792  -2.351   0.301  0.00  0.00    +0.028 A 
ATOM      9  C   UNL     1       3.744  -0.960   0.165  0.00  0.00    +0.079 A 
ATOM     10  N   UNL     1       2.689  -0.245   0.603  0.00  0.00    -0.227 NA
ATOM     11  C   UNL     1       2.642   1.057   0.477  0.00  0.00    +0.161 A 
ENDROOT
BRANCH  11  12
ATOM     12  C   UNL     1       1.450   1.770   0.982  0.00  0.00    +0.019 A 
ATOM     13  C   UNL     1       0.765   1.288   2.098  0.00  0.00    +0.012 A 
ATOM     14  C   UNL     1      -0.350   1.954   2.561  0.00  0.00    +0.016 A 
ATOM     15  C   UNL     1      -0.784   3.107   1.927  0.00  0.00    +0.018 A 
ATOM     16  C   UNL     1      -0.108   3.591   0.820  0.00  0.00    +0.016 A 
ATOM     17  C   UNL     1       1.005   2.930   0.344  0.00  0.00    +0.012 A 
ATOM     18 BR   UNL     1      -2.310   4.019   2.572  0.00  0.00    -0.050 Br
ENDBRANCH  11  12
BRANCH   1  19
ATOM     19  N   UNL     1       3.520   3.144  -0.206  0.00  0.00    -0.276 N 
ATOM     20  H   UNL     1       3.090   3.741  -1.023  0.00  0.00    +0.167 HD
BRANCH  19  21
ATOM     21  C   UNL     1       4.064   3.812   0.984  0.00  0.00    +0.159 C 
BRANCH  21  27
ATOM     22  C   UNL     1       6.007   5.056   0.001  0.00  0.00    +0.125 A 
ATOM     23  C   UNL     1       7.371   5.250  -0.159  0.00  0.00    +0.046 A 
ATOM     24  C   UNL     1       8.267   4.418   0.483  0.00  0.00    +0.004 A 
ATOM     25  C   UNL     1       7.804   3.391   1.286  0.00  0.00    +0.001 A 
ATOM     26  C   UNL     1       6.445   3.199   1.452  0.00  0.00    +0.009 A 
ATOM     27  C   UNL     1       5.545   4.025   0.807  0.00  0.00    +0.013 A 
BRANCH  22  28
ATOM     28  O   UNL     1       5.124   5.874  -0.629  0.00  0.00    -0.492 OA
BRANCH  28  30
ATOM     29  C   UNL     1       4.536   7.712  -2.084  0.00  0.00    +0.048 C 
ATOM     30  C   UNL     1       5.666   6.842  -1.530  0.00  0.00    +0.225 C 
ENDBRANCH  28  30
ENDBRANCH  22  28
ENDBRANCH  21  27
ENDBRANCH  19  21
ENDBRANCH   1  19
TORSDOF 6
