REMARK  Name = ZINC35524311
REMARK  13 active torsions:
REMARK  status: ('A' for Active; 'I' for Inactive)
REMARK    1  A    between atoms: C_1  and  C_2
REMARK    2  A    between atoms: C_2  and  C_4
REMARK    3  A    between atoms: C_2  and  N_7
REMARK    4  A    between atoms: C_4  and  C_5
REMARK    5  A    between atoms: C_4  and  C_6
REMARK    6  A    between atoms: C_8  and  C_10
REMARK    7  A    between atoms: C_10  and  N_11
REMARK    8  A    between atoms: C_14  and  C_18
REMARK    9  A    between atoms: N_16  and  C_17
REMARK   10  A    between atoms: C_18  and  C_19
REMARK   11  A    between atoms: C_18  and  C_20
REMARK   12  A    between atoms: C_18  and  C_21
REMARK   13  A    between atoms: C_22  and  C_28
REMARK                            x       y       z     vdW  Elec       q    Type
REMARK                         _______ _______ _______ _____ _____    ______ ____
ROOT
ATOM      1  N   UNL     1      -2.659  -6.883   1.594  0.00  0.00    -0.246 N 
ATOM      2  C   UNL     1      -3.061  -6.680   2.923  0.00  0.00    +0.131 A 
ATOM      3  C   UNL     1      -4.173  -5.996   3.277  0.00  0.00    +0.033 A 
ATOM      4  C   UNL     1      -4.248  -5.991   4.670  0.00  0.00    +0.075 A 
ATOM      5  N   UNL     1      -3.216  -6.654   5.135  0.00  0.00    -0.174 NA
ATOM      6  N   UNL     1      -2.451  -7.102   4.047  0.00  0.00    -0.253 N 
ATOM      7  C   UNL     1      -1.215  -7.885   4.120  0.00  0.00    +0.174 C 
ATOM      8  C   UNL     1      -5.142  -5.367   2.308  0.00  0.00    +0.112 C 
ATOM      9  S   UNL     1      -4.364  -3.876   1.591  0.00  0.00    -0.138 S 
ATOM     10  C   UNL     1      -2.651  -4.438   1.320  0.00  0.00    +0.166 C 
ATOM     11  C   UNL     1      -2.626  -5.831   0.770  0.00  0.00    +0.231 C 
ATOM     12  O   UNL     1      -2.580  -6.004  -0.429  0.00  0.00    -0.274 OA
ENDROOT
BRANCH   8  13
ATOM     13  C   UNL     1      -6.406  -4.985   3.034  0.00  0.00    -0.023 A 
ATOM     14  C   UNL     1      -6.618  -3.678   3.432  0.00  0.00    +0.012 A 
ATOM     15  C   UNL     1      -7.766  -3.367   4.082  0.00  0.00    +0.045 A 
ATOM     16  S   UNL     1      -8.592  -4.948   4.150  0.00  0.00    -0.105 S 
ATOM     17  C   UNL     1      -7.354  -5.915   3.301  0.00  0.00    +0.050 A 
ENDBRANCH   8  13
BRANCH   4  18
ATOM     18  C   UNL     1      -5.325  -5.338   5.497  0.00  0.00    +0.007 C 
ATOM     19  C   UNL     1      -6.612  -6.160   5.398  0.00  0.00    +0.017 C 
ATOM     20  C   UNL     1      -4.876  -5.268   6.958  0.00  0.00    +0.017 C 
ATOM     21  C   UNL     1      -5.582  -3.923   4.974  0.00  0.00    +0.017 C 
ENDBRANCH   4  18
BRANCH   1  22
ATOM     22  C   UNL     1      -2.278  -8.217   1.122  0.00  0.00    +0.210 C 
BRANCH  22  24
ATOM     23  N   UNL     1      -3.339 -10.105  -0.072  0.00  0.00    -0.311 N 
ATOM     24  C   UNL     1      -3.457  -8.866   0.444  0.00  0.00    +0.231 C 
ATOM     25  O   UNL     1      -4.512  -8.273   0.364  0.00  0.00    -0.274 OA
ATOM     26  H   UNL     1      -2.496 -10.579  -0.008  0.00  0.00    +0.149 HD
BRANCH  23  28
ATOM     27  C   UNL     1      -5.367 -11.416   0.319  0.00  0.00    +0.028 C 
ATOM     28  C   UNL     1      -4.486 -10.736  -0.731  0.00  0.00    +0.072 C 
BRANCH  28  29
ATOM     29  C   UNL     1      -3.988 -11.780  -1.732  0.00  0.00    +0.003 C 
ATOM     30  C   UNL     1      -5.185 -12.439  -2.420  0.00  0.00    +0.009 C 
ATOM     31  C   UNL     1      -3.107 -11.100  -2.782  0.00  0.00    +0.009 C 
ENDBRANCH  28  29
ENDBRANCH  23  28
ENDBRANCH  22  24
ENDBRANCH   1  22
TORSDOF 6
