REMARK  Name = ZINC05486759
REMARK  10 active torsions:
REMARK  status: ('A' for Active; 'I' for Inactive)
REMARK    1  A    between atoms: C_1  and  C_2
REMARK    2  A    between atoms: C_5  and  S_8
REMARK    3  A    between atoms: S_8  and  O_11
REMARK    4  A    between atoms: O_11  and  C_12
REMARK    5  A    between atoms: C_21  and  N_27
REMARK    6  A    between atoms: N_27  and  C_28
REMARK    7  A    between atoms: C_28  and  C_29
REMARK    8  A    between atoms: C_29  and  N_56
REMARK    9  A    between atoms: C_30  and  N_56
REMARK   10  A    between atoms: C_31  and  N_56
REMARK                            x       y       z     vdW  Elec       q    Type
REMARK                         _______ _______ _______ _____ _____    ______ ____
ROOT
ATOM      1  C   UNL     1      -1.217  -0.298   2.001  0.00  0.00    +0.158 A 
ATOM      2  C   UNL     1      -2.128  -1.350   1.981  0.00  0.00    +0.052 A 
ATOM      3  C   UNL     1      -3.335  -1.248   2.638  0.00  0.00    +0.050 A 
ATOM      4  C   UNL     1      -3.657  -0.086   3.332  0.00  0.00    +0.139 A 
ATOM      5  C   UNL     1      -2.738   0.974   3.353  0.00  0.00    +0.068 A 
ATOM      6  C   UNL     1      -1.516   0.862   2.690  0.00  0.00    +0.064 A 
ATOM      7  C   UNL     1      -3.087   2.205   4.092  0.00  0.00    +0.202 A 
ATOM      8  O   UNL     1      -2.328   3.156   4.143  0.00  0.00    -0.286 OA
ATOM      9  C   UNL     1      -4.398   2.227   4.764  0.00  0.00    +0.085 A 
ATOM     10  C   UNL     1      -4.816   3.352   5.489  0.00  0.00    +0.042 A 
ATOM     11  C   UNL     1      -6.056   3.340   6.110  0.00  0.00    +0.024 A 
ATOM     12  C   UNL     1      -6.870   2.225   6.012  0.00  0.00    +0.005 A 
ATOM     13  C   UNL     1      -6.465   1.114   5.300  0.00  0.00    +0.047 A 
ATOM     14  C   UNL     1      -5.228   1.098   4.667  0.00  0.00    +0.141 A 
ATOM     15  O   UNL     1      -4.841   0.009   3.973  0.00  0.00    -0.455 OA
ENDROOT
BRANCH  10  16
ATOM     16  N   UNL     1      -3.995   4.469   5.585  0.00  0.00    -0.345 N 
ATOM     17  H   UNL     1      -3.095   4.441   5.224  0.00  0.00    +0.146 HD
BRANCH  16  18
ATOM     18  C   UNL     1      -4.489   5.687   6.230  0.00  0.00    +0.083 C 
BRANCH  18  19
ATOM     19  C   UNL     1      -3.396   6.758   6.202  0.00  0.00    -0.061 C 
BRANCH  19  22
ATOM     20  C   UNL     1      -2.803   8.945   7.055  0.00  0.00    -0.097 C 
ATOM     21  C   UNL     1      -4.987   8.579   6.076  0.00  0.00    -0.097 C 
ATOM     22  N   UNL     1      -3.901   7.973   6.876  0.00  0.00    +0.377 N 
ATOM     23  H   UNL     1      -4.271   7.714   7.798  0.00  0.00    -0.083 HD
ENDBRANCH  19  22
ENDBRANCH  18  19
ENDBRANCH  16  18
ENDBRANCH  10  16
BRANCH   1  24
ATOM     24  O   UNL     1      -0.030  -0.414   1.348  0.00  0.00    -0.342 OA
BRANCH  24  25
ATOM     25  S   UNL     1      -0.071   0.058  -0.098  0.00  0.00    +0.151 S 
ATOM     26  O   UNL     1      -1.323  -0.358  -0.626  0.00  0.00    -0.131 OA
ATOM     27  O   UNL     1       1.167  -0.321  -0.684  0.00  0.00    -0.131 OA
BRANCH  25  32
ATOM     28  C   UNL     1      -0.159   6.090  -0.003  0.00  0.00    +0.044 C 
ATOM     29  C   UNL     1      -0.137   4.584  -0.027  0.00  0.00    -0.050 A 
ATOM     30  C   UNL     1       1.070   3.911  -0.065  0.00  0.00    +0.005 A 
ATOM     31  C   UNL     1       1.090   2.529  -0.087  0.00  0.00    +0.031 A 
ATOM     32  C   UNL     1      -0.097   1.820  -0.070  0.00  0.00    +0.128 A 
ATOM     33  C   UNL     1      -1.304   2.493  -0.037  0.00  0.00    +0.031 A 
ATOM     34  C   UNL     1      -1.324   3.875  -0.011  0.00  0.00    +0.005 A 
ENDBRANCH  25  32
ENDBRANCH  24  25
ENDBRANCH   1  24
TORSDOF 7
