REMARK  Name = ZINC47628830
REMARK  12 active torsions:
REMARK  status: ('A' for Active; 'I' for Inactive)
REMARK    1  A    between atoms: C_1  and  C_2
REMARK    2  A    between atoms: C_2  and  O_3
REMARK    3  A    between atoms: O_3  and  C_4
REMARK    4  A    between atoms: C_4  and  C_6
REMARK    5  A    between atoms: C_7  and  C_22
REMARK    6  A    between atoms: C_12  and  C_14
REMARK    7  A    between atoms: C_17  and  O_20
REMARK    8  A    between atoms: O_20  and  C_21
REMARK    9  A    between atoms: C_22  and  N_23
REMARK   10  A    between atoms: N_23  and  C_24
REMARK   11  A    between atoms: N_23  and  C_25
REMARK   12  A    between atoms: C_25  and  C_26
REMARK                            x       y       z     vdW  Elec       q    Type
REMARK                         _______ _______ _______ _____ _____    ______ ____
ROOT
ATOM      1  C   UNL     1       1.725  -2.462   2.473  0.00  0.00    +0.076 C 
ATOM      2  C   UNL     1       1.527  -3.776   2.710  0.00  0.00    +0.008 C 
ATOM      3  N   UNL     1       1.950  -4.354   3.872  0.00  0.00    -0.274 N 
ATOM      4  C   UNL     1       2.578  -3.687   4.848  0.00  0.00    +0.304 C 
ATOM      5  O   UNL     1       2.917  -4.288   5.848  0.00  0.00    -0.252 OA
ATOM      6  N   UNL     1       2.847  -2.369   4.757  0.00  0.00    -0.288 N 
ATOM      7  C   UNL     1       2.437  -1.653   3.538  0.00  0.00    +0.143 C 
ATOM      8  H   UNL     1       1.785  -5.302   3.999  0.00  0.00    +0.156 HD
ATOM      9  H   UNL     1       3.303  -1.905   5.476  0.00  0.00    +0.151 HD
ENDROOT
BRANCH   7  10
ATOM     10  C   UNL     1       3.667  -1.044   2.915  0.00  0.00    -0.022 A 
ATOM     11  C   UNL     1       4.806  -1.810   2.748  0.00  0.00    +0.009 A 
ATOM     12  C   UNL     1       5.935  -1.254   2.177  0.00  0.00    +0.046 A 
ATOM     13  C   UNL     1       5.925   0.072   1.771  0.00  0.00    +0.120 A 
ATOM     14  C   UNL     1       4.780   0.838   1.939  0.00  0.00    +0.046 A 
ATOM     15  C   UNL     1       3.652   0.276   2.505  0.00  0.00    +0.009 A 
BRANCH  13  16
ATOM     16  O   UNL     1       7.034   0.621   1.210  0.00  0.00    -0.495 OA
ATOM     17  C   UNL     1       6.951   1.992   0.815  0.00  0.00    +0.277 C 
ENDBRANCH  13  16
ENDBRANCH   7  10
BRANCH   1  18
ATOM     18  C   UNL     1       1.288  -1.862   1.269  0.00  0.00    +0.339 C 
ATOM     19  O   UNL     1       0.830  -2.551   0.376  0.00  0.00    -0.245 OA
BRANCH  18  20
ATOM     20  O   UNL     1       1.378  -0.525   1.109  0.00  0.00    -0.462 OA
BRANCH  20  22
ATOM     21  C   UNL     1       1.099   1.533  -0.127  0.00  0.00    +0.048 C 
ATOM     22  C   UNL     1       0.918   0.013  -0.132  0.00  0.00    +0.229 C 
ENDBRANCH  20  22
ENDBRANCH  18  20
ENDBRANCH   1  18
BRANCH   2  23
ATOM     23  C   UNL     1       0.827  -4.619   1.675  0.00  0.00    -0.026 C 
BRANCH  23  24
ATOM     24  N   UNL     1       1.806  -5.097   0.689  0.00  0.00    +0.387 N 
ATOM     25  C   UNL     1       2.751  -6.013   1.343  0.00  0.00    -0.095 C 
ATOM     26  H   UNL     1       2.310  -4.311   0.306  0.00  0.00    -0.081 HD
BRANCH  24  27
ATOM     27  C   UNL     1       1.107  -5.804  -0.392  0.00  0.00    +0.018 C 
BRANCH  27  28
ATOM     28  C   UNL     1       2.096  -6.188  -1.463  0.00  0.00    +0.194 C 
ATOM     29  O   UNL     1       3.268  -5.900  -1.337  0.00  0.00    -0.278 OA
ATOM     30  N   UNL     1       1.679  -6.850  -2.560  0.00  0.00    -0.331 N 
ATOM     31  H   UNL     1       0.742  -7.080  -2.660  0.00  0.00    +0.145 HD
ATOM     32  H   UNL     1       2.315  -7.097  -3.249  0.00  0.00    +0.145 HD
ENDBRANCH  27  28
ENDBRANCH  24  27
ENDBRANCH  23  24
ENDBRANCH   2  23
TORSDOF 9
