REMARK  Name = ZINC39657043
REMARK  8 active torsions:
REMARK  status: ('A' for Active; 'I' for Inactive)
REMARK    1  A    between atoms: C_1  and  C_2
REMARK    2  A    between atoms: C_2  and  C_3
REMARK    3  A    between atoms: C_3  and  C_5
REMARK    4  A    between atoms: C_3  and  C_11
REMARK    5  A    between atoms: C_15  and  C_24
REMARK    6  A    between atoms: N_26  and  C_27
REMARK    7  A    between atoms: C_27  and  C_29
REMARK    8  A    between atoms: C_27  and  C_30
REMARK                            x       y       z     vdW  Elec       q    Type
REMARK                         _______ _______ _______ _____ _____    ______ ____
ROOT
ATOM      1  C   UNL     1      -0.076  -0.066   2.555  0.00  0.00    +0.223 C 
ATOM      2  O   UNL     1      -0.394  -0.821   3.449  0.00  0.00    -0.275 OA
ATOM      3  N   UNL     1      -0.317   1.256   2.671  0.00  0.00    -0.300 N 
ATOM      4  C   UNL     1       0.075   2.336   1.735  0.00  0.00    +0.121 C 
ATOM      5  C   UNL     1      -1.138   3.293   1.714  0.00  0.00    +0.100 C 
ATOM      6  C   UNL     1      -1.860   3.041   3.048  0.00  0.00    -0.004 C 
ATOM      7  C   UNL     1      -1.039   1.955   3.760  0.00  0.00    +0.115 C 
ATOM      8  C   UNL     1      -3.279   2.539   2.795  0.00  0.00    -0.010 C 
ATOM      9  C   UNL     1      -3.995   2.350   4.135  0.00  0.00    -0.082 C 
ATOM     10  N   UNL     1      -4.028   3.627   4.859  0.00  0.00    +0.379 N 
ATOM     11  C   UNL     1      -2.661   4.055   5.180  0.00  0.00    -0.082 C 
ATOM     12  C   UNL     1      -1.888   4.316   3.885  0.00  0.00    -0.010 C 
ATOM     13  H   UNL     1      -4.472   4.327   4.284  0.00  0.00    -0.086 HD
ATOM     14  H   UNL     1      -4.553   3.514   5.713  0.00  0.00    -0.086 HD
ENDROOT
BRANCH   5  15
ATOM     15  C   UNL     1      -2.044   2.968   0.555  0.00  0.00    +0.219 C 
ATOM     16  O   UNL     1      -2.133   1.826   0.157  0.00  0.00    -0.275 OA
ATOM     17  N   UNL     1      -2.755   3.946  -0.040  0.00  0.00    -0.308 N 
ATOM     18  H   UNL     1      -2.684   4.859   0.278  0.00  0.00    +0.149 HD
BRANCH  17  19
ATOM     19  C   UNL     1      -3.635   3.630  -1.167  0.00  0.00    +0.100 C 
ATOM     20  C   UNL     1      -4.994   3.165  -0.638  0.00  0.00    +0.033 C 
BRANCH  19  21
ATOM     21  C   UNL     1      -3.822   4.859  -2.019  0.00  0.00    -0.027 A 
ATOM     22  C   UNL     1      -3.969   6.097  -1.423  0.00  0.00    +0.006 A 
ATOM     23  C   UNL     1      -4.139   7.225  -2.204  0.00  0.00    +0.015 A 
ATOM     24  C   UNL     1      -4.163   7.114  -3.583  0.00  0.00    +0.018 A 
ATOM     25  C   UNL     1      -4.016   5.874  -4.179  0.00  0.00    +0.015 A 
ATOM     26  C   UNL     1      -3.840   4.748  -3.397  0.00  0.00    +0.006 A 
ATOM     27 BR   UNL     1      -4.397   8.656  -4.652  0.00  0.00    -0.050 Br
ENDBRANCH  19  21
ENDBRANCH  17  19
ENDBRANCH   5  15
BRANCH   1  28
ATOM     28  C   UNL     1       0.587  -0.604   1.314  0.00  0.00    +0.105 C 
BRANCH  28  29
ATOM     29  C   UNL     1       2.077  -0.671   1.529  0.00  0.00    -0.036 A 
ATOM     30  C   UNL     1       2.595  -1.453   2.545  0.00  0.00    +0.004 A 
ATOM     31  C   UNL     1       3.961  -1.514   2.743  0.00  0.00    +0.000 A 
ATOM     32  C   UNL     1       4.811  -0.793   1.925  0.00  0.00    +0.000 A 
ATOM     33  C   UNL     1       4.294  -0.012   0.908  0.00  0.00    +0.000 A 
ATOM     34  C   UNL     1       2.927   0.046   0.708  0.00  0.00    +0.004 A 
ENDBRANCH  28  29
BRANCH  28  36
ATOM     35  C   UNL     1      -1.433  -1.920   0.658  0.00  0.00    +0.005 C 
ATOM     36  C   UNL     1       0.052  -2.006   1.017  0.00  0.00    +0.014 C 
ENDBRANCH  28  36
ENDBRANCH   1  28
TORSDOF 6
