REMARK  Name = ZINC35034049
REMARK  14 active torsions:
REMARK  status: ('A' for Active; 'I' for Inactive)
REMARK    1  A    between atoms: C_1  and  C_2
REMARK    2  A    between atoms: C_2  and  C_3
REMARK    3  A    between atoms: C_3  and  C_5
REMARK    4  A    between atoms: C_3  and  N_20
REMARK    5  A    between atoms: N_15  and  C_16
REMARK    6  A    between atoms: C_16  and  C_17
REMARK    7  A    between atoms: C_17  and  O_18
REMARK    8  A    between atoms: O_18  and  C_19
REMARK    9  A    between atoms: N_20  and  C_21
REMARK   10  A    between atoms: C_21  and  C_22
REMARK   11  A    between atoms: C_22  and  N_23
REMARK   12  A    between atoms: N_23  and  C_24
REMARK   13  A    between atoms: N_23  and  C_25
REMARK   14  A    between atoms: N_28  and  C_29
REMARK                            x       y       z     vdW  Elec       q    Type
REMARK                         _______ _______ _______ _____ _____    ______ ____
ROOT
ATOM      1  C   UNL     1       0.600   0.003  -1.100  0.00  0.00    +0.143 C 
ENDROOT
BRANCH   1   2
ATOM      2  C   UNL     1       0.662  -1.501  -1.167  0.00  0.00    +0.134 A 
ATOM      3  N   UNL     1      -0.404  -2.176  -0.862  0.00  0.00    -0.232 NA
ATOM      4  C   UNL     1      -0.422  -3.532  -0.900  0.00  0.00    +0.078 A 
ATOM      5  C   UNL     1      -1.569  -4.259  -0.573  0.00  0.00    +0.028 A 
ATOM      6  C   UNL     1      -1.542  -5.634  -0.625  0.00  0.00    +0.002 A 
ATOM      7  C   UNL     1      -0.388  -6.310  -1.000  0.00  0.00    +0.001 A 
ATOM      8  C   UNL     1       0.755  -5.615  -1.328  0.00  0.00    +0.015 A 
ATOM      9  C   UNL     1       0.750  -4.222  -1.281  0.00  0.00    +0.065 A 
ATOM     10  C   UNL     1       1.940  -3.428  -1.620  0.00  0.00    +0.262 A 
ATOM     11  O   UNL     1       2.981  -3.961  -1.956  0.00  0.00    -0.267 OA
ATOM     12  N   UNL     1       1.830  -2.081  -1.550  0.00  0.00    -0.292 N 
BRANCH  12  13
ATOM     13  C   UNL     1       2.983  -1.240  -1.882  0.00  0.00    +0.154 C 
BRANCH  13  14
ATOM     14  C   UNL     1       3.728  -0.866  -0.600  0.00  0.00    +0.181 C 
BRANCH  14  15
ATOM     15  O   UNL     1       4.303  -2.040  -0.022  0.00  0.00    -0.381 OA
ATOM     16  C   UNL     1       5.025  -1.799   1.187  0.00  0.00    +0.194 C 
ENDBRANCH  14  15
ENDBRANCH  13  14
ENDBRANCH  12  13
ENDBRANCH   1   2
BRANCH   1  17
ATOM     17  N   UNL     1      -0.331   0.499  -2.117  0.00  0.00    -0.277 N 
ATOM     18  C   UNL     1       0.105   1.337  -3.079  0.00  0.00    +0.307 C 
ATOM     19  O   UNL     1       1.271   1.681  -3.102  0.00  0.00    -0.252 OA
ATOM     20  N   UNL     1      -0.751   1.793  -4.014  0.00  0.00    -0.267 N 
ATOM     21  H   UNL     1      -1.694   1.574  -3.957  0.00  0.00    +0.156 HD
BRANCH  20  22
ATOM     22  C   UNL     1      -0.279   2.584  -5.069  0.00  0.00    +0.070 A 
ATOM     23  C   UNL     1       0.850   3.373  -4.896  0.00  0.00    +0.026 A 
ATOM     24  C   UNL     1       1.314   4.153  -5.938  0.00  0.00    +0.002 A 
ATOM     25  C   UNL     1       0.655   4.148  -7.154  0.00  0.00    +0.003 A 
ATOM     26  C   UNL     1      -0.470   3.364  -7.332  0.00  0.00    +0.040 A 
ATOM     27  C   UNL     1      -0.936   2.577  -6.294  0.00  0.00    +0.145 A 
ATOM     28  F   UNL     1      -2.032   1.807  -6.469  0.00  0.00    -0.204 F 
ENDBRANCH  20  22
BRANCH  17  29
ATOM     29  C   UNL     1      -1.736   0.085  -2.089  0.00  0.00    +0.091 C 
BRANCH  29  30
ATOM     30  C   UNL     1      -2.541   1.070  -1.239  0.00  0.00    -0.060 C 
BRANCH  30  31
ATOM     31  N   UNL     1      -3.950   0.654  -1.211  0.00  0.00    +0.377 N 
ATOM     32  C   UNL     1      -4.700   1.529  -0.299  0.00  0.00    -0.097 C 
ATOM     33  C   UNL     1      -4.517   0.753  -2.562  0.00  0.00    -0.097 C 
ATOM     34  H   UNL     1      -4.013  -0.300  -0.889  0.00  0.00    -0.083 HD
ENDBRANCH  30  31
ENDBRANCH  29  30
ENDBRANCH  17  29
ENDBRANCH   1  17
BRANCH   1  36
ATOM     35  C   UNL     1       0.159   1.958   0.393  0.00  0.00    +0.006 C 
ATOM     36  C   UNL     1       0.116   0.432   0.287  0.00  0.00    +0.027 C 
ENDBRANCH   1  36
TORSDOF 10
