REMARK  Name = ZINC28631843
REMARK  7 active torsions:
REMARK  status: ('A' for Active; 'I' for Inactive)
REMARK    1  A    between atoms: C_4  and  C_7
REMARK    2  A    between atoms: C_7  and  N_8
REMARK    3  A    between atoms: C_11  and  N_14
REMARK    4  A    between atoms: C_15  and  C_17
REMARK    5  A    between atoms: C_17  and  N_24
REMARK    6  A    between atoms: C_18  and  C_19
REMARK    7  A    between atoms: C_25  and  C_27
REMARK                            x       y       z     vdW  Elec       q    Type
REMARK                         _______ _______ _______ _____ _____    ______ ____
ROOT
ATOM      1  N   UNL     1       1.381   3.486   0.101  0.00  0.00    -0.308 N 
ATOM      2  C   UNL     1       2.431   4.218   0.520  0.00  0.00    +0.259 C 
ATOM      3  O   UNL     1       3.459   3.666   0.867  0.00  0.00    -0.269 OA
ATOM      4  H   UNL     1       0.483   3.986  -0.292  0.00  0.00    +0.149 HD
ENDROOT
BRANCH   1   8
ATOM      5  N   UNL     1       0.660  -0.540  -0.913  0.00  0.00    +0.382 N 
ATOM      6  C   UNL     1       0.072  -0.062   0.345  0.00  0.00    -0.077 C 
ATOM      7  C   UNL     1       0.017   1.467   0.335  0.00  0.00    +0.004 C 
ATOM      8  C   UNL     1       1.434   2.023   0.169  0.00  0.00    +0.070 C 
ATOM      9  C   UNL     1       2.042   1.472  -1.124  0.00  0.00    +0.004 C 
ATOM     10  C   UNL     1       2.038  -0.057  -1.072  0.00  0.00    -0.077 C 
ATOM     11  H   UNL     1       0.064  -0.128  -1.740  0.00  0.00    -0.081 HD
BRANCH   5  12
ATOM     12  C   UNL     1       0.603  -2.005  -0.998  0.00  0.00    -0.043 C 
BRANCH  12  16
ATOM     13  C   UNL     1       1.683  -3.246  -4.941  0.00  0.00    +0.000 A 
ATOM     14  C   UNL     1       2.656  -3.110  -3.968  0.00  0.00    +0.000 A 
ATOM     15  C   UNL     1       2.306  -2.708  -2.692  0.00  0.00    +0.002 A 
ATOM     16  C   UNL     1       0.984  -2.443  -2.389  0.00  0.00    -0.064 A 
ATOM     17  C   UNL     1       0.011  -2.585  -3.360  0.00  0.00    +0.002 A 
ATOM     18  C   UNL     1       0.361  -2.981  -4.637  0.00  0.00    +0.000 A 
ENDBRANCH  12  16
ENDBRANCH   5  12
ENDBRANCH   1   8
BRANCH   2  19
ATOM     19  C   UNL     1       2.337   5.680   0.559  0.00  0.00    +0.100 C 
ATOM     20  C   UNL     1       1.843   6.300   1.663  0.00  0.00    +0.074 C 
BRANCH  20  21
ATOM     21  C   UNL     1       1.307   5.533   2.726  0.00  0.00    +0.130 A 
ATOM     22  C   UNL     1       0.684   6.029   3.853  0.00  0.00    +0.049 A 
ATOM     23  C   UNL     1       0.317   4.917   4.628  0.00  0.00    +0.042 A 
ATOM     24  C   UNL     1       0.719   3.814   3.960  0.00  0.00    +0.195 A 
ATOM     25  O   UNL     1       1.309   4.187   2.814  0.00  0.00    -0.463 OA
ENDBRANCH  20  21
BRANCH  19  26
ATOM     26  N   UNL     1       2.755   6.438  -0.541  0.00  0.00    -0.277 N 
ATOM     27  C   UNL     1       3.136   5.822  -1.678  0.00  0.00    +0.248 C 
ATOM     28  O   UNL     1       3.032   4.615  -1.780  0.00  0.00    -0.270 OA
ATOM     29  H   UNL     1       2.771   7.536  -0.479  0.00  0.00    +0.155 HD
BRANCH  27  30
ATOM     30  C   UNL     1       3.683   6.614  -2.800  0.00  0.00    +0.037 A 
ATOM     31  C   UNL     1       3.799   8.000  -2.688  0.00  0.00    +0.013 A 
ATOM     32  C   UNL     1       4.314   8.733  -3.737  0.00  0.00    +0.001 A 
ATOM     33  C   UNL     1       4.706   8.097  -4.902  0.00  0.00    +0.000 A 
ATOM     34  C   UNL     1       4.588   6.724  -5.022  0.00  0.00    +0.001 A 
ATOM     35  C   UNL     1       4.079   5.979  -3.978  0.00  0.00    +0.013 A 
ENDBRANCH  27  30
ENDBRANCH  19  26
ENDBRANCH   2  19
TORSDOF 7
