REMARK  Name = ZINC34829668
REMARK  10 active torsions:
REMARK  status: ('A' for Active; 'I' for Inactive)
REMARK    1  A    between atoms: C_1  and  C_2
REMARK    2  A    between atoms: C_2  and  C_3
REMARK    3  A    between atoms: C_3  and  C_5
REMARK    4  A    between atoms: C_3  and  C_11
REMARK    5  A    between atoms: C_18  and  C_20
REMARK    6  A    between atoms: C_21  and  C_23
REMARK    7  A    between atoms: C_23  and  N_24
REMARK    8  A    between atoms: C_32  and  C_34
REMARK    9  A    between atoms: C_37  and  O_40
REMARK   10  A    between atoms: O_40  and  C_41
REMARK                            x       y       z     vdW  Elec       q    Type
REMARK                         _______ _______ _______ _____ _____    ______ ____
ROOT
ATOM      1  C   UNL     1      -1.367  -2.035  -0.011  0.00  0.00    +0.223 C 
ATOM      2  O   UNL     1      -1.813  -2.639  -0.963  0.00  0.00    -0.275 OA
ATOM      3  N   UNL     1      -0.874  -2.711   1.045  0.00  0.00    -0.295 N 
ATOM      4  C   UNL     1      -0.433  -1.996   2.252  0.00  0.00    +0.127 C 
ATOM      5  C   UNL     1       1.019  -2.390   2.551  0.00  0.00    +0.126 C 
ATOM      6  N   UNL     1       1.125  -3.856   2.518  0.00  0.00    -0.300 N 
ATOM      7  C   UNL     1       0.683  -4.570   1.312  0.00  0.00    +0.130 C 
ATOM      8  C   UNL     1      -0.773  -4.177   1.014  0.00  0.00    +0.090 C 
ATOM      9  C   UNL     1      -1.174  -4.690  -0.371  0.00  0.00    +0.029 C 
ATOM     10  C   UNL     1       1.617  -4.532   3.574  0.00  0.00    +0.199 C 
ATOM     11  O   UNL     1       1.700  -5.741   3.535  0.00  0.00    -0.278 OA
ENDROOT
BRANCH   1  12
ATOM     12  C   UNL     1      -1.363  -0.528  -0.009  0.00  0.00    +0.105 C 
BRANCH  12  13
ATOM     13  C   UNL     1      -2.315  -0.022  -1.062  0.00  0.00    -0.036 A 
ATOM     14  C   UNL     1      -2.121  -0.359  -2.389  0.00  0.00    +0.004 A 
ATOM     15  C   UNL     1      -2.994   0.105  -3.355  0.00  0.00    +0.000 A 
ATOM     16  C   UNL     1      -4.061   0.906  -2.994  0.00  0.00    +0.000 A 
ATOM     17  C   UNL     1      -4.256   1.242  -1.668  0.00  0.00    +0.000 A 
ATOM     18  C   UNL     1      -3.385   0.775  -0.701  0.00  0.00    +0.004 A 
ENDBRANCH  12  13
BRANCH  12  20
ATOM     19  C   UNL     1       0.070   1.507  -0.226  0.00  0.00    +0.005 C 
ATOM     20  C   UNL     1       0.048  -0.020  -0.311  0.00  0.00    +0.014 C 
ENDBRANCH  12  20
ENDBRANCH   1  12
BRANCH  10  21
ATOM     21  C   UNL     1       2.066  -3.786   4.804  0.00  0.00    +0.020 C 
BRANCH  21  22
ATOM     22  N   UNL     1       2.559  -4.742   5.804  0.00  0.00    +0.393 N 
ATOM     23  C   UNL     1       3.745  -5.428   5.275  0.00  0.00    -0.072 C 
ATOM     24  C   UNL     1       4.056  -6.643   6.166  0.00  0.00    +0.024 C 
ATOM     25  C   UNL     1       4.004  -6.184   7.587  0.00  0.00    -0.010 A 
ATOM     26  C   UNL     1       3.487  -5.006   8.038  0.00  0.00    -0.047 A 
ATOM     27  C   UNL     1       3.551  -4.786   9.411  0.00  0.00    +0.010 A 
ATOM     28  C   UNL     1       4.102  -5.719  10.222  0.00  0.00    +0.045 A 
ATOM     29  S   UNL     1       4.571  -6.990   9.056  0.00  0.00    -0.101 S 
ATOM     30  C   UNL     1       2.882  -4.022   7.042  0.00  0.00    -0.005 C 
ATOM     31  H   UNL     1       1.839  -5.423   5.995  0.00  0.00    -0.080 HD
BRANCH  30  32
ATOM     32  C   UNL     1       1.626  -3.425   7.622  0.00  0.00    -0.056 A 
ATOM     33  C   UNL     1       0.446  -4.146   7.603  0.00  0.00    +0.006 A 
ATOM     34  C   UNL     1      -0.707  -3.600   8.133  0.00  0.00    +0.046 A 
ATOM     35  C   UNL     1      -0.680  -2.328   8.687  0.00  0.00    +0.120 A 
ATOM     36  C   UNL     1       0.505  -1.607   8.705  0.00  0.00    +0.046 A 
ATOM     37  C   UNL     1       1.656  -2.159   8.178  0.00  0.00    +0.006 A 
BRANCH  35  38
ATOM     38  O   UNL     1      -1.813  -1.790   9.209  0.00  0.00    -0.495 OA
ATOM     39  C   UNL     1      -1.712  -0.476   9.762  0.00  0.00    +0.277 C 
ENDBRANCH  35  38
ENDBRANCH  30  32
ENDBRANCH  21  22
ENDBRANCH  10  21
TORSDOF 7
