REMARK  Name = ZINC08789778
REMARK  6 active torsions:
REMARK  status: ('A' for Active; 'I' for Inactive)
REMARK    1  A    between atoms: C_1  and  C_2
REMARK    2  A    between atoms: C_5  and  C_34
REMARK    3  A    between atoms: C_9  and  C_10
REMARK    4  A    between atoms: C_9  and  N_57
REMARK    5  A    between atoms: C_11  and  O_33
REMARK    6  A    between atoms: C_20  and  C_21
REMARK                            x       y       z     vdW  Elec       q    Type
REMARK                         _______ _______ _______ _____ _____    ______ ____
ROOT
ATOM      1  C   UNL     1      -1.009   3.469  -0.940  0.00  0.00    +0.020 A 
ATOM      2  C   UNL     1      -2.117   3.942  -0.256  0.00  0.00    +0.122 A 
ATOM      3  C   UNL     1      -2.312   5.310  -0.085  0.00  0.00    +0.046 A 
ATOM      4  C   UNL     1      -1.417   6.204  -0.599  0.00  0.00    +0.016 A 
ATOM      5  C   UNL     1      -0.298   5.744  -1.296  0.00  0.00    +0.026 A 
ATOM      6  C   UNL     1      -0.092   4.365  -1.468  0.00  0.00    +0.144 A 
ATOM      7  O   UNL     1       0.991   3.923  -2.144  0.00  0.00    -0.422 OA
ATOM      8  C   UNL     1       1.896   4.766  -2.666  0.00  0.00    +0.338 A 
ATOM      9  O   UNL     1       2.854   4.310  -3.265  0.00  0.00    -0.245 OA
ATOM     10  C   UNL     1       1.769   6.158  -2.541  0.00  0.00    +0.101 A 
ATOM     11  C   UNL     1       0.684   6.686  -1.862  0.00  0.00    +0.006 A 
ENDROOT
BRANCH  11  12
ATOM     12  C   UNL     1       0.516   8.144  -1.710  0.00  0.00    +0.068 A 
ATOM     13  C   UNL     1       0.307   8.947  -2.815  0.00  0.00    +0.027 A 
ATOM     14  C   UNL     1       0.146  10.343  -2.623  0.00  0.00    +0.020 A 
ATOM     15  C   UNL     1      -0.073  11.186  -3.723  0.00  0.00    +0.031 A 
ATOM     16  C   UNL     1      -0.224  12.539  -3.527  0.00  0.00    +0.042 A 
ATOM     17  C   UNL     1      -0.159  13.074  -2.246  0.00  0.00    +0.023 A 
ATOM     18  C   UNL     1       0.056  12.259  -1.156  0.00  0.00    +0.048 A 
ATOM     19  C   UNL     1       0.211  10.888  -1.328  0.00  0.00    +0.139 A 
ATOM     20  O   UNL     1       0.422  10.096  -0.254  0.00  0.00    -0.422 OA
ATOM     21  C   UNL     1       0.575   8.768  -0.383  0.00  0.00    +0.345 A 
ATOM     22  O   UNL     1       0.764   8.081   0.604  0.00  0.00    -0.245 OA
ATOM     23 CL   UNL     1      -0.496  13.584  -4.886  0.00  0.00    -0.084 Cl
ENDBRANCH  11  12
BRANCH   2  24
ATOM     24  O   UNL     1      -3.018   3.064   0.256  0.00  0.00    -0.506 OA
ATOM     25  H   UNL     1      -2.823   2.783   1.160  0.00  0.00    +0.292 HD
ENDBRANCH   2  24
BRANCH   1  26
ATOM     26  C   UNL     1      -0.804   1.986  -1.115  0.00  0.00    -0.036 C 
BRANCH  26  34
ATOM     27  C   UNL     1       3.511   2.120   1.240  0.00  0.00    +0.005 C 
ATOM     28  C   UNL     1       2.086   1.565   1.261  0.00  0.00    -0.031 C 
ATOM     29  C   UNL     1       2.133   0.035   1.302  0.00  0.00    +0.003 C 
ATOM     30  C   UNL     1       0.704  -0.513   1.263  0.00  0.00    -0.031 C 
ATOM     31  C   UNL     1       0.002  -0.004   0.002  0.00  0.00    -0.075 C 
ATOM     32  C   UNL     1       1.344   2.014   0.000  0.00  0.00    -0.075 C 
ATOM     33  C   UNL     1      -0.060  -0.037   2.500  0.00  0.00    +0.005 C 
ATOM     34  N   UNL     1      -0.032   1.474   0.035  0.00  0.00    +0.383 N 
ATOM     35  H   UNL     1      -0.487   1.777   0.904  0.00  0.00    -0.081 HD
ENDBRANCH  26  34
ENDBRANCH   1  26
TORSDOF 4
