REMARK  Name = ZINC15446382
REMARK  11 active torsions:
REMARK  status: ('A' for Active; 'I' for Inactive)
REMARK    1  A    between atoms: C_1  and  N_2
REMARK    2  A    between atoms: N_2  and  C_3
REMARK    3  A    between atoms: C_3  and  C_4
REMARK    4  A    between atoms: C_7  and  C_9
REMARK    5  A    between atoms: C_16  and  C_18
REMARK    6  A    between atoms: C_18  and  N_57
REMARK    7  A    between atoms: C_19  and  N_57
REMARK    8  A    between atoms: C_20  and  C_21
REMARK    9  A    between atoms: C_20  and  N_57
REMARK   10  A    between atoms: N_23  and  C_24
REMARK   11  A    between atoms: C_29  and  C_30
REMARK                            x       y       z     vdW  Elec       q    Type
REMARK                         _______ _______ _______ _____ _____    ______ ____
ROOT
ATOM      1  C   UNL     1       3.679   1.738   0.246  0.00  0.00    +0.019 C 
ENDROOT
BRANCH   1   4
ATOM      2  C   UNL     1       6.338   2.575   0.757  0.00  0.00    +0.132 C 
ATOM      3  N   UNL     1       6.034   1.142   0.714  0.00  0.00    -0.299 N 
ATOM      4  C   UNL     1       4.774   0.728   0.472  0.00  0.00    +0.199 C 
ATOM      5  O   UNL     1       4.522  -0.458   0.435  0.00  0.00    -0.278 OA
BRANCH   3   6
ATOM      6  C   UNL     1       7.098   0.160   0.932  0.00  0.00    +0.181 C 
BRANCH   6   7
ATOM      7  C   UNL     1       7.736  -0.192  -0.387  0.00  0.00    +0.123 A 
ATOM      8  C   UNL     1       8.790   0.436  -0.942  0.00  0.00    +0.047 A 
ATOM      9  C   UNL     1       9.059  -0.210  -2.166  0.00  0.00    +0.050 A 
ATOM     10  C   UNL     1       8.143  -1.207  -2.291  0.00  0.00    +0.135 A 
ATOM     11  O   UNL     1       7.351  -1.188  -1.201  0.00  0.00    -0.458 OA
BRANCH  10  12
ATOM     12  C   UNL     1       8.040  -2.152  -3.422  0.00  0.00    +0.017 A 
ATOM     13  C   UNL     1       8.929  -2.062  -4.494  0.00  0.00    +0.013 A 
ATOM     14  C   UNL     1       8.831  -2.950  -5.545  0.00  0.00    +0.021 A 
ATOM     15  C   UNL     1       7.845  -3.923  -5.543  0.00  0.00    +0.041 A 
ATOM     16  C   UNL     1       6.957  -4.014  -4.485  0.00  0.00    +0.021 A 
ATOM     17  C   UNL     1       7.048  -3.135  -3.426  0.00  0.00    +0.013 A 
ATOM     18 CL   UNL     1       7.723  -5.032  -6.872  0.00  0.00    -0.084 Cl
ENDBRANCH  10  12
ENDBRANCH   6   7
ENDBRANCH   3   6
ENDBRANCH   1   4
BRANCH   1  20
ATOM     19  C   UNL     1       2.454   0.285  -1.254  0.00  0.00    -0.095 C 
ATOM     20  N   UNL     1       2.406   1.020   0.027  0.00  0.00    +0.389 N 
ATOM     21  H   UNL     1       2.265   0.349   0.791  0.00  0.00    -0.081 HD
BRANCH  20  22
ATOM     22  C   UNL     1       1.280   1.979   0.017  0.00  0.00    +0.019 C 
BRANCH  22  23
ATOM     23  C   UNL     1      -0.015   1.208   0.014  0.00  0.00    +0.201 C 
ATOM     24  O   UNL     1       0.001  -0.004   0.004  0.00  0.00    -0.278 OA
ATOM     25  N   UNL     1      -1.191   1.867   0.018  0.00  0.00    -0.287 N 
ATOM     26  H   UNL     1      -1.205   2.834   0.092  0.00  0.00    +0.155 HD
BRANCH  25  27
ATOM     27  C   UNL     1      -2.391   1.155  -0.086  0.00  0.00    +0.045 A 
ATOM     28  C   UNL     1      -2.510  -0.099   0.499  0.00  0.00    +0.024 A 
ATOM     29  C   UNL     1      -3.697  -0.796   0.399  0.00  0.00    +0.002 A 
ATOM     30  C   UNL     1      -4.764  -0.252  -0.292  0.00  0.00    +0.001 A 
ATOM     31  C   UNL     1      -4.648   0.994  -0.880  0.00  0.00    +0.014 A 
ATOM     32  C   UNL     1      -3.464   1.699  -0.779  0.00  0.00    +0.076 A 
BRANCH  32  33
ATOM     33  C   UNL     1      -3.338   3.057  -1.421  0.00  0.00    +0.419 C 
ATOM     34  F   UNL     1      -4.540   3.386  -2.055  0.00  0.00    -0.166 F 
ATOM     35  F   UNL     1      -3.051   4.011  -0.439  0.00  0.00    -0.166 F 
ATOM     36  F   UNL     1      -2.305   3.032  -2.364  0.00  0.00    -0.166 F 
ENDBRANCH  32  33
ENDBRANCH  25  27
ENDBRANCH  22  23
ENDBRANCH  20  22
ENDBRANCH   1  20
TORSDOF 9
