REMARK  Name = ZINC39674646
REMARK  7 active torsions:
REMARK  status: ('A' for Active; 'I' for Inactive)
REMARK    1  A    between atoms: C_1  and  C_2
REMARK    2  A    between atoms: C_4  and  C_14
REMARK    3  A    between atoms: C_7  and  C_12
REMARK    4  A    between atoms: C_14  and  C_15
REMARK    5  A    between atoms: C_15  and  N_16
REMARK    6  A    between atoms: C_17  and  C_19
REMARK    7  A    between atoms: C_30  and  C_32
REMARK                            x       y       z     vdW  Elec       q    Type
REMARK                         _______ _______ _______ _____ _____    ______ ____
ROOT
ATOM      1  C   UNL     1      -7.409  -0.904  -2.926  0.00  0.00    +0.100 C 
ATOM      2  C   UNL     1      -6.720  -1.570  -4.139  0.00  0.00    +0.121 C 
ATOM      3  N   UNL     1      -7.253  -2.953  -4.159  0.00  0.00    -0.296 N 
ATOM      4  C   UNL     1      -8.684  -2.802  -3.802  0.00  0.00    +0.115 C 
ATOM      5  C   UNL     1      -8.698  -1.713  -2.711  0.00  0.00    -0.004 C 
ATOM      6  C   UNL     1      -8.694  -2.355  -1.327  0.00  0.00    -0.010 C 
ATOM      7  C   UNL     1     -10.011  -3.107  -1.114  0.00  0.00    -0.082 C 
ATOM      8  N   UNL     1     -11.136  -2.172  -1.239  0.00  0.00    +0.379 N 
ATOM      9  C   UNL     1     -11.188  -1.629  -2.601  0.00  0.00    -0.082 C 
ATOM     10  C   UNL     1      -9.920  -0.815  -2.877  0.00  0.00    -0.010 C 
ATOM     11  C   UNL     1      -6.587  -4.091  -4.438  0.00  0.00    +0.247 C 
ATOM     12  O   UNL     1      -5.381  -4.067  -4.591  0.00  0.00    -0.270 OA
ATOM     13  H   UNL     1     -11.998  -2.657  -1.038  0.00  0.00    -0.086 HD
ATOM     14  H   UNL     1     -11.018  -1.416  -0.581  0.00  0.00    -0.086 HD
ENDROOT
BRANCH  11  15
ATOM     15  C   UNL     1      -7.322  -5.367  -4.558  0.00  0.00    +0.037 A 
ATOM     16  C   UNL     1      -8.700  -5.354  -4.838  0.00  0.00    +0.013 A 
ATOM     17  C   UNL     1      -9.398  -6.513  -4.953  0.00  0.00    +0.009 A 
ATOM     18  C   UNL     1      -8.742  -7.748  -4.792  0.00  0.00    -0.018 A 
ATOM     19  C   UNL     1      -9.443  -8.960  -4.907  0.00  0.00    +0.008 A 
ATOM     20  C   UNL     1      -8.782 -10.140  -4.746  0.00  0.00    +0.001 A 
ATOM     21  C   UNL     1      -7.416 -10.165  -4.469  0.00  0.00    +0.001 A 
ATOM     22  C   UNL     1      -6.704  -9.012  -4.350  0.00  0.00    +0.008 A 
ATOM     23  C   UNL     1      -7.353  -7.774  -4.510  0.00  0.00    -0.017 A 
ATOM     24  C   UNL     1      -6.647  -6.566  -4.401  0.00  0.00    +0.021 A 
ENDBRANCH  11  15
BRANCH   1  26
ATOM     25  N   UNL     1      -6.669  -0.101  -0.707  0.00  0.00    -0.315 N 
ATOM     26  C   UNL     1      -6.525  -0.991  -1.708  0.00  0.00    +0.218 C 
ATOM     27  O   UNL     1      -5.685  -1.862  -1.630  0.00  0.00    -0.275 OA
ATOM     28  H   UNL     1      -7.341   0.596  -0.770  0.00  0.00    +0.149 HD
BRANCH  25  29
ATOM     29  C   UNL     1      -5.810  -0.185   0.477  0.00  0.00    +0.108 C 
BRANCH  29  30
ATOM     30  C   UNL     1      -6.177   0.933   1.454  0.00  0.00    +0.052 C 
BRANCH  30  33
ATOM     31  C   UNL     1      -6.683   1.684   4.566  0.00  0.00    +0.035 C 
ATOM     32  C   UNL     1      -5.318   1.756   3.880  0.00  0.00    +0.103 C 
ATOM     33  C   UNL     1      -5.293   0.847   2.672  0.00  0.00    -0.037 C 
ATOM     34  C   UNL     1      -4.314  -0.064   2.907  0.00  0.00    +0.000 A 
ATOM     35  C   UNL     1      -3.833  -1.157   2.139  0.00  0.00    +0.028 A 
ATOM     36  C   UNL     1      -2.809  -1.940   2.619  0.00  0.00    +0.052 A 
ATOM     37  C   UNL     1      -2.194  -1.672   3.915  0.00  0.00    +0.021 A 
ATOM     38  C   UNL     1      -2.610  -0.647   4.688  0.00  0.00    +0.027 A 
ATOM     39  C   UNL     1      -3.700   0.218   4.223  0.00  0.00    +0.043 A 
ATOM     40  N   UNL     1      -4.272   1.259   4.780  0.00  0.00    -0.378 N 
ATOM     41  H   UNL     1      -4.043   1.637   5.644  0.00  0.00    +0.160 HD
BRANCH  36  42
ATOM     42  C   UNL     1      -2.336  -3.038   1.831  0.00  0.00    +0.099 C 
ATOM     43  N   UNL     1      -1.961  -3.909   1.206  0.00  0.00    -0.191 NA
ENDBRANCH  36  42
ENDBRANCH  30  33
ENDBRANCH  29  30
ENDBRANCH  25  29
ENDBRANCH   1  26
TORSDOF 6
