REMARK  Name = ZINC39494869
REMARK  11 active torsions:
REMARK  status: ('A' for Active; 'I' for Inactive)
REMARK    1  A    between atoms: C_4  and  C_7
REMARK    2  A    between atoms: C_7  and  C_9
REMARK    3  A    between atoms: C_7  and  N_27
REMARK    4  A    between atoms: C_9  and  C_11
REMARK    5  A    between atoms: C_9  and  C_18
REMARK    6  A    between atoms: C_16  and  O_17
REMARK    7  A    between atoms: C_18  and  C_20
REMARK    8  A    between atoms: C_25  and  O_26
REMARK    9  A    between atoms: C_28  and  S_30
REMARK   10  A    between atoms: S_30  and  O_33
REMARK   11  A    between atoms: O_33  and  C_34
REMARK                            x       y       z     vdW  Elec       q    Type
REMARK                         _______ _______ _______ _____ _____    ______ ____
ROOT
ATOM      1  C   UNL     1       3.711  -0.707  -0.038  0.00  0.00    +0.120 C 
ENDROOT
BRANCH   1   5
ATOM      2  C   UNL     1      -0.017   1.378   0.010  0.00  0.00    +0.000 A 
ATOM      3  C   UNL     1       1.171   2.086   0.002  0.00  0.00    +0.000 A 
ATOM      4  C   UNL     1       2.377   1.411  -0.013  0.00  0.00    +0.005 A 
ATOM      5  C   UNL     1       2.396   0.029  -0.020  0.00  0.00    -0.026 A 
ATOM      6  C   UNL     1       1.208  -0.679  -0.012  0.00  0.00    +0.005 A 
ATOM      7  C   UNL     1       0.002  -0.004   0.002  0.00  0.00    +0.000 A 
ENDBRANCH   1   5
BRANCH   1   8
ATOM      8  N   UNL     1       3.630  -1.873   0.845  0.00  0.00    -0.286 N 
ATOM      9  C   UNL     1       3.871  -1.738   2.164  0.00  0.00    +0.391 C 
ATOM     10  O   UNL     1       4.155  -0.651   2.621  0.00  0.00    -0.246 OA
ATOM     11  H   UNL     1       3.403  -2.743   0.480  0.00  0.00    +0.151 HD
BRANCH   9  12
ATOM     12  S   UNL     1       3.773  -3.141   3.226  0.00  0.00    +0.203 S 
ATOM     13  O   UNL     1       3.868  -2.650   4.557  0.00  0.00    -0.127 OA
ATOM     14  O   UNL     1       2.670  -3.915   2.776  0.00  0.00    -0.127 OA
BRANCH  12  15
ATOM     15  O   UNL     1       5.021  -3.978   2.982  0.00  0.00    -0.339 OA
BRANCH  15  16
ATOM     16  C   UNL     1       6.151  -3.460   3.531  0.00  0.00    +0.157 A 
ATOM     17  C   UNL     1       6.937  -2.580   2.803  0.00  0.00    +0.048 A 
ATOM     18  C   UNL     1       8.085  -2.054   3.364  0.00  0.00    +0.004 A 
ATOM     19  C   UNL     1       8.450  -2.406   4.650  0.00  0.00    +0.000 A 
ATOM     20  C   UNL     1       7.669  -3.283   5.378  0.00  0.00    +0.004 A 
ATOM     21  C   UNL     1       6.516  -3.807   4.824  0.00  0.00    +0.048 A 
ENDBRANCH  15  16
ENDBRANCH  12  15
ENDBRANCH   9  12
ENDBRANCH   1   8
BRANCH   1  22
ATOM     22  C   UNL     1       4.019  -1.168  -1.464  0.00  0.00    +0.118 C 
BRANCH  22  23
ATOM     23  C   UNL     1       5.334  -1.903  -1.481  0.00  0.00    +0.007 A 
ATOM     24  C   UNL     1       6.490  -1.264  -1.076  0.00  0.00    +0.008 A 
ATOM     25  C   UNL     1       7.697  -1.938  -1.092  0.00  0.00    +0.001 A 
ATOM     26  C   UNL     1       7.750  -3.254  -1.514  0.00  0.00    +0.004 A 
ATOM     27  C   UNL     1       6.598  -3.898  -1.919  0.00  0.00    +0.046 A 
ATOM     28  C   UNL     1       5.385  -3.225  -1.899  0.00  0.00    +0.121 A 
BRANCH  28  29
ATOM     29  O   UNL     1       4.249  -3.858  -2.293  0.00  0.00    -0.506 OA
ATOM     30  H   UNL     1       4.058  -3.774  -3.237  0.00  0.00    +0.292 HD
ENDBRANCH  28  29
ENDBRANCH  22  23
BRANCH  22  31
ATOM     31  C   UNL     1       4.103   0.032  -2.372  0.00  0.00    +0.176 C 
ATOM     32  O   UNL     1       4.474   1.100  -1.933  0.00  0.00    -0.291 OA
BRANCH  31  33
ATOM     33  C   UNL     1       3.734  -0.092  -3.787  0.00  0.00    +0.059 A 
ATOM     34  C   UNL     1       3.299  -1.321  -4.297  0.00  0.00    +0.015 A 
ATOM     35  C   UNL     1       2.954  -1.429  -5.626  0.00  0.00    +0.001 A 
ATOM     36  C   UNL     1       3.037  -0.327  -6.463  0.00  0.00    +0.004 A 
ATOM     37  C   UNL     1       3.464   0.891  -5.975  0.00  0.00    +0.046 A 
ATOM     38  C   UNL     1       3.810   1.023  -4.638  0.00  0.00    +0.127 A 
BRANCH  38  39
ATOM     39  O   UNL     1       4.224   2.221  -4.156  0.00  0.00    -0.506 OA
ATOM     40  H   UNL     1       5.179   2.360  -4.215  0.00  0.00    +0.292 HD
ENDBRANCH  38  39
ENDBRANCH  31  33
ENDBRANCH  22  31
ENDBRANCH   1  22
TORSDOF 11
