REMARK  Name = ZINC39956942
REMARK  4 active torsions:
REMARK  status: ('A' for Active; 'I' for Inactive)
REMARK    1  A    between atoms: C_1  and  O_2
REMARK    2  A    between atoms: O_2  and  C_3
REMARK    3  A    between atoms: C_9  and  C_12
REMARK    4  A    between atoms: C_13  and  C_19
REMARK                            x       y       z     vdW  Elec       q    Type
REMARK                         _______ _______ _______ _____ _____    ______ ____
ROOT
ATOM      1  C   UNL     1      -1.915  -5.147  -0.100  0.00  0.00    +0.055 C 
ATOM      2  C   UNL     1      -2.245  -6.511   0.105  0.00  0.00    +0.055 C 
ATOM      3  C   UNL     1      -0.955  -7.229   0.166  0.00  0.00    +0.252 C 
ATOM      4  O   UNL     1      -0.819  -8.425   0.332  0.00  0.00    -0.270 OA
ATOM      5  N   UNL     1       0.042  -6.344   0.008  0.00  0.00    -0.248 N 
ATOM      6  C   UNL     1      -0.435  -5.100  -0.160  0.00  0.00    +0.252 C 
ATOM      7  O   UNL     1       0.235  -4.101  -0.330  0.00  0.00    -0.270 OA
ATOM      8  H   UNL     1       0.984  -6.573   0.011  0.00  0.00    +0.158 HD
ENDROOT
BRANCH   2   9
ATOM      9  C   UNL     1      -3.524  -7.061   0.225  0.00  0.00    -0.006 C 
ATOM     10  C   UNL     1      -4.219  -7.338   1.405  0.00  0.00    +0.004 A 
ATOM     11  C   UNL     1      -3.891  -7.170   2.765  0.00  0.00    +0.013 A 
ATOM     12  C   UNL     1      -4.780  -7.535   3.725  0.00  0.00    +0.039 A 
ATOM     13  C   UNL     1      -6.028  -8.080   3.398  0.00  0.00    +0.125 A 
ATOM     14  C   UNL     1      -6.411  -8.270   2.110  0.00  0.00    +0.064 A 
ATOM     15  C   UNL     1      -5.532  -7.911   1.053  0.00  0.00    +0.046 A 
ATOM     16  N   UNL     1      -5.662  -7.993  -0.253  0.00  0.00    -0.380 N 
ATOM     17  C   UNL     1      -4.451  -7.477  -0.897  0.00  0.00    +0.149 C 
ATOM     18  F   UNL     1      -6.875  -8.427   4.393  0.00  0.00    -0.205 F 
ATOM     19  H   UNL     1      -6.441  -8.338  -0.717  0.00  0.00    +0.160 HD
ENDBRANCH   2   9
BRANCH   1  26
ATOM     20  C   UNL     1      -3.744  -3.105  -3.740  0.00  0.00    +0.121 A 
ATOM     21  C   UNL     1      -4.604  -2.038  -3.430  0.00  0.00    +0.047 A 
ATOM     22  C   UNL     1      -4.850  -1.669  -2.153  0.00  0.00    +0.029 A 
ATOM     23  C   UNL     1      -4.202  -2.404  -1.055  0.00  0.00    +0.043 A 
ATOM     24  N   UNL     1      -4.265  -2.258   0.242  0.00  0.00    -0.380 N 
ATOM     25  C   UNL     1      -3.416  -3.261   0.891  0.00  0.00    +0.149 C 
ATOM     26  C   UNL     1      -2.799  -4.075  -0.225  0.00  0.00    -0.006 C 
ATOM     27  C   UNL     1      -3.301  -3.523  -1.409  0.00  0.00    +0.007 A 
ATOM     28  C   UNL     1      -3.110  -3.838  -2.761  0.00  0.00    +0.056 A 
ATOM     29  H   UNL     1      -4.793  -1.588   0.704  0.00  0.00    +0.160 HD
BRANCH  20  31
ATOM     30  C   UNL     1      -4.216  -2.639  -6.020  0.00  0.00    +0.277 C 
ATOM     31  O   UNL     1      -3.536  -3.427  -5.040  0.00  0.00    -0.495 OA
ENDBRANCH  20  31
ENDBRANCH   1  26
TORSDOF 3
