REMARK  Name = ZINC13499029
REMARK  11 active torsions:
REMARK  status: ('A' for Active; 'I' for Inactive)
REMARK    1  A    between atoms: C_1  and  C_2
REMARK    2  A    between atoms: C_4  and  C_36
REMARK    3  A    between atoms: C_7  and  C_14
REMARK    4  A    between atoms: C_14  and  N_75
REMARK    5  A    between atoms: C_15  and  N_75
REMARK    6  A    between atoms: C_21  and  C_23
REMARK    7  A    between atoms: C_21  and  C_33
REMARK    8  A    between atoms: C_21  and  N_75
REMARK    9  A    between atoms: N_27  and  C_28
REMARK   10  A    between atoms: C_33  and  C_34
REMARK   11  A    between atoms: C_33  and  C_35
REMARK                            x       y       z     vdW  Elec       q    Type
REMARK                         _______ _______ _______ _____ _____    ______ ____
ROOT
ATOM      1  N   UNL     1       3.012  -1.870  -0.879  0.00  0.00    +0.391 N 
ATOM      2  H   UNL     1       2.962  -1.397  -1.789  0.00  0.00    -0.080 HD
ENDROOT
BRANCH   1   3
ATOM      3  C   UNL     1       4.041  -1.207  -0.049  0.00  0.00    -0.067 C 
ATOM      4  C   UNL     1       3.977  -1.715   1.392  0.00  0.00    -0.015 C 
ATOM      5  C   UNL     1       5.046  -1.011   2.229  0.00  0.00    -0.002 C 
ATOM      6  C   UNL     1       4.798   0.498   2.209  0.00  0.00    -0.000 C 
ATOM      7  C   UNL     1       4.863   1.006   0.768  0.00  0.00    -0.002 C 
ATOM      8  C   UNL     1       3.793   0.302  -0.070  0.00  0.00    -0.015 C 
ENDBRANCH   1   3
BRANCH   1   9
ATOM      9  C   UNL     1       3.373  -3.287  -1.093  0.00  0.00    -0.036 C 
BRANCH   9  16
ATOM     10  C   UNL     1       9.936  -3.691  -5.608  0.00  0.00    +0.044 C 
ATOM     11  C   UNL     1       8.842  -3.626  -4.573  0.00  0.00    -0.048 A 
ATOM     12  C   UNL     1       9.169  -3.663  -3.224  0.00  0.00    +0.007 A 
ATOM     13  C   UNL     1       8.193  -3.606  -2.270  0.00  0.00    -0.041 A 
ATOM     14  C   UNL     1       6.852  -3.510  -2.655  0.00  0.00    +0.002 A 
ATOM     15  C   UNL     1       5.781  -3.442  -1.659  0.00  0.00    +0.017 A 
ATOM     16  C   UNL     1       4.499  -3.354  -2.092  0.00  0.00    +0.001 A 
ATOM     17  C   UNL     1       4.216  -3.320  -3.474  0.00  0.00    +0.251 A 
ATOM     18  O   UNL     1       3.057  -3.237  -3.841  0.00  0.00    -0.268 OA
ATOM     19  N   UNL     1       5.193  -3.377  -4.396  0.00  0.00    -0.322 N 
ATOM     20  H   UNL     1       4.963  -3.351  -5.338  0.00  0.00    +0.169 HD
ATOM     21  C   UNL     1       6.516  -3.472  -4.022  0.00  0.00    +0.050 A 
ATOM     22  C   UNL     1       7.527  -3.531  -4.975  0.00  0.00    +0.029 A 
ATOM     23  C   UNL     1       8.560  -3.646  -0.809  0.00  0.00    +0.044 C 
ENDBRANCH   9  16
ENDBRANCH   1   9
BRANCH   1  24
ATOM     24  C   UNL     1       1.694  -1.778  -0.217  0.00  0.00    +0.006 C 
BRANCH  24  25
ATOM     25  C   UNL     1       1.605  -2.763   0.920  0.00  0.00    +0.139 A 
ATOM     26  N   UNL     1       1.958  -4.025   0.892  0.00  0.00    -0.115 NA
ATOM     27  N   UNL     1       1.728  -4.529   2.055  0.00  0.00    -0.023 NA
ATOM     28  N   UNL     1       1.238  -3.621   2.825  0.00  0.00    -0.044 NA
ATOM     29  N   UNL     1       1.147  -2.518   2.162  0.00  0.00    -0.228 N 
BRANCH  29  30
ATOM     30  C   UNL     1       0.639  -1.239   2.665  0.00  0.00    +0.111 C 
ATOM     31  C   UNL     1       1.460  -0.791   3.892  0.00  0.00    +0.027 C 
ATOM     32  C   UNL     1       0.415  -0.137   4.830  0.00  0.00    +0.002 C 
ATOM     33  C   UNL     1      -0.827  -1.045   4.644  0.00  0.00    +0.002 C 
ATOM     34  C   UNL     1      -0.815  -1.400   3.143  0.00  0.00    +0.027 C 
ENDBRANCH  29  30
ENDBRANCH  24  25
BRANCH  24  35
ATOM     35  C   UNL     1       0.605  -2.088  -1.246  0.00  0.00    -0.024 C 
ATOM     36  C   UNL     1      -0.771  -1.896  -0.607  0.00  0.00    +0.006 C 
ATOM     37  C   UNL     1       0.749  -1.142  -2.440  0.00  0.00    +0.006 C 
ENDBRANCH  24  35
ENDBRANCH   1  24
TORSDOF 7
