REMARK  Name = ZINC06299029
REMARK  12 active torsions:
REMARK  status: ('A' for Active; 'I' for Inactive)
REMARK    1  A    between atoms: C_1  and  C_2
REMARK    2  A    between atoms: C_2  and  O_41
REMARK    3  A    between atoms: C_6  and  C_31
REMARK    4  A    between atoms: C_8  and  C_22
REMARK    5  A    between atoms: C_10  and  C_12
REMARK    6  A    between atoms: C_12  and  O_14
REMARK    7  A    between atoms: O_14  and  C_15
REMARK    8  A    between atoms: C_15  and  C_16
REMARK    9  A    between atoms: C_26  and  N_28
REMARK   10  A    between atoms: C_31  and  O_33
REMARK   11  A    between atoms: O_33  and  C_34
REMARK   12  A    between atoms: C_34  and  C_35
REMARK                            x       y       z     vdW  Elec       q    Type
REMARK                         _______ _______ _______ _____ _____    ______ ____
ROOT
ATOM      1  C   UNL     1      -1.268   2.290   3.516  0.00  0.00    +0.042 C 
ATOM      2  C   UNL     1      -0.085   1.320   3.554  0.00  0.00    +0.083 C 
ATOM      3  C   UNL     1       1.210   2.082   3.253  0.00  0.00    +0.110 C 
ATOM      4  C   UNL     1       2.344   1.085   3.165  0.00  0.00    +0.150 C 
ATOM      5  O   UNL     1       3.358   1.243   3.801  0.00  0.00    -0.296 OA
ATOM      6  C   UNL     1       2.175  -0.115   2.259  0.00  0.00    +0.172 C 
ATOM      7  C   UNL     1       0.845  -0.797   2.597  0.00  0.00    +0.056 C 
ATOM      8  C   UNL     1      -0.288   0.226   2.505  0.00  0.00    +0.138 C 
ENDROOT
BRANCH   7   9
ATOM      9  C   UNL     1       0.592  -1.917   1.621  0.00  0.00    -0.040 A 
ATOM     10  C   UNL     1       0.988  -1.787   0.302  0.00  0.00    +0.004 A 
ATOM     11  C   UNL     1       0.756  -2.814  -0.593  0.00  0.00    +0.002 A 
ATOM     12  C   UNL     1       0.129  -3.971  -0.171  0.00  0.00    +0.033 A 
ATOM     13  C   UNL     1      -0.267  -4.101   1.147  0.00  0.00    +0.126 A 
ATOM     14  C   UNL     1      -0.031  -3.075   2.044  0.00  0.00    +0.036 A 
BRANCH  13  15
ATOM     15  N   UNL     1      -0.939  -5.340   1.600  0.00  0.00    +0.056 N 
ATOM     16  O   UNL     1      -1.143  -6.237   0.816  0.00  0.00    -0.126 OA
ATOM     17  O   UNL     1      -1.285  -5.453   2.753  0.00  0.00    -0.126 OA
ENDBRANCH  13  15
ENDBRANCH   7   9
BRANCH   8  18
ATOM     18  C   UNL     1      -0.293   0.845   1.131  0.00  0.00    +0.314 C 
ATOM     19  O   UNL     1       0.641   1.520   0.768  0.00  0.00    -0.250 OA
BRANCH  18  20
ATOM     20  O   UNL     1      -1.336   0.647   0.310  0.00  0.00    -0.460 OA
BRANCH  20  21
ATOM     21  C   UNL     1      -1.275   1.264  -0.978  0.00  0.00    +0.267 C 
BRANCH  21  22
ATOM     22  C   UNL     1      -2.523   0.933  -1.754  0.00  0.00    -0.010 A 
ATOM     23  C   UNL     1      -2.564  -0.198  -2.547  0.00  0.00    +0.007 A 
ATOM     24  C   UNL     1      -3.710  -0.502  -3.259  0.00  0.00    +0.000 A 
ATOM     25  C   UNL     1      -4.814   0.325  -3.177  0.00  0.00    +0.000 A 
ATOM     26  C   UNL     1      -4.774   1.456  -2.383  0.00  0.00    +0.000 A 
ATOM     27  C   UNL     1      -3.630   1.757  -1.668  0.00  0.00    +0.007 A 
ENDBRANCH  21  22
ENDBRANCH  20  21
ENDBRANCH  18  20
ENDBRANCH   8  18
BRANCH   6  28
ATOM     28  C   UNL     1       3.313  -1.079   2.479  0.00  0.00    +0.318 C 
ATOM     29  O   UNL     1       3.086  -2.206   2.852  0.00  0.00    -0.250 OA
BRANCH  28  30
ATOM     30  O   UNL     1       4.577  -0.686   2.260  0.00  0.00    -0.459 OA
BRANCH  30  31
ATOM     31  C   UNL     1       5.606  -1.652   2.489  0.00  0.00    +0.267 C 
BRANCH  31  32
ATOM     32  C   UNL     1       6.949  -1.035   2.194  0.00  0.00    -0.010 A 
ATOM     33  C   UNL     1       7.477  -1.107   0.918  0.00  0.00    +0.007 A 
ATOM     34  C   UNL     1       8.709  -0.542   0.648  0.00  0.00    +0.000 A 
ATOM     35  C   UNL     1       9.412   0.097   1.652  0.00  0.00    +0.000 A 
ATOM     36  C   UNL     1       8.883   0.170   2.927  0.00  0.00    +0.000 A 
ATOM     37  C   UNL     1       7.650  -0.392   3.197  0.00  0.00    +0.007 A 
ENDBRANCH  31  32
ENDBRANCH  30  31
ENDBRANCH  28  30
ENDBRANCH   6  28
BRANCH   2  38
ATOM     38  O   UNL     1       0.002   0.726   4.851  0.00  0.00    -0.388 OA
ATOM     39  H   UNL     1       0.131   1.363   5.568  0.00  0.00    +0.210 HD
ENDBRANCH   2  38
TORSDOF 11
