REMARK  Name = ZINC22019083
REMARK  4 active torsions:
REMARK  status: ('A' for Active; 'I' for Inactive)
REMARK    1  A    between atoms: C_10  and  C_13
REMARK    2  A    between atoms: C_13  and  C_14
REMARK    3  A    between atoms: N_19  and  C_22
REMARK    4  A    between atoms: C_22  and  C_23
REMARK                            x       y       z     vdW  Elec       q    Type
REMARK                         _______ _______ _______ _____ _____    ______ ____
ROOT
ATOM      1  C   UNL     1      -2.502   5.587  -4.394  0.00  0.00    +0.217 C 
ATOM      2  O   UNL     1      -3.622   6.048  -4.460  0.00  0.00    -0.276 OA
ATOM      3  N   UNL     1      -2.261   4.510  -3.620  0.00  0.00    -0.299 N 
ATOM      4  C   UNL     1      -3.343   3.878  -2.849  0.00  0.00    +0.123 C 
ATOM      5  C   UNL     1      -2.883   3.735  -1.394  0.00  0.00    +0.104 C 
ATOM      6  N   UNL     1      -1.597   3.024  -1.359  0.00  0.00    -0.295 NA
ATOM      7  C   UNL     1      -0.547   3.788  -2.045  0.00  0.00    +0.104 C 
ATOM      8  C   UNL     1      -0.911   3.935  -3.526  0.00  0.00    +0.123 C 
ENDROOT
BRANCH   1   9
ATOM      9  C   UNL     1      -1.379   6.219  -5.176  0.00  0.00    +0.119 C 
BRANCH   9  19
ATOM     10  C   UNL     1      -0.338   5.133 -10.408  0.00  0.00    +0.002 A 
ATOM     11  C   UNL     1      -1.605   4.604 -10.240  0.00  0.00    +0.001 A 
ATOM     12  C   UNL     1      -2.442   5.117  -9.266  0.00  0.00    +0.016 A 
ATOM     13  C   UNL     1      -2.008   6.155  -8.459  0.00  0.00    +0.030 A 
ATOM     14  C   UNL     1      -0.723   6.680  -8.607  0.00  0.00    +0.047 A 
ATOM     15  C   UNL     1       0.101   6.166  -9.603  0.00  0.00    +0.024 A 
ATOM     16  N   UNL     1      -0.258   7.717  -7.804  0.00  0.00    -0.284 N 
ATOM     17  C   UNL     1      -0.778   8.123  -6.651  0.00  0.00    +0.231 C 
ATOM     18  O   UNL     1      -0.313   9.113  -6.125  0.00  0.00    -0.274 OA
ATOM     19  C   UNL     1      -1.917   7.415  -5.965  0.00  0.00    +0.146 C 
ATOM     20  S   UNL     1      -3.083   6.837  -7.235  0.00  0.00    -0.110 S 
ATOM     21  H   UNL     1       0.628   8.293  -8.109  0.00  0.00    +0.155 HD
ENDBRANCH   9  19
ENDBRANCH   1   9
BRANCH   6  22
ATOM     22  C   UNL     1      -1.206   2.714   0.023  0.00  0.00    +0.127 C 
BRANCH  22  23
ATOM     23  C   UNL     1      -0.022   1.781   0.012  0.00  0.00    +0.004 A 
ATOM     24  C   UNL     1       1.300   2.079   0.001  0.00  0.00    +0.012 A 
ATOM     25  C   UNL     1       2.220   1.048  -0.013  0.00  0.00    +0.008 A 
ATOM     26  C   UNL     1       1.773  -0.232  -0.016  0.00  0.00    +0.045 A 
ATOM     27  S   UNL     1       0.002  -0.004   0.002  0.00  0.00    -0.100 S 
ENDBRANCH  22  23
ENDBRANCH   6  22
TORSDOF 4
