REMARK  Name = ZINC04761684
REMARK  3 active torsions:
REMARK  status: ('A' for Active; 'I' for Inactive)
REMARK    1  A    between atoms: C_5  and  C_7
REMARK    2  A    between atoms: C_9  and  C_18
REMARK    3  A    between atoms: C_11  and  O_17
REMARK                            x       y       z     vdW  Elec       q    Type
REMARK                         _______ _______ _______ _____ _____    ______ ____
ROOT
ATOM      1  C   UNL     1       1.233  -2.186  -0.021  0.00  0.00    +0.126 C 
ATOM      2  C   UNL     1       1.012  -2.708   1.402  0.00  0.00    +0.163 C 
ATOM      3  C   UNL     1       1.153  -4.234   1.389  0.00  0.00    +0.220 C 
ATOM      4  N   UNL     1       2.457  -4.591   0.826  0.00  0.00    -0.301 N 
ATOM      5  C   UNL     1       3.065  -3.806  -0.076  0.00  0.00    +0.133 C 
ATOM      6  S   UNL     1       4.582  -4.295  -0.701  0.00  0.00    -0.019 S 
ATOM      7  N   UNL     1       2.532  -2.653  -0.508  0.00  0.00    -0.318 N 
ATOM      8  H   UNL     1       2.889  -5.411   1.110  0.00  0.00    +0.150 HD
ATOM      9  H   UNL     1       3.017  -2.119  -1.156  0.00  0.00    +0.148 HD
ENDROOT
BRANCH   1  14
ATOM     10  C   UNL     1       2.377   1.412  -0.013  0.00  0.00    +0.000 A 
ATOM     11  C   UNL     1       1.171   2.087   0.002  0.00  0.00    +0.003 A 
ATOM     12  C   UNL     1      -0.017   1.381   0.010  0.00  0.00    +0.039 A 
ATOM     13  C   UNL     1       0.002  -0.004   0.002  0.00  0.00    +0.128 A 
ATOM     14  C   UNL     1       1.211  -0.679  -0.013  0.00  0.00    +0.009 A 
ATOM     15  C   UNL     1       2.397   0.030  -0.021  0.00  0.00    +0.008 A 
ATOM     16  F   UNL     1      -1.158  -0.696   0.010  0.00  0.00    -0.205 F 
ENDBRANCH   1  14
BRANCH   3  17
ATOM     17  O   UNL     1       1.056  -4.736   2.723  0.00  0.00    -0.373 OA
ATOM     18  H   UNL     1       1.142  -5.697   2.790  0.00  0.00    +0.212 HD
ENDBRANCH   3  17
BRANCH   2  19
ATOM     19  C   UNL     1      -0.339  -2.341   1.859  0.00  0.00    +0.072 C 
ATOM     20  N   UNL     1      -1.381  -2.058   2.212  0.00  0.00    -0.196 NA
ENDBRANCH   2  19
TORSDOF 3
