REMARK  Name = ZINC63361848
REMARK  6 active torsions:
REMARK  status: ('A' for Active; 'I' for Inactive)
REMARK    1  A    between atoms: C_1  and  C_2
REMARK    2  A    between atoms: C_5  and  C_8
REMARK    3  A    between atoms: C_8  and  N_9
REMARK    4  A    between atoms: C_10  and  C_12
REMARK    5  A    between atoms: C_15  and  N_18
REMARK    6  A    between atoms: C_21  and  C_37
REMARK                            x       y       z     vdW  Elec       q    Type
REMARK                         _______ _______ _______ _____ _____    ______ ____
ROOT
ATOM      1  N   UNL     1       7.056  -7.880  -0.078  0.00  0.00    -0.192 N 
ATOM      2  C   UNL     1       7.417  -9.178  -0.000  0.00  0.00    +0.253 C 
ATOM      3  O   UNL     1       6.683 -10.135   0.116  0.00  0.00    -0.272 OA
ATOM      4  C   UNL     1       8.927  -9.191  -0.088  0.00  0.00    +0.137 C 
ATOM      5  C   UNL     1       9.525  -9.776   1.196  0.00  0.00    +0.139 C 
ATOM      6  C   UNL     1      10.959  -9.267   1.276  0.00  0.00    -0.034 C 
ATOM      7  C   UNL     1      11.735 -10.345   1.340  0.00  0.00    -0.001 A 
ATOM      8  C   UNL     1      13.192 -10.493   1.490  0.00  0.00    +0.010 A 
ATOM      9  C   UNL     1      13.665 -11.767   1.509  0.00  0.00    +0.001 A 
ATOM     10  C   UNL     1      12.846 -12.894   1.395  0.00  0.00    +0.002 A 
ATOM     11  C   UNL     1      11.497 -12.851   1.258  0.00  0.00    +0.026 A 
ATOM     12  C   UNL     1      10.881 -11.566   1.229  0.00  0.00    +0.043 A 
ATOM     13  N   UNL     1       9.615 -11.236   1.127  0.00  0.00    -0.375 N 
ATOM     14  C   UNL     1      11.323  -7.804   1.216  0.00  0.00    +0.052 C 
ATOM     15  C   UNL     1      10.639  -7.216  -0.035  0.00  0.00    +0.115 C 
ATOM     16  N   UNL     1       9.277  -7.752  -0.107  0.00  0.00    -0.268 N 
ATOM     17  C   UNL     1       8.123  -7.075  -0.172  0.00  0.00    +0.316 C 
ATOM     18  O   UNL     1       8.052  -5.869  -0.297  0.00  0.00    -0.252 OA
ATOM     19  C   UNL     1       9.421  -9.917  -1.341  0.00  0.00    +0.044 C 
ATOM     20  H   UNL     1       8.867 -11.846   1.020  0.00  0.00    +0.160 HD
ENDROOT
BRANCH   1  24
ATOM     21  C   UNL     1       3.108  -6.542  -0.051  0.00  0.00    +0.037 A 
ATOM     22  C   UNL     1       4.160  -5.622  -0.021  0.00  0.00    +0.015 A 
ATOM     23  C   UNL     1       5.463  -6.068  -0.030  0.00  0.00    +0.025 A 
ATOM     24  C   UNL     1       5.732  -7.431  -0.069  0.00  0.00    +0.045 A 
ATOM     25  C   UNL     1       4.689  -8.350  -0.099  0.00  0.00    +0.025 A 
ATOM     26  C   UNL     1       3.383  -7.911  -0.084  0.00  0.00    +0.015 A 
BRANCH  21  28
ATOM     27  N   UNL     1       1.447  -4.746  -0.008  0.00  0.00    -0.307 N 
ATOM     28  C   UNL     1       1.710  -6.067  -0.040  0.00  0.00    +0.244 C 
ATOM     29  O   UNL     1       0.796  -6.869  -0.061  0.00  0.00    -0.270 OA
ATOM     30  H   UNL     1       2.176  -4.107   0.008  0.00  0.00    +0.149 HD
BRANCH  27  31
ATOM     31  C   UNL     1       0.059  -4.276   0.002  0.00  0.00    +0.139 C 
BRANCH  31  36
ATOM     32  C   UNL     1      -0.018   1.501   0.144  0.00  0.00    +0.044 C 
ATOM     33  C   UNL     1       0.002  -0.006   0.107  0.00  0.00    -0.050 A 
ATOM     34  C   UNL     1       0.014  -0.667  -1.107  0.00  0.00    +0.003 A 
ATOM     35  C   UNL     1       0.032  -2.049  -1.141  0.00  0.00    +0.005 A 
ATOM     36  C   UNL     1       0.040  -2.769   0.039  0.00  0.00    -0.030 A 
ATOM     37  C   UNL     1       0.030  -2.108   1.253  0.00  0.00    +0.005 A 
ATOM     38  C   UNL     1       0.015  -0.726   1.287  0.00  0.00    +0.003 A 
ENDBRANCH  31  36
ENDBRANCH  27  31
ENDBRANCH  21  28
ENDBRANCH   1  24
TORSDOF 4
