REMARK  Name = ZINC18071379
REMARK  10 active torsions:
REMARK  status: ('A' for Active; 'I' for Inactive)
REMARK    1  A    between atoms: C_1  and  C_2
REMARK    2  A    between atoms: C_2  and  O_3
REMARK    3  A    between atoms: O_3  and  C_4
REMARK    4  A    between atoms: C_7  and  O_10
REMARK    5  A    between atoms: O_10  and  C_11
REMARK    6  A    between atoms: C_11  and  C_13
REMARK    7  A    between atoms: C_11  and  C_14
REMARK    8  A    between atoms: N_16  and  N_17
REMARK    9  A    between atoms: C_18  and  C_20
REMARK   10  A    between atoms: C_20  and  N_21
REMARK                            x       y       z     vdW  Elec       q    Type
REMARK                         _______ _______ _______ _____ _____    ______ ____
ROOT
ATOM      1  N   UNL     1       5.584   1.470  -1.453  0.00  0.00    -0.233 N 
ATOM      2  C   UNL     1       4.286   1.517  -1.093  0.00  0.00    +0.247 C 
ATOM      3  O   UNL     1       3.425   1.634  -1.940  0.00  0.00    -0.273 OA
ATOM      4  H   UNL     1       6.272   1.377  -0.776  0.00  0.00    +0.173 HD
ENDROOT
BRANCH   1   7
ATOM      5  C   UNL     1       7.237   1.510  -3.166  0.00  0.00    +0.270 C 
ATOM      6  O   UNL     1       8.098   1.393  -2.319  0.00  0.00    -0.270 OA
ATOM      7  N   UNL     1       5.939   1.557  -2.806  0.00  0.00    -0.231 N 
ATOM      8  H   UNL     1       5.251   1.650  -3.483  0.00  0.00    +0.173 HD
BRANCH   5   9
ATOM      9  C   UNL     1       7.620   1.603  -4.620  0.00  0.00    +0.257 C 
ATOM     10  C   UNL     1       7.085   0.380  -5.367  0.00  0.00    +0.062 C 
BRANCH   9  11
ATOM     11  O   UNL     1       9.043   1.648  -4.737  0.00  0.00    -0.480 OA
BRANCH  11  15
ATOM     12  C   UNL     1      10.592   3.432  -8.122  0.00  0.00    +0.121 A 
ATOM     13  C   UNL     1       9.222   3.251  -7.998  0.00  0.00    +0.049 A 
ATOM     14  C   UNL     1       8.704   2.655  -6.865  0.00  0.00    +0.049 A 
ATOM     15  C   UNL     1       9.553   2.235  -5.852  0.00  0.00    +0.122 A 
ATOM     16  C   UNL     1      10.922   2.420  -5.974  0.00  0.00    +0.049 A 
ATOM     17  C   UNL     1      11.441   3.013  -7.109  0.00  0.00    +0.049 A 
BRANCH  12  18
ATOM     18  O   UNL     1      11.102   4.019  -9.238  0.00  0.00    -0.492 OA
BRANCH  18  20
ATOM     19  C   UNL     1      12.905   4.847 -10.617  0.00  0.00    +0.048 C 
ATOM     20  C   UNL     1      12.521   4.172  -9.299  0.00  0.00    +0.225 C 
ENDBRANCH  18  20
ENDBRANCH  12  18
ENDBRANCH  11  15
ENDBRANCH   9  11
ENDBRANCH   5   9
ENDBRANCH   1   7
BRANCH   2  21
ATOM     21  C   UNL     1       3.903   1.424   0.361  0.00  0.00    +0.215 C 
BRANCH  21  22
ATOM     22  N   UNL     1       2.446   1.498   0.489  0.00  0.00    -0.215 N 
ATOM     23  C   UNL     1       1.627   0.426   0.467  0.00  0.00    +0.251 C 
ATOM     24  O   UNL     1       1.945  -0.737   0.343  0.00  0.00    -0.272 OA
ATOM     25  C   UNL     1       0.229   0.981   0.630  0.00  0.00    +0.138 C 
ATOM     26  C   UNL     1      -0.616   0.650  -0.594  0.00  0.00    +0.040 C 
ATOM     27  C   UNL     1      -2.066   1.060  -0.308  0.00  0.00    +0.008 C 
ATOM     28  C   UNL     1      -2.632   0.125   0.758  0.00  0.00    +0.035 C 
ATOM     29  C   UNL     1      -1.715   0.061   1.951  0.00  0.00    -0.042 A 
ATOM     30  C   UNL     1      -0.394   0.449   1.889  0.00  0.00    -0.012 A 
ATOM     31  C   UNL     1       0.403   0.354   3.022  0.00  0.00    +0.006 A 
ATOM     32  C   UNL     1      -0.117  -0.122   4.208  0.00  0.00    +0.000 A 
ATOM     33  C   UNL     1      -1.444  -0.507   4.271  0.00  0.00    +0.000 A 
ATOM     34  C   UNL     1      -2.237  -0.415   3.146  0.00  0.00    +0.004 A 
ATOM     35  N   UNL     1       0.434   2.432   0.735  0.00  0.00    -0.281 N 
ATOM     36  C   UNL     1       1.761   2.638   0.642  0.00  0.00    +0.310 C 
ATOM     37  O   UNL     1       2.280   3.736   0.692  0.00  0.00    -0.252 OA
ATOM     38  H   UNL     1      -0.252   3.108   0.845  0.00  0.00    +0.152 HD
ENDBRANCH  21  22
ENDBRANCH   2  21
TORSDOF 8
