REMARK  Name = ZINC09015898
REMARK  2 active torsions:
REMARK  status: ('A' for Active; 'I' for Inactive)
REMARK    1  A    between atoms: C_1  and  C_2
REMARK    2  A    between atoms: C_12  and  C_14
REMARK                            x       y       z     vdW  Elec       q    Type
REMARK                         _______ _______ _______ _____ _____    ______ ____
ROOT
ATOM      1  C   UNL     1      -0.018   1.503   0.010  0.00  0.00    +0.044 C 
ATOM      2  C   UNL     1       0.002  -0.004   0.002  0.00  0.00    -0.049 A 
ATOM      3  C   UNL     1       0.006  -0.698  -1.199  0.00  0.00    +0.005 A 
ATOM      4  C   UNL     1       0.024  -2.068  -1.235  0.00  0.00    +0.029 A 
ATOM      5  C   UNL     1       0.041  -2.822  -0.038  0.00  0.00    +0.080 A 
ATOM      6  C   UNL     1       0.037  -2.081   1.166  0.00  0.00    +0.041 A 
ATOM      7  C   UNL     1       0.023  -0.709   1.192  0.00  0.00    +0.020 A 
ATOM      8  S   UNL     1       0.061  -3.361   2.397  0.00  0.00    -0.052 S 
ATOM      9  C   UNL     1       0.074  -4.752   1.275  0.00  0.00    +0.166 A 
ATOM     10  N   UNL     1       0.060  -4.165   0.101  0.00  0.00    -0.225 NA
ATOM     11  N   UNL     1       0.095  -6.104   1.569  0.00  0.00    -0.258 N 
ATOM     12  C   UNL     1       0.103  -7.011   0.572  0.00  0.00    +0.285 C 
ATOM     13  O   UNL     1       0.091  -6.640  -0.588  0.00  0.00    -0.266 OA
ATOM     14  H   UNL     1       0.105  -6.400   2.493  0.00  0.00    +0.157 HD
ENDROOT
BRANCH  12  15
ATOM     15  C   UNL     1       0.125  -8.442   0.883  0.00  0.00    +0.191 A 
ATOM     16  C   UNL     1       0.140  -9.461  -0.027  0.00  0.00    +0.056 A 
ATOM     17  C   UNL     1       0.159 -10.657   0.706  0.00  0.00    +0.058 A 
ATOM     18  C   UNL     1       0.155 -10.320   2.017  0.00  0.00    +0.171 A 
ATOM     19  O   UNL     1       0.140  -8.985   2.118  0.00  0.00    -0.444 OA
ATOM     20 BR   UNL     1       0.174 -11.535   3.466  0.00  0.00    -0.008 Br
ENDBRANCH  12  15
TORSDOF 1
