REMARK  Name = ZINC28290760
REMARK  10 active torsions:
REMARK  status: ('A' for Active; 'I' for Inactive)
REMARK    1  A    between atoms: C_1  and  C_2
REMARK    2  A    between atoms: C_5  and  C_8
REMARK    3  A    between atoms: C_8  and  C_10
REMARK    4  A    between atoms: C_8  and  N_26
REMARK    5  A    between atoms: C_10  and  N_11
REMARK    6  A    between atoms: C_12  and  C_14
REMARK    7  A    between atoms: C_15  and  C_25
REMARK    8  A    between atoms: C_19  and  C_23
REMARK    9  A    between atoms: N_26  and  C_27
REMARK   10  A    between atoms: N_26  and  C_28
REMARK                            x       y       z     vdW  Elec       q    Type
REMARK                         _______ _______ _______ _____ _____    ______ ____
ROOT
ATOM      1  N   UNL     1      -2.709   4.172   0.419  0.00  0.00    -0.310 N 
ATOM      2  C   UNL     1      -1.424   3.956   0.762  0.00  0.00    +0.280 C 
ATOM      3  O   UNL     1      -0.779   4.841   1.293  0.00  0.00    -0.267 OA
ATOM      4  H   UNL     1      -3.292   3.372  -0.061  0.00  0.00    +0.149 HD
ENDROOT
BRANCH   2   5
ATOM      5  C   UNL     1      -0.801   2.651   0.497  0.00  0.00    +0.193 A 
ATOM      6  C   UNL     1       0.481   2.321   0.798  0.00  0.00    +0.008 A 
ATOM      7  C   UNL     1       0.657   0.938   0.358  0.00  0.00    +0.025 A 
ATOM      8  C   UNL     1       1.724   0.036   0.384  0.00  0.00    +0.032 A 
ATOM      9  C   UNL     1       1.560  -1.223  -0.124  0.00  0.00    +0.045 A 
ATOM     10  C   UNL     1       0.340  -1.610  -0.664  0.00  0.00    -0.029 A 
ATOM     11  C   UNL     1      -0.724  -0.735  -0.698  0.00  0.00    +0.051 A 
ATOM     12  C   UNL     1      -0.581   0.550  -0.188  0.00  0.00    +0.136 A 
ATOM     13  O   UNL     1      -1.416   1.602  -0.089  0.00  0.00    -0.450 OA
ATOM     14  C   UNL     1       0.179  -3.002  -1.218  0.00  0.00    +0.045 C 
ATOM     15 CL   UNL     1       2.885  -2.345  -0.092  0.00  0.00    -0.083 Cl
ATOM     16  C   UNL     1       1.513   3.202   1.454  0.00  0.00    +0.048 C 
ENDBRANCH   2   5
BRANCH   1  17
ATOM     17  C   UNL     1      -3.329   5.472   0.684  0.00  0.00    +0.094 C 
BRANCH  17  18
ATOM     18  C   UNL     1      -4.781   5.453   0.201  0.00  0.00    -0.021 C 
BRANCH  18  23
ATOM     19  C   UNL     1      -7.086  10.716   0.812  0.00  0.00    +0.044 C 
ATOM     20  C   UNL     1      -6.485   9.344   0.653  0.00  0.00    -0.050 A 
ATOM     21  C   UNL     1      -5.251   9.195   0.047  0.00  0.00    +0.003 A 
ATOM     22  C   UNL     1      -4.700   7.936  -0.099  0.00  0.00    +0.002 A 
ATOM     23  C   UNL     1      -5.382   6.825   0.360  0.00  0.00    -0.059 A 
ATOM     24  C   UNL     1      -6.618   6.973   0.961  0.00  0.00    +0.002 A 
ATOM     25  C   UNL     1      -7.167   8.233   1.112  0.00  0.00    +0.003 A 
ENDBRANCH  18  23
BRANCH  18  26
ATOM     26  N   UNL     1      -4.821   5.062  -1.215  0.00  0.00    +0.382 N 
ATOM     27  C   UNL     1      -6.204   4.854  -1.665  0.00  0.00    -0.096 C 
ATOM     28  C   UNL     1      -4.138   6.056  -2.054  0.00  0.00    -0.096 C 
ATOM     29  H   UNL     1      -4.285   4.107  -1.317  0.00  0.00    -0.082 HD
ENDBRANCH  18  26
ENDBRANCH  17  18
ENDBRANCH   1  17
TORSDOF 5
