REMARK  Name = ZINC44813997
REMARK  7 active torsions:
REMARK  status: ('A' for Active; 'I' for Inactive)
REMARK    1  A    between atoms: C_3  and  C_8
REMARK    2  A    between atoms: C_10  and  C_13
REMARK    3  A    between atoms: C_13  and  N_14
REMARK    4  A    between atoms: C_18  and  C_21
REMARK    5  A    between atoms: N_23  and  C_24
REMARK    6  A    between atoms: C_24  and  C_25
REMARK    7  A    between atoms: C_25  and  C_26
REMARK                            x       y       z     vdW  Elec       q    Type
REMARK                         _______ _______ _______ _____ _____    ______ ____
ROOT
ATOM      1  N   UNL     1       7.752   2.308  -1.456  0.00  0.00    +0.386 N 
ATOM      2  C   UNL     1       7.179   1.129  -2.117  0.00  0.00    -0.078 C 
ATOM      3  C   UNL     1       7.599   1.110  -3.588  0.00  0.00    -0.018 C 
ATOM      4  C   UNL     1       9.126   1.056  -3.678  0.00  0.00    +0.009 C 
ATOM      5  C   UNL     1       9.715   2.250  -2.921  0.00  0.00    +0.058 C 
ATOM      6  C   UNL     1       9.217   2.226  -1.474  0.00  0.00    -0.065 C 
ATOM      7  H   UNL     1       7.456   3.140  -1.942  0.00  0.00    -0.081 HD
ENDROOT
BRANCH   5   8
ATOM      8  C   UNL     1      11.220   2.165  -2.938  0.00  0.00    +0.214 C 
ATOM      9  O   UNL     1      11.835   2.095  -1.896  0.00  0.00    -0.276 OA
ATOM     10  N   UNL     1      11.881   2.165  -4.113  0.00  0.00    -0.315 N 
ATOM     11  H   UNL     1      11.389   2.221  -4.947  0.00  0.00    +0.149 HD
BRANCH  10  12
ATOM     12  C   UNL     1      13.344   2.082  -4.129  0.00  0.00    +0.108 C 
BRANCH  12  13
ATOM     13  C   UNL     1      13.839   2.101  -5.577  0.00  0.00    +0.049 C 
BRANCH  13  14
ATOM     14  C   UNL     1      15.344   2.016  -5.594  0.00  0.00    -0.072 C 
ATOM     15  C   UNL     1      15.884   0.849  -5.743  0.00  0.00    -0.028 C 
ATOM     16  C   UNL     1      17.364   0.605  -5.769  0.00  0.00    +0.027 C 
ATOM     17  C   UNL     1      18.110   1.916  -6.024  0.00  0.00    +0.004 C 
ATOM     18  C   UNL     1      17.571   2.977  -5.056  0.00  0.00    +0.005 C 
ATOM     19  C   UNL     1      16.122   3.290  -5.444  0.00  0.00    +0.030 C 
ENDBRANCH  13  14
ENDBRANCH  12  13
ENDBRANCH  10  12
ENDBRANCH   5   8
BRANCH   1  20
ATOM     20  C   UNL     1       7.284   2.363  -0.064  0.00  0.00    +0.022 C 
BRANCH  20  23
ATOM     21  C   UNL     1       3.660   2.166  -0.022  0.00  0.00    +0.202 A 
ATOM     22  N   UNL     1       4.892   1.627  -0.042  0.00  0.00    -0.193 NA
ATOM     23  C   UNL     1       5.791   2.570  -0.044  0.00  0.00    +0.211 A 
ATOM     24  O   UNL     1       5.165   3.753  -0.026  0.00  0.00    -0.340 OA
ATOM     25  N   UNL     1       3.774   3.471  -0.017  0.00  0.00    -0.056 NA
BRANCH  21  28
ATOM     26  C   UNL     1      -0.017   1.379   0.010  0.00  0.00    +0.002 A 
ATOM     27  C   UNL     1       1.168   2.088   0.002  0.00  0.00    +0.012 A 
ATOM     28  C   UNL     1       2.384   1.408  -0.013  0.00  0.00    +0.023 A 
ATOM     29  C   UNL     1       2.398   0.015  -0.021  0.00  0.00    +0.027 A 
ATOM     30  C   UNL     1       1.207  -0.685  -0.013  0.00  0.00    +0.019 A 
ATOM     31  C   UNL     1       0.002  -0.004   0.002  0.00  0.00    +0.015 A 
ATOM     32 BR   UNL     1       1.224  -2.576  -0.024  0.00  0.00    -0.050 Br
ENDBRANCH  21  28
ENDBRANCH  20  23
ENDBRANCH   1  20
TORSDOF 7
