REMARK  Name = ZINC40777770
REMARK  6 active torsions:
REMARK  status: ('A' for Active; 'I' for Inactive)
REMARK    1  A    between atoms: C_4  and  N_7
REMARK    2  A    between atoms: N_7  and  C_8
REMARK    3  A    between atoms: N_7  and  N_14
REMARK    4  A    between atoms: C_16  and  N_29
REMARK    5  A    between atoms: C_17  and  N_21
REMARK    6  A    between atoms: N_21  and  C_22
REMARK                            x       y       z     vdW  Elec       q    Type
REMARK                         _______ _______ _______ _____ _____    ______ ____
ROOT
ATOM      1  N   UNL     1       5.214  -0.376  -0.729  0.00  0.00    -0.242 N 
ATOM      2  C   UNL     1       6.244  -0.032   0.138  0.00  0.00    +0.161 A 
ATOM      3  C   UNL     1       7.168   0.954  -0.215  0.00  0.00    +0.105 A 
ATOM      4  C   UNL     1       8.183   1.262   0.693  0.00  0.00    +0.126 A 
ATOM      5  N   UNL     1       8.232   0.608   1.851  0.00  0.00    -0.333 N 
ATOM      6  C   UNL     1       7.340  -0.317   2.145  0.00  0.00    +0.200 A 
ATOM      7  N   UNL     1       6.363  -0.633   1.319  0.00  0.00    -0.219 NA
ATOM      8  H   UNL     1       5.135   0.067  -1.588  0.00  0.00    +0.172 HD
ATOM      9  H   UNL     1       8.933   0.815   2.488  0.00  0.00    +0.168 HD
ENDROOT
BRANCH   3  10
ATOM     10  N   UNL     1       7.078   1.618  -1.449  0.00  0.00    -0.353 N 
ATOM     11  H   UNL     1       6.368   1.394  -2.070  0.00  0.00    +0.143 HD
ATOM     12  H   UNL     1       7.727   2.301  -1.680  0.00  0.00    +0.143 HD
ENDBRANCH   3  10
BRANCH   4  13
ATOM     13  N   UNL     1       9.129   2.235   0.391  0.00  0.00    -0.299 N 
ATOM     14  H   UNL     1       9.034   2.771  -0.412  0.00  0.00    +0.154 HD
BRANCH  13  15
ATOM     15  C   UNL     1      10.216   2.442   1.245  0.00  0.00    +0.032 A 
ATOM     16  C   UNL     1      10.864   1.357   1.822  0.00  0.00    +0.024 A 
ATOM     17  C   UNL     1      11.937   1.565   2.666  0.00  0.00    +0.016 A 
ATOM     18  C   UNL     1      12.367   2.851   2.937  0.00  0.00    +0.013 A 
ATOM     19  C   UNL     1      11.724   3.934   2.363  0.00  0.00    +0.016 A 
ATOM     20  C   UNL     1      10.654   3.732   1.514  0.00  0.00    +0.024 A 
ATOM     21  I   UNL     1      13.996   3.161   4.217  0.00  0.00    -0.044 I 
ENDBRANCH  13  15
ENDBRANCH   4  13
BRANCH   1  22
ATOM     22  N   UNL     1       4.290  -1.363  -0.361  0.00  0.00    -0.221 N 
BRANCH  22  26
ATOM     23  C   UNL     1       0.445  -0.279   0.814  0.00  0.00    +0.000 A 
ATOM     24  C   UNL     1       1.541   0.337   1.389  0.00  0.00    +0.002 A 
ATOM     25  C   UNL     1       2.818  -0.020   1.002  0.00  0.00    +0.025 A 
ATOM     26  C   UNL     1       3.000  -1.000   0.034  0.00  0.00    +0.053 A 
ATOM     27  C   UNL     1       1.896  -1.617  -0.542  0.00  0.00    +0.025 A 
ATOM     28  C   UNL     1       0.622  -1.255  -0.150  0.00  0.00    +0.002 A 
ENDBRANCH  22  26
BRANCH  22  29
ATOM     29  C   UNL     1       4.658  -2.710  -0.390  0.00  0.00    +0.053 A 
ATOM     30  C   UNL     1       5.876  -3.087  -0.943  0.00  0.00    +0.025 A 
ATOM     31  C   UNL     1       6.237  -4.420  -0.969  0.00  0.00    +0.002 A 
ATOM     32  C   UNL     1       5.388  -5.379  -0.446  0.00  0.00    +0.000 A 
ATOM     33  C   UNL     1       4.176  -5.006   0.105  0.00  0.00    +0.002 A 
ATOM     34  C   UNL     1       3.811  -3.675   0.140  0.00  0.00    +0.025 A 
ENDBRANCH  22  29
ENDBRANCH   1  22
TORSDOF 6
