REMARK  Name = ZINC26771934
REMARK  10 active torsions:
REMARK  status: ('A' for Active; 'I' for Inactive)
REMARK    1  A    between atoms: C_1  and  O_2
REMARK    2  A    between atoms: O_2  and  C_3
REMARK    3  A    between atoms: C_5  and  C_13
REMARK    4  A    between atoms: C_7  and  O_11
REMARK    5  A    between atoms: C_8  and  O_9
REMARK    6  A    between atoms: O_9  and  C_10
REMARK    7  A    between atoms: O_11  and  C_12
REMARK    8  A    between atoms: C_14  and  C_15
REMARK    9  A    between atoms: C_20  and  O_38
REMARK   10  A    between atoms: C_27  and  C_29
REMARK                            x       y       z     vdW  Elec       q    Type
REMARK                         _______ _______ _______ _____ _____    ______ ____
ROOT
ATOM      1  C   UNL     1       1.218  -0.444  -1.488  0.00  0.00    +0.240 C 
ATOM      2  O   UNL     1       0.330   0.388  -1.526  0.00  0.00    -0.271 OA
ATOM      3  N   UNL     1       2.355  -0.186  -0.811  0.00  0.00    -0.290 N 
ATOM      4  C   UNL     1       3.494  -1.111  -0.879  0.00  0.00    +0.111 C 
ATOM      5  C   UNL     1       3.905  -1.492   0.546  0.00  0.00    +0.054 C 
ATOM      6  C   UNL     1       4.180  -0.220   1.353  0.00  0.00    +0.072 C 
ATOM      7  C   UNL     1       4.609  -0.605   2.771  0.00  0.00    +0.035 C 
ATOM      8  C   UNL     1       3.497  -1.421   3.434  0.00  0.00    +0.003 C 
ATOM      9  C   UNL     1       2.218  -0.584   3.499  0.00  0.00    +0.001 C 
ATOM     10  C   UNL     1       1.792  -0.191   2.083  0.00  0.00    +0.008 C 
ATOM     11  C   UNL     1       2.905   0.625   1.424  0.00  0.00    +0.046 C 
ATOM     12  C   UNL     1       2.479   1.026   0.009  0.00  0.00    +0.112 C 
ENDROOT
BRANCH  12  13
ATOM     13  C   UNL     1       1.151   1.737   0.065  0.00  0.00    -0.023 A 
ATOM     14  C   UNL     1       0.025   1.061   0.498  0.00  0.00    +0.009 A 
ATOM     15  C   UNL     1      -1.196   1.707   0.546  0.00  0.00    +0.050 A 
ATOM     16  C   UNL     1      -1.292   3.037   0.170  0.00  0.00    +0.166 A 
ATOM     17  C   UNL     1      -0.158   3.717  -0.266  0.00  0.00    +0.167 A 
ATOM     18  C   UNL     1       1.062   3.062  -0.317  0.00  0.00    +0.055 A 
ATOM     19  O   UNL     1      -0.511   4.998  -0.581  0.00  0.00    -0.453 OA
ATOM     20  C   UNL     1      -1.944   4.978  -0.722  0.00  0.00    +0.466 C 
ATOM     21  O   UNL     1      -2.356   3.891   0.128  0.00  0.00    -0.453 OA
ENDBRANCH  12  13
BRANCH   1  23
ATOM     22  C   UNL     1      -0.036  -1.940  -2.946  0.00  0.00    +0.013 C 
ATOM     23  C   UNL     1       1.052  -1.724  -2.177  0.00  0.00    +0.068 C 
BRANCH  22  26
ATOM     24  C   UNL     1      -1.485  -4.661  -5.085  0.00  0.00    +0.166 A 
ATOM     25  C   UNL     1      -1.331  -3.451  -4.436  0.00  0.00    +0.057 A 
ATOM     26  C   UNL     1      -0.203  -3.225  -3.638  0.00  0.00    -0.018 A 
ATOM     27  C   UNL     1       0.767  -4.225  -3.506  0.00  0.00    +0.057 A 
ATOM     28  C   UNL     1       0.604  -5.434  -4.154  0.00  0.00    +0.166 A 
ATOM     29  C   UNL     1      -0.519  -5.655  -4.947  0.00  0.00    +0.204 A 
BRANCH  24  31
ATOM     30  C   UNL     1      -3.530  -3.819  -5.959  0.00  0.00    +0.277 C 
ATOM     31  O   UNL     1      -2.580  -4.882  -5.861  0.00  0.00    -0.491 OA
ENDBRANCH  24  31
BRANCH  29  32
ATOM     32  O   UNL     1      -0.674  -6.845  -5.587  0.00  0.00    -0.488 OA
ATOM     33  C   UNL     1      -0.126  -6.949  -6.903  0.00  0.00    +0.277 C 
ENDBRANCH  29  32
BRANCH  28  34
ATOM     34  O   UNL     1       1.545  -6.408  -4.022  0.00  0.00    -0.491 OA
ATOM     35  C   UNL     1       2.672  -6.113  -3.195  0.00  0.00    +0.277 C 
ENDBRANCH  28  34
ENDBRANCH  22  26
ENDBRANCH   1  23
BRANCH   6  36
ATOM     36  O   UNL     1       5.219   0.534   0.726  0.00  0.00    -0.388 OA
ATOM     37  H   UNL     1       5.552   1.485   1.169  0.00  0.00    +0.210 HD
ENDBRANCH   6  36
TORSDOF 7
