REMARK  Name = ZINC01373902
REMARK  11 active torsions:
REMARK  status: ('A' for Active; 'I' for Inactive)
REMARK    1  A    between atoms: C_1  and  C_2
REMARK    2  A    between atoms: C_5  and  C_8
REMARK    3  A    between atoms: C_8  and  N_9
REMARK    4  A    between atoms: N_9  and  C_10
REMARK    5  A    between atoms: N_9  and  C_27
REMARK    6  A    between atoms: C_10  and  C_11
REMARK    7  A    between atoms: C_27  and  C_28
REMARK    8  A    between atoms: N_32  and  C_33
REMARK    9  A    between atoms: C_33  and  C_34
REMARK   10  A    between atoms: C_37  and  O_40
REMARK   11  A    between atoms: O_40  and  C_41
REMARK                            x       y       z     vdW  Elec       q    Type
REMARK                         _______ _______ _______ _____ _____    ______ ____
ROOT
ATOM      1  N   UNL     1       1.495  -5.003   0.057  0.00  0.00    -0.287 NA
ENDROOT
BRANCH   1   2
ATOM      2  C   UNL     1       0.148  -4.845  -0.508  0.00  0.00    +0.120 C 
BRANCH   2   7
ATOM      3  C   UNL     1      -0.302  -7.990  -5.335  0.00  0.00    +0.044 C 
ATOM      4  C   UNL     1      -0.185  -7.170  -4.076  0.00  0.00    -0.050 A 
ATOM      5  C   UNL     1      -0.543  -7.717  -2.858  0.00  0.00    +0.003 A 
ATOM      6  C   UNL     1      -0.435  -6.965  -1.704  0.00  0.00    +0.005 A 
ATOM      7  C   UNL     1       0.032  -5.665  -1.767  0.00  0.00    -0.033 A 
ATOM      8  C   UNL     1       0.391  -5.118  -2.984  0.00  0.00    +0.005 A 
ATOM      9  C   UNL     1       0.287  -5.872  -4.138  0.00  0.00    +0.003 A 
ENDBRANCH   2   7
ENDBRANCH   1   2
BRANCH   1  10
ATOM     10  C   UNL     1       1.712  -6.379   0.524  0.00  0.00    +0.125 C 
BRANCH  10  11
ATOM     11  C   UNL     1       1.034  -6.570   1.856  0.00  0.00    +0.031 A 
ATOM     12  C   UNL     1      -0.155  -7.222   1.922  0.00  0.00    +0.020 A 
ATOM     13  C   UNL     1      -0.788  -7.391   3.230  0.00  0.00    +0.003 A 
ATOM     14  C   UNL     1      -2.014  -8.054   3.358  0.00  0.00    +0.059 A 
ATOM     15  C   UNL     1      -2.586  -8.200   4.605  0.00  0.00    +0.163 A 
ATOM     16  C   UNL     1      -1.945  -7.690   5.738  0.00  0.00    +0.164 A 
ATOM     17  C   UNL     1      -0.733  -7.032   5.619  0.00  0.00    +0.075 A 
ATOM     18  C   UNL     1      -0.144  -6.876   4.372  0.00  0.00    +0.053 A 
ATOM     19  N   UNL     1       1.064  -6.223   4.235  0.00  0.00    -0.322 N 
ATOM     20  H   UNL     1       1.507  -5.867   5.022  0.00  0.00    +0.169 HD
ATOM     21  C   UNL     1       1.639  -6.077   3.029  0.00  0.00    +0.254 A 
ATOM     22  O   UNL     1       2.710  -5.498   2.947  0.00  0.00    -0.268 OA
ATOM     23  O   UNL     1      -2.499  -7.838   6.972  0.00  0.00    -0.485 OA
ATOM     24  C   UNL     1      -3.890  -8.171   7.018  0.00  0.00    +0.270 C 
ATOM     25  C   UNL     1      -4.147  -9.306   6.018  0.00  0.00    +0.270 C 
ATOM     26  O   UNL     1      -3.782  -8.844   4.713  0.00  0.00    -0.485 OA
ENDBRANCH  10  11
ENDBRANCH   1  10
BRANCH   1  27
ATOM     27  C   UNL     1       2.523  -4.609  -0.916  0.00  0.00    +0.163 C 
BRANCH  27  28
ATOM     28  C   UNL     1       2.615  -3.106  -0.968  0.00  0.00    +0.166 A 
ATOM     29  N   UNL     1       1.869  -2.301  -1.685  0.00  0.00    -0.112 NA
ATOM     30  N   UNL     1       2.255  -1.093  -1.457  0.00  0.00    -0.023 NA
ATOM     31  N   UNL     1       3.228  -1.107  -0.614  0.00  0.00    -0.044 NA
ATOM     32  N   UNL     1       3.476  -2.329  -0.284  0.00  0.00    -0.224 N 
BRANCH  32  33
ATOM     33  C   UNL     1       4.503  -2.786   0.654  0.00  0.00    +0.182 C 
BRANCH  33  34
ATOM     34  C   UNL     1       5.789  -3.037  -0.091  0.00  0.00    -0.026 A 
ATOM     35  C   UNL     1       6.044  -4.286  -0.627  0.00  0.00    +0.009 A 
ATOM     36  C   UNL     1       7.222  -4.518  -1.310  0.00  0.00    +0.046 A 
ATOM     37  C   UNL     1       8.149  -3.497  -1.458  0.00  0.00    +0.120 A 
ATOM     38  C   UNL     1       7.891  -2.245  -0.920  0.00  0.00    +0.046 A 
ATOM     39  C   UNL     1       6.709  -2.016  -0.242  0.00  0.00    +0.009 A 
BRANCH  37  40
ATOM     40  O   UNL     1       9.309  -3.724  -2.130  0.00  0.00    -0.495 OA
ATOM     41  C   UNL     1      10.217  -2.627  -2.244  0.00  0.00    +0.277 C 
ENDBRANCH  37  40
ENDBRANCH  33  34
ENDBRANCH  32  33
ENDBRANCH  27  28
ENDBRANCH   1  27
TORSDOF 9
