REMARK  Name = ZINC33097001
REMARK  4 active torsions:
REMARK  status: ('A' for Active; 'I' for Inactive)
REMARK    1  A    between atoms: C_1  and  C_2
REMARK    2  A    between atoms: C_6  and  C_7
REMARK    3  A    between atoms: N_8  and  N_9
REMARK    4  A    between atoms: C_10  and  C_12
REMARK                            x       y       z     vdW  Elec       q    Type
REMARK                         _______ _______ _______ _____ _____    ______ ____
ROOT
ATOM      1  C   UNL     1      -4.091   2.795   0.359  0.00  0.00    +0.152 A 
ATOM      2  C   UNL     1      -5.322   3.418   0.570  0.00  0.00    +0.010 A 
ATOM      3  C   UNL     1      -5.071   4.770   0.503  0.00  0.00    +0.070 A 
ATOM      4  N   UNL     1      -3.757   4.916   0.248  0.00  0.00    -0.276 N 
ATOM      5  H   UNL     1      -3.327   5.922   0.134  0.00  0.00    +0.189 HD
ATOM      6  N   UNL     1      -3.196   3.755   0.177  0.00  0.00    -0.168 NA
ATOM      7  C   UNL     1      -6.162   5.743   0.706  0.00  0.00    +0.003 A 
ATOM      8  C   UNL     1      -6.034   7.077   0.343  0.00  0.00    +0.010 A 
ATOM      9  C   UNL     1      -7.115   7.927   0.478  0.00  0.00    +0.001 A 
ATOM     10  C   UNL     1      -8.314   7.445   0.973  0.00  0.00    +0.000 A 
ATOM     11  C   UNL     1      -8.438   6.122   1.351  0.00  0.00    +0.004 A 
ATOM     12  C   UNL     1      -7.364   5.260   1.236  0.00  0.00    -0.038 A 
ATOM     13  C   UNL     1      -7.496   3.830   1.683  0.00  0.00    +0.040 C 
ATOM     14  C   UNL     1      -6.696   2.865   0.810  0.00  0.00    +0.044 C 
ENDROOT
BRANCH   1  16
ATOM     15  N   UNL     1      -2.586   0.879   0.131  0.00  0.00    -0.202 N 
ATOM     16  C   UNL     1      -3.833   1.341   0.348  0.00  0.00    +0.284 C 
ATOM     17  O   UNL     1      -4.746   0.560   0.536  0.00  0.00    -0.267 OA
ATOM     18  H   UNL     1      -1.759   1.586  -0.038  0.00  0.00    +0.178 HD
BRANCH  15  20
ATOM     19  C   UNL     1      -1.162  -0.949  -0.197  0.00  0.00    +0.145 C 
ATOM     20  N   UNL     1      -2.341  -0.500   0.120  0.00  0.00    -0.187 NA
BRANCH  19  26
ATOM     21  C   UNL     1       1.788  -1.639  -0.776  0.00  0.00    +0.045 C 
ATOM     22  C   UNL     1       1.186  -0.277  -1.010  0.00  0.00    -0.035 A 
ATOM     23  C   UNL     1       1.948   0.754  -1.507  0.00  0.00    +0.011 A 
ATOM     24  C   UNL     1       1.374   1.970  -1.705  0.00  0.00    +0.046 A 
ATOM     25  S   UNL     1      -0.309   1.686  -1.180  0.00  0.00    -0.095 S 
ATOM     26  C   UNL     1      -0.147  -0.034  -0.728  0.00  0.00    +0.035 A 
ENDBRANCH  19  26
ENDBRANCH  15  20
ENDBRANCH   1  16
TORSDOF 3
