REMARK  Name = ZINC24272286
REMARK  11 active torsions:
REMARK  status: ('A' for Active; 'I' for Inactive)
REMARK    1  A    between atoms: C_1  and  C_2
REMARK    2  A    between atoms: C_4  and  C_36
REMARK    3  A    between atoms: C_6  and  O_8
REMARK    4  A    between atoms: O_8  and  C_9
REMARK    5  A    between atoms: C_9  and  C_10
REMARK    6  A    between atoms: C_13  and  S_16
REMARK    7  A    between atoms: N_14  and  N_15
REMARK    8  A    between atoms: S_16  and  C_17
REMARK    9  A    between atoms: C_17  and  C_19
REMARK   10  A    between atoms: C_17  and  C_20
REMARK   11  A    between atoms: N_25  and  C_26
REMARK                            x       y       z     vdW  Elec       q    Type
REMARK                         _______ _______ _______ _____ _____    ______ ____
ROOT
ATOM      1  C   UNL     1      -0.729   1.579   1.267  0.00  0.00    +0.137 C 
ATOM      2  C   UNL     1      -0.013   1.086   0.008  0.00  0.00    +0.029 C 
ENDROOT
BRANCH   1   3
ATOM      3  C   UNL     1       0.000   1.080   2.488  0.00  0.00    +0.234 C 
ATOM      4  O   UNL     1      -0.360   0.059   3.034  0.00  0.00    -0.274 OA
ATOM      5  N   UNL     1       1.052   1.768   2.973  0.00  0.00    -0.239 N 
ATOM      6  C   UNL     1       1.704   1.322   4.065  0.00  0.00    +0.306 C 
ATOM      7  O   UNL     1       1.343   0.299   4.612  0.00  0.00    -0.252 OA
ATOM      8  N   UNL     1       2.756   2.010   4.550  0.00  0.00    -0.294 N 
ATOM      9  H   UNL     1       1.379   2.695   2.478  0.00  0.00    +0.159 HD
ATOM     10  H   UNL     1       3.083   2.937   4.055  0.00  0.00    +0.151 HD
BRANCH   8  11
ATOM     11  C   UNL     1       3.465   1.525   5.737  0.00  0.00    +0.037 C 
ATOM     12  C   UNL     1       2.494   1.454   6.917  0.00  0.00    +0.029 C 
ATOM     13  C   UNL     1       3.234   0.947   8.156  0.00  0.00    -0.008 C 
ATOM     14  C   UNL     1       4.378   1.905   8.495  0.00  0.00    +0.007 C 
ATOM     15  C   UNL     1       5.349   1.976   7.314  0.00  0.00    -0.008 C 
ATOM     16  C   UNL     1       4.609   2.483   6.075  0.00  0.00    +0.029 C 
ATOM     17  C   UNL     1       5.916   0.583   7.036  0.00  0.00    +0.007 C 
ATOM     18  C   UNL     1       4.772  -0.375   6.698  0.00  0.00    -0.008 C 
ATOM     19  C   UNL     1       3.801  -0.446   7.878  0.00  0.00    +0.007 C 
ATOM     20  C   UNL     1       4.032   0.132   5.458  0.00  0.00    +0.029 C 
ENDBRANCH   8  11
ENDBRANCH   1   3
BRANCH   1  21
ATOM     21  S   UNL     1      -2.427   0.953   1.280  0.00  0.00    -0.072 S 
BRANCH  21  25
ATOM     22  C   UNL     1      -4.382   2.513  -1.714  0.00  0.00    +0.189 A 
ATOM     23  N   UNL     1      -3.198   3.041  -1.845  0.00  0.00    -0.128 NA
ATOM     24  N   UNL     1      -2.420   2.617  -0.913  0.00  0.00    -0.121 NA
ATOM     25  C   UNL     1      -3.072   1.788  -0.131  0.00  0.00    +0.209 A 
ATOM     26  N   UNL     1      -4.343   1.691  -0.622  0.00  0.00    -0.225 N 
BRANCH  26  27
ATOM     27  N   UNL     1      -5.364   0.934  -0.122  0.00  0.00    -0.295 N 
ATOM     28  H   UNL     1      -5.201   0.311   0.769  0.00  0.00    +0.163 HD
ATOM     29  H   UNL     1      -6.348   0.946  -0.613  0.00  0.00    +0.163 HD
ENDBRANCH  26  27
BRANCH  22  30
ATOM     30  C   UNL     1      -5.572   2.757  -2.606  0.00  0.00    +0.306 C 
BRANCH  30  31
ATOM     31  O   UNL     1      -5.574   1.803  -3.670  0.00  0.00    -0.484 OA
BRANCH  31  37
ATOM     32  C   UNL     1      -9.649   4.009  -5.201  0.00  0.00    +0.044 C 
ATOM     33  C   UNL     1      -8.592   2.946  -5.349  0.00  0.00    -0.047 A 
ATOM     34  C   UNL     1      -8.653   2.053  -6.403  0.00  0.00    +0.007 A 
ATOM     35  C   UNL     1      -7.684   1.077  -6.543  0.00  0.00    -0.047 A 
ATOM     36  C   UNL     1      -6.652   0.991  -5.629  0.00  0.00    +0.049 A 
ATOM     37  C   UNL     1      -6.588   1.886  -4.570  0.00  0.00    +0.122 A 
ATOM     38  C   UNL     1      -7.565   2.861  -4.429  0.00  0.00    +0.049 A 
ATOM     39  C   UNL     1      -7.754   0.105  -7.693  0.00  0.00    +0.044 C 
ENDBRANCH  31  37
ENDBRANCH  30  31
ENDBRANCH  22  30
ENDBRANCH  21  25
ENDBRANCH   1  21
TORSDOF 8
