REMARK  Name = ZINC14653307
REMARK  9 active torsions:
REMARK  status: ('A' for Active; 'I' for Inactive)
REMARK    1  A    between atoms: C_1  and  C_2
REMARK    2  A    between atoms: C_2  and  C_3
REMARK    3  A    between atoms: C_3  and  O_4
REMARK    4  A    between atoms: O_4  and  C_5
REMARK    5  A    between atoms: C_10  and  C_11
REMARK    6  A    between atoms: N_13  and  C_14
REMARK    7  A    between atoms: C_14  and  N_16
REMARK    8  A    between atoms: N_16  and  C_17
REMARK    9  A    between atoms: C_19  and  N_24
REMARK                            x       y       z     vdW  Elec       q    Type
REMARK                         _______ _______ _______ _____ _____    ______ ____
ROOT
ATOM      1  C   UNL     1       3.459   6.202   0.307  0.00  0.00    +0.253 C 
ATOM      2  O   UNL     1       4.520   5.608   0.294  0.00  0.00    -0.270 OA
ATOM      3  N   UNL     1       2.302   5.516   0.213  0.00  0.00    -0.263 N 
ATOM      4  H   UNL     1       1.456   5.990   0.224  0.00  0.00    +0.157 HD
ENDROOT
BRANCH   1  10
ATOM      5  C   UNL     1       4.638   8.388   0.525  0.00  0.00    +0.133 A 
ATOM      6  C   UNL     1       4.607   9.770   0.636  0.00  0.00    +0.047 A 
ATOM      7  C   UNL     1       3.398  10.436   0.649  0.00  0.00    +0.019 A 
ATOM      8  C   UNL     1       2.208   9.732   0.552  0.00  0.00    +0.019 A 
ATOM      9  C   UNL     1       2.221   8.358   0.436  0.00  0.00    +0.032 A 
ATOM     10  C   UNL     1       3.438   7.671   0.426  0.00  0.00    +0.080 A 
ATOM     11 BR   UNL     1       0.560  10.659   0.572  0.00  0.00    -0.050 Br
BRANCH   5  12
ATOM     12  O   UNL     1       5.826   7.732   0.512  0.00  0.00    -0.491 OA
BRANCH  12  13
ATOM     13  C   UNL     1       7.008   8.529   0.616  0.00  0.00    +0.229 C 
BRANCH  13  15
ATOM     14  C   UNL     1       9.505   8.474   0.696  0.00  0.00    +0.007 C 
ATOM     15  C   UNL     1       8.239   7.621   0.584  0.00  0.00    +0.038 C 
ENDBRANCH  13  15
ENDBRANCH  12  13
ENDBRANCH   5  12
ENDBRANCH   1  10
BRANCH   3  16
ATOM     16  C   UNL     1       2.322   4.173   0.104  0.00  0.00    +0.141 C 
ATOM     17  S   UNL     1       3.816   3.337   0.086  0.00  0.00    -0.018 S 
BRANCH  16  18
ATOM     18  N   UNL     1       1.165   3.488   0.010  0.00  0.00    -0.294 N 
ATOM     19  H   UNL     1       0.323   3.965  -0.060  0.00  0.00    +0.154 HD
BRANCH  18  20
ATOM     20  C   UNL     1       1.179   2.088   0.012  0.00  0.00    +0.070 A 
ATOM     21  C   UNL     1       1.974   1.401   0.919  0.00  0.00    +0.059 A 
ATOM     22  C   UNL     1       1.985   0.020   0.919  0.00  0.00    +0.128 A 
ATOM     23  C   UNL     1       1.206  -0.680   0.016  0.00  0.00    +0.035 A 
ATOM     24  C   UNL     1       0.412  -0.001  -0.889  0.00  0.00    +0.042 A 
ATOM     25  C   UNL     1       0.395   1.382  -0.895  0.00  0.00    +0.145 A 
ATOM     26  F   UNL     1      -0.376   2.046  -1.783  0.00  0.00    -0.204 F 
BRANCH  22  27
ATOM     27  N   UNL     1       2.833  -0.712   1.886  0.00  0.00    +0.056 N 
ATOM     28  O   UNL     1       2.844  -1.930   1.887  0.00  0.00    -0.126 OA
ATOM     29  O   UNL     1       3.521  -0.096   2.681  0.00  0.00    -0.126 OA
ENDBRANCH  22  27
ENDBRANCH  18  20
ENDBRANCH  16  18
ENDBRANCH   3  16
TORSDOF 8
