REMARK  Name = ZINC24107254
REMARK  6 active torsions:
REMARK  status: ('A' for Active; 'I' for Inactive)
REMARK    1  A    between atoms: C_1  and  C_2
REMARK    2  A    between atoms: C_7  and  C_9
REMARK    3  A    between atoms: C_7  and  C_10
REMARK    4  A    between atoms: N_13  and  C_17
REMARK    5  A    between atoms: C_17  and  C_18
REMARK    6  A    between atoms: N_20  and  C_21
REMARK                            x       y       z     vdW  Elec       q    Type
REMARK                         _______ _______ _______ _____ _____    ______ ____
ROOT
ATOM      1  C   UNL     1       0.346   1.618   0.517  0.00  0.00    +0.007 C 
ATOM      2  C   UNL     1       0.082   0.120   0.351  0.00  0.00    -0.011 C 
ATOM      3  C   UNL     1       0.603  -0.342  -1.012  0.00  0.00    +0.038 C 
ATOM      4  C   UNL     1       0.359  -1.839  -1.170  0.00  0.00    +0.113 C 
ATOM      5  C   UNL     1       1.054  -2.619  -0.059  0.00  0.00    +0.041 C 
ATOM      6  C   UNL     1       0.532  -2.148   1.301  0.00  0.00    -0.032 C 
ATOM      7  C   UNL     1       0.802  -0.651   1.459  0.00  0.00    +0.009 C 
ATOM      8  C   UNL     1      -0.974  -2.406   1.386  0.00  0.00    +0.011 C 
ATOM      9  C   UNL     1       1.245  -2.917   2.415  0.00  0.00    +0.011 C 
ATOM     10  C   UNL     1       0.835  -2.312  -2.524  0.00  0.00    +0.247 C 
ATOM     11  O   UNL     1       1.966  -2.271  -2.960  0.00  0.00    -0.273 OA
ATOM     12  N   UNL     1      -0.263  -2.789  -3.145  0.00  0.00    -0.215 N 
ATOM     13  C   UNL     1      -1.352  -2.682  -2.374  0.00  0.00    +0.310 C 
ATOM     14  O   UNL     1      -2.460  -3.046  -2.715  0.00  0.00    -0.252 OA
ATOM     15  N   UNL     1      -1.081  -2.127  -1.177  0.00  0.00    -0.285 N 
ATOM     16  H   UNL     1      -1.712  -1.953  -0.461  0.00  0.00    +0.151 HD
ENDROOT
BRANCH  12  17
ATOM     17  C   UNL     1      -0.264  -3.355  -4.497  0.00  0.00    +0.214 C 
BRANCH  17  18
ATOM     18  C   UNL     1      -0.009  -4.838  -4.421  0.00  0.00    +0.235 C 
ATOM     19  O   UNL     1       0.158  -5.370  -3.344  0.00  0.00    -0.274 OA
ATOM     20  N   UNL     1       0.035  -5.573  -5.550  0.00  0.00    -0.283 N 
ATOM     21  H   UNL     1      -0.023  -5.138  -6.415  0.00  0.00    +0.155 HD
BRANCH  20  22
ATOM     22  C   UNL     1       0.163  -6.965  -5.474  0.00  0.00    +0.053 A 
ATOM     23  C   UNL     1      -0.407  -7.660  -4.416  0.00  0.00    +0.046 A 
ATOM     24  C   UNL     1      -0.279  -9.034  -4.344  0.00  0.00    +0.061 A 
ATOM     25  C   UNL     1       0.417  -9.719  -5.326  0.00  0.00    +0.061 A 
ATOM     26  C   UNL     1       0.986  -9.029  -6.382  0.00  0.00    +0.043 A 
ATOM     27  C   UNL     1       0.856  -7.655  -6.462  0.00  0.00    +0.064 A 
ATOM     28 CL   UNL     1       1.564  -6.791  -7.791  0.00  0.00    -0.082 Cl
ATOM     29 CL   UNL     1       0.577 -11.445  -5.232  0.00  0.00    -0.082 Cl
ATOM     30 CL   UNL     1      -0.992  -9.903  -3.020  0.00  0.00    -0.082 Cl
ENDBRANCH  20  22
ENDBRANCH  17  18
ENDBRANCH  12  17
TORSDOF 3
