REMARK  Name = ZINC16041639
REMARK  11 active torsions:
REMARK  status: ('A' for Active; 'I' for Inactive)
REMARK    1  A    between atoms: C_1  and  C_2
REMARK    2  A    between atoms: C_13  and  O_15
REMARK    3  A    between atoms: O_15  and  C_16
REMARK    4  A    between atoms: C_16  and  C_18
REMARK    5  A    between atoms: C_18  and  C_19
REMARK    6  A    between atoms: C_19  and  C_20
REMARK    7  A    between atoms: N_22  and  CA_23
REMARK    8  A    between atoms: CA_23  and  CB_25
REMARK    9  A    between atoms: CA_23  and  C_27
REMARK   10  A    between atoms: CB_25  and  OG_26
REMARK   11  A    between atoms: C_37  and  C_38
REMARK                            x       y       z     vdW  Elec       q    Type
REMARK                         _______ _______ _______ _____ _____    ______ ____
ROOT
ATOM      1  C   UNK A   0       0.724  -0.087   2.391  0.00  0.00    +0.015 C 
ATOM      2  C   UNK A   0       1.177  -0.302   0.945  0.00  0.00    +0.008 C 
ATOM      3  C   UNK A   0       1.685  -1.720   0.809  0.00  0.00    +0.011 C 
ATOM      4  C   UNK A   0       2.060  -2.012  -0.641  0.00  0.00    +0.005 C 
ATOM      5  C   UNK A   0       0.815  -1.849  -1.526  0.00  0.00    +0.002 C 
ATOM      6  C   UNK A   0       0.295  -0.421  -1.445  0.00  0.00    -0.003 C 
ATOM      7  C   UNK A   0       0.002  -0.004   0.002  0.00  0.00    +0.002 C 
ATOM      8  C   UNK A   0      -0.019   1.554   0.011  0.00  0.00    +0.008 C 
ATOM      9  C   UNK A   0       1.476   1.943  -0.002  0.00  0.00    +0.045 C 
ATOM     10  C   UNK A   0       2.243   0.744   0.594  0.00  0.00    +0.183 C 
ATOM     11  C   UNK A   0      -0.962  -0.198  -2.257  0.00  0.00    +0.008 C 
ATOM     12  C   UNK A   0      -1.030  -1.081  -3.495  0.00  0.00    +0.032 C 
ATOM     13  C   UNK A   0       0.369  -1.441  -3.929  0.00  0.00    -0.060 C 
ATOM     14  C   UNK A   0       0.816  -1.092  -5.131  0.00  0.00    +0.046 C 
ATOM     15  C   UNK A   0       2.177  -1.418  -5.553  0.00  0.00    +0.156 C 
ATOM     16  O   UNK A   0       2.558  -1.113  -6.664  0.00  0.00    -0.293 OA
ATOM     17  C   UNK A   0       3.107  -2.136  -4.607  0.00  0.00    +0.080 C 
ATOM     18  C   UNK A   0       2.703  -1.804  -3.167  0.00  0.00    +0.019 C 
ATOM     19  C   UNK A   0       1.238  -2.196  -2.960  0.00  0.00    -0.007 C 
ATOM     20  C   UNK A   0       1.075  -3.699  -3.191  0.00  0.00    +0.016 C 
ENDROOT
BRANCH  10  21
ATOM     21  O   UNK A   0       3.171   0.205  -0.385  0.00  0.00    -0.461 OA
BRANCH  21  22
ATOM     22  C   UNK A   0       4.430   0.667  -0.350  0.00  0.00    +0.308 C 
ATOM     23  O   UNK A   0       4.747   1.495   0.471  0.00  0.00    -0.251 OA
BRANCH  22  24
ATOM     24  C   UNK A   0       5.449   0.154  -1.335  0.00  0.00    +0.130 C 
BRANCH  24  25
ATOM     25  C   UNK A   0       6.794   0.838  -1.080  0.00  0.00    +0.107 C 
BRANCH  25  26
ATOM     26  C   UNK A   0       7.812   0.325  -2.065  0.00  0.00    +0.214 C 
ATOM     27  O   UNK A   0       7.494  -0.506  -2.889  0.00  0.00    -0.276 OA
ATOM     28  N   SER A   1       9.077   0.789  -2.030  0.00  0.00    -0.300 N 
ATOM     29  H   SER A   1       9.332   1.454  -1.371  0.00  0.00    +0.150 HD
BRANCH  28  30
ATOM     30  CA  SER A   1      10.068   0.290  -2.988  0.00  0.00    +0.212 C 
BRANCH  30  31
ATOM     31  C   SER A   1      10.675  -0.986  -2.463  0.00  0.00    +0.378 C 
ATOM     32  O   SER A   1      10.317  -1.432  -1.399  0.00  0.00    -0.244 OA
ATOM     33  OXT SER A   1      11.613  -1.626  -3.179  0.00  0.00    -0.244 OA
ENDBRANCH  30  31
BRANCH  30  34
ATOM     34  CB  SER A   1      11.166   1.337  -3.177  0.00  0.00    +0.189 C 
BRANCH  34  35
ATOM     35  OG  SER A   1      11.879   1.508  -1.950  0.00  0.00    -0.393 OA
ATOM     36  H   SER A   1      12.592   2.159  -1.997  0.00  0.00    +0.209 HD
ENDBRANCH  34  35
ENDBRANCH  30  34
ENDBRANCH  28  30
ENDBRANCH  25  26
ENDBRANCH  24  25
ENDBRANCH  22  24
ENDBRANCH  21  22
ENDBRANCH  10  21
TORSDOF 9
