REMARK  Name = ZINC15776258
REMARK  9 active torsions:
REMARK  status: ('A' for Active; 'I' for Inactive)
REMARK    1  A    between atoms: C_1  and  C_2
REMARK    2  A    between atoms: C_5  and  S_8
REMARK    3  A    between atoms: S_8  and  N_11
REMARK    4  A    between atoms: N_11  and  N_12
REMARK    5  A    between atoms: C_13  and  C_14
REMARK    6  A    between atoms: C_13  and  C_20
REMARK    7  A    between atoms: C_20  and  N_22
REMARK    8  A    between atoms: C_20  and  O_31
REMARK    9  A    between atoms: O_31  and  C_32
REMARK                            x       y       z     vdW  Elec       q    Type
REMARK                         _______ _______ _______ _____ _____    ______ ____
ROOT
ATOM      1  N   UNL     1      -4.484   2.961   2.002  0.00  0.00    -0.165 NA
ATOM      2  C   UNL     1      -3.801   1.968   1.521  0.00  0.00    +0.130 C 
ENDROOT
BRANCH   2   3
ATOM      3  C   UNL     1      -3.797   0.669   2.220  0.00  0.00    +0.003 A 
ATOM      4  C   UNL     1      -2.625  -0.087   2.290  0.00  0.00    +0.010 A 
ATOM      5  C   UNL     1      -2.628  -1.299   2.950  0.00  0.00    +0.001 A 
ATOM      6  C   UNL     1      -3.791  -1.770   3.531  0.00  0.00    +0.000 A 
ATOM      7  C   UNL     1      -4.958  -1.030   3.461  0.00  0.00    +0.001 A 
ATOM      8  C   UNL     1      -4.968   0.186   2.809  0.00  0.00    +0.010 A 
ENDBRANCH   2   3
BRANCH   1   9
ATOM      9  N   UNL     1      -5.094   2.849   3.257  0.00  0.00    -0.136 N 
ATOM     10  H   UNL     1      -4.935   2.064   3.806  0.00  0.00    +0.197 HD
BRANCH   9  11
ATOM     11  S   UNL     1      -6.088   4.055   3.806  0.00  0.00    +0.086 S 
ATOM     12  O   UNL     1      -6.658   3.590   5.022  0.00  0.00    -0.149 OA
ATOM     13  O   UNL     1      -5.342   5.262   3.727  0.00  0.00    -0.149 OA
BRANCH  11  18
ATOM     14  C   UNL     1     -10.622   4.566  -0.142  0.00  0.00    +0.044 C 
ATOM     15  C   UNL     1      -9.489   4.439   0.845  0.00  0.00    -0.050 A 
ATOM     16  C   UNL     1      -9.602   3.576   1.919  0.00  0.00    +0.005 A 
ATOM     17  C   UNL     1      -8.563   3.459   2.823  0.00  0.00    +0.029 A 
ATOM     18  C   UNL     1      -7.412   4.204   2.653  0.00  0.00    +0.110 A 
ATOM     19  C   UNL     1      -7.301   5.070   1.582  0.00  0.00    +0.029 A 
ATOM     20  C   UNL     1      -8.338   5.184   0.675  0.00  0.00    +0.005 A 
ENDBRANCH  11  18
ENDBRANCH   9  11
ENDBRANCH   1   9
BRANCH   2  21
ATOM     21  C   UNL     1      -3.011   2.142   0.249  0.00  0.00    +0.346 C 
BRANCH  21  22
ATOM     22  N   UNL     1      -3.375   1.086  -0.700  0.00  0.00    -0.199 N 
ATOM     23  C   UNL     1      -4.198   1.212  -1.794  0.00  0.00    +0.093 A 
ATOM     24  C   UNL     1      -4.913   2.268  -2.349  0.00  0.00    +0.030 A 
ATOM     25  C   UNL     1      -5.660   2.064  -3.475  0.00  0.00    +0.002 A 
ATOM     26  C   UNL     1      -5.711   0.811  -4.072  0.00  0.00    +0.002 A 
ATOM     27  C   UNL     1      -5.019  -0.240  -3.548  0.00  0.00    +0.032 A 
ATOM     28  C   UNL     1      -4.245  -0.059  -2.393  0.00  0.00    +0.113 A 
ATOM     29  N   UNL     1      -3.472  -0.885  -1.662  0.00  0.00    -0.129 NA
ATOM     30  N   UNL     1      -2.948  -0.250  -0.674  0.00  0.00    -0.061 NA
ENDBRANCH  21  22
BRANCH  21  31
ATOM     31  O   UNL     1      -1.615   2.059   0.541  0.00  0.00    -0.462 OA
BRANCH  31  32
ATOM     32  C   UNL     1      -1.010   3.191   0.988  0.00  0.00    +0.124 A 
ATOM     33  C   UNL     1      -1.758   4.338   1.209  0.00  0.00    +0.046 A 
ATOM     34  C   UNL     1      -1.142   5.486   1.668  0.00  0.00    +0.004 A 
ATOM     35  C   UNL     1       0.221   5.493   1.904  0.00  0.00    +0.000 A 
ATOM     36  C   UNL     1       0.970   4.353   1.680  0.00  0.00    +0.004 A 
ATOM     37  C   UNL     1       0.358   3.202   1.220  0.00  0.00    +0.046 A 
ENDBRANCH  31  32
ENDBRANCH  21  31
ENDBRANCH   2  21
TORSDOF 8
