REMARK  Name = ZINC18222516
REMARK  8 active torsions:
REMARK  status: ('A' for Active; 'I' for Inactive)
REMARK    1  A    between atoms: C_1  and  C_2
REMARK    2  A    between atoms: C_2  and  C_3
REMARK    3  A    between atoms: N_10  and  N_11
REMARK    4  A    between atoms: N_11  and  C_12
REMARK    5  A    between atoms: C_12  and  N_14
REMARK    6  A    between atoms: C_18  and  C_22
REMARK    7  A    between atoms: C_18  and  C_23
REMARK    8  A    between atoms: C_20  and  C_21
REMARK                            x       y       z     vdW  Elec       q    Type
REMARK                         _______ _______ _______ _____ _____    ______ ____
ROOT
ATOM      1  C   UNL     1       0.707  -0.490  -1.238  0.00  0.00    -0.046 A 
ATOM      2  C   UNL     1      -0.030  -0.713  -2.389  0.00  0.00    +0.013 A 
ATOM      3  C   UNL     1       0.616  -1.162  -3.542  0.00  0.00    +0.000 A 
ATOM      4  C   UNL     1       1.985  -1.369  -3.483  0.00  0.00    +0.054 A 
ATOM      5  C   UNL     1       2.733  -1.149  -2.337  0.00  0.00    +0.029 A 
ATOM      6  C   UNL     1       2.076  -0.696  -1.197  0.00  0.00    +0.015 A 
ATOM      7  C   UNL     1       4.121  -1.490  -2.718  0.00  0.00    +0.153 C 
ATOM      8  N   UNL     1       5.191  -1.439  -1.961  0.00  0.00    -0.175 NA
ATOM      9  C   UNL     1       4.043  -1.900  -4.140  0.00  0.00    +0.272 C 
ATOM     10  O   UNL     1       4.977  -2.259  -4.832  0.00  0.00    -0.268 OA
ATOM     11  N   UNL     1       2.758  -1.808  -4.534  0.00  0.00    -0.256 N 
ATOM     12  C   UNL     1       2.065  -2.074  -5.806  0.00  0.00    +0.056 C 
ATOM     13  C   UNL     1       0.572  -1.851  -5.869  0.00  0.00    +0.002 C 
ATOM     14  C   UNL     1      -0.101  -1.423  -4.805  0.00  0.00    -0.043 C 
ATOM     15  C   UNL     1      -1.590  -1.205  -4.888  0.00  0.00    +0.044 C 
ATOM     16  C   UNL     1       2.712  -1.197  -6.880  0.00  0.00    +0.036 C 
ATOM     17  C   UNL     1       2.333  -3.532  -6.184  0.00  0.00    +0.036 C 
ENDROOT
BRANCH   1  19
ATOM     18  C   UNL     1      -0.019   1.526   0.010  0.00  0.00    +0.009 C 
ATOM     19  C   UNL     1       0.002  -0.004   0.002  0.00  0.00    +0.032 C 
ENDBRANCH   1  19
BRANCH   8  20
ATOM     20  N   UNL     1       6.439  -1.800  -2.486  0.00  0.00    -0.218 N 
ATOM     21  H   UNL     1       6.511  -2.086  -3.410  0.00  0.00    +0.176 HD
BRANCH  20  22
ATOM     22  C   UNL     1       7.538  -1.748  -1.708  0.00  0.00    +0.147 C 
ATOM     23  S   UNL     1       9.063  -2.188  -2.350  0.00  0.00    -0.017 S 
BRANCH  22  24
ATOM     24  N   UNL     1       7.437  -1.350  -0.424  0.00  0.00    -0.339 N 
ATOM     25  H   UNL     1       6.573  -1.100  -0.061  0.00  0.00    +0.144 HD
ATOM     26  H   UNL     1       8.228  -1.313   0.136  0.00  0.00    +0.144 HD
ENDBRANCH  22  24
ENDBRANCH  20  22
ENDBRANCH   8  20
TORSDOF 4
