REMARK  Name = ZINC12497451
REMARK  10 active torsions:
REMARK  status: ('A' for Active; 'I' for Inactive)
REMARK    1  A    between atoms: C_1  and  C_2
REMARK    2  A    between atoms: C_5  and  N_8
REMARK    3  A    between atoms: C_13  and  C_28
REMARK    4  A    between atoms: C_15  and  C_20
REMARK    5  A    between atoms: C_15  and  C_24
REMARK    6  A    between atoms: C_20  and  C_21
REMARK    7  A    between atoms: C_21  and  S_22
REMARK    8  A    between atoms: S_22  and  C_23
REMARK    9  A    between atoms: C_24  and  O_26
REMARK   10  A    between atoms: O_26  and  C_27
REMARK                            x       y       z     vdW  Elec       q    Type
REMARK                         _______ _______ _______ _____ _____    ______ ____
ROOT
ATOM      1  N   UNL     1      -3.255  -1.897  -0.139  0.00  0.00    -0.210 N 
ATOM      2  C   UNL     1      -2.491  -2.528   0.802  0.00  0.00    +0.229 C 
ATOM      3  O   UNL     1      -2.875  -3.266   1.684  0.00  0.00    -0.275 OA
ATOM      4  C   UNL     1      -1.074  -2.114   0.514  0.00  0.00    +0.077 C 
ATOM      5  C   UNL     1      -0.138  -1.757   1.667  0.00  0.00    -0.027 C 
ATOM      6  C   UNL     1      -0.078  -0.041  -0.041  0.00  0.00    +0.044 C 
ATOM      7  C   UNL     1      -1.425  -0.637   0.067  0.00  0.00    +0.086 C 
ATOM      8  C   UNL     1      -2.589  -0.867  -0.757  0.00  0.00    +0.229 C 
ATOM      9  O   UNL     1      -2.909  -0.280  -1.769  0.00  0.00    -0.275 OA
ATOM     10  N   UNL     1       0.569  -0.527   1.218  0.00  0.00    +0.395 N 
ATOM     11  H   UNL     1       1.557  -0.741   1.040  0.00  0.00    -0.083 HD
ATOM     12  H   UNL     1       0.501   0.196   1.944  0.00  0.00    -0.083 HD
ENDROOT
BRANCH   1  17
ATOM     13  C   UNL     1      -8.597  -3.373  -1.362  0.00  0.00    +0.044 C 
ATOM     14  C   UNL     1      -7.178  -2.981  -1.037  0.00  0.00    -0.050 A 
ATOM     15  C   UNL     1      -6.476  -3.674  -0.069  0.00  0.00    +0.005 A 
ATOM     16  C   UNL     1      -5.175  -3.317   0.231  0.00  0.00    +0.024 A 
ATOM     17  C   UNL     1      -4.574  -2.261  -0.441  0.00  0.00    +0.044 A 
ATOM     18  C   UNL     1      -5.285  -1.563  -1.408  0.00  0.00    +0.024 A 
ATOM     19  C   UNL     1      -6.583  -1.929  -1.708  0.00  0.00    +0.005 A 
ENDBRANCH   1  17
BRANCH   5  20
ATOM     20  C   UNL     1      -0.931  -1.480   2.918  0.00  0.00    -0.061 A 
ATOM     21  C   UNL     1      -1.404  -0.206   3.170  0.00  0.00    +0.003 A 
ATOM     22  C   UNL     1      -2.136   0.047   4.314  0.00  0.00    +0.020 A 
ATOM     23  C   UNL     1      -2.388  -0.974   5.214  0.00  0.00    +0.041 A 
ATOM     24  C   UNL     1      -1.910  -2.248   4.964  0.00  0.00    +0.020 A 
ATOM     25  C   UNL     1      -1.182  -2.501   3.817  0.00  0.00    +0.003 A 
ATOM     26 CL   UNL     1      -3.302  -0.656   6.655  0.00  0.00    -0.084 Cl
ENDBRANCH   5  20
BRANCH   6  27
ATOM     27  C   UNL     1       0.646  -0.562  -1.255  0.00  0.00    +0.297 C 
ATOM     28  O   UNL     1       0.020  -0.925  -2.223  0.00  0.00    -0.252 OA
BRANCH  27  29
ATOM     29  O   UNL     1       1.987  -0.624  -1.262  0.00  0.00    -0.469 OA
ATOM     30  C   UNL     1       2.617  -1.137  -2.465  0.00  0.00    +0.280 C 
ENDBRANCH  27  29
ENDBRANCH   6  27
BRANCH   6  31
ATOM     31  C   UNL     1      -0.157   1.487  -0.069  0.00  0.00    +0.010 C 
BRANCH  31  32
ATOM     32  C   UNL     1       1.257   2.070  -0.105  0.00  0.00    +0.068 C 
BRANCH  32  33
ATOM     33  S   UNL     1       1.163   3.881  -0.139  0.00  0.00    -0.164 S 
ATOM     34  C   UNL     1       2.898   4.410  -0.179  0.00  0.00    +0.084 C 
ENDBRANCH  32  33
ENDBRANCH  31  32
ENDBRANCH   6  31
TORSDOF 7
