REMARK  Name = ZINC19234223
REMARK  7 active torsions:
REMARK  status: ('A' for Active; 'I' for Inactive)
REMARK    1  A    between atoms: C_1  and  C_2
REMARK    2  A    between atoms: C_7  and  C_15
REMARK    3  A    between atoms: C_13  and  C_14
REMARK    4  A    between atoms: C_15  and  C_17
REMARK    5  A    between atoms: C_15  and  N_29
REMARK    6  A    between atoms: N_21  and  C_22
REMARK    7  A    between atoms: C_22  and  C_23
REMARK                            x       y       z     vdW  Elec       q    Type
REMARK                         _______ _______ _______ _____ _____    ______ ____
ROOT
ATOM      1  C   UNL     1      -0.013   1.086   0.008  0.00  0.00    +0.163 C 
ENDROOT
BRANCH   1   8
ATOM      2  C   UNL     1       7.752   2.911   0.028  0.00  0.00    +0.044 C 
ATOM      3  C   UNL     1       6.356   2.344   0.043  0.00  0.00    -0.046 A 
ATOM      4  C   UNL     1       6.172   0.972   0.144  0.00  0.00    +0.004 A 
ATOM      5  C   UNL     1       4.915   0.438   0.159  0.00  0.00    +0.010 A 
ATOM      6  C   UNL     1       3.802   1.281   0.072  0.00  0.00    -0.001 A 
ATOM      7  C   UNL     1       2.441   0.742   0.085  0.00  0.00    +0.021 A 
ATOM      8  C   UNL     1       1.401   1.607  -0.003  0.00  0.00    +0.042 A 
ATOM      9  C   UNL     1       1.638   2.995  -0.110  0.00  0.00    +0.254 A 
ATOM     10  O   UNL     1       0.689   3.755  -0.193  0.00  0.00    -0.268 OA
ATOM     11  N   UNL     1       2.884   3.499  -0.117  0.00  0.00    -0.322 N 
ATOM     12  H   UNL     1       3.037   4.586  -0.193  0.00  0.00    +0.169 HD
ATOM     13  C   UNL     1       3.984   2.673  -0.031  0.00  0.00    +0.052 A 
ATOM     14  C   UNL     1       5.274   3.194  -0.044  0.00  0.00    -0.024 A 
ATOM     15  C   UNL     1       5.488   4.681  -0.153  0.00  0.00    +0.046 C 
ENDBRANCH   1   8
BRANCH   1  16
ATOM     16  N   UNL     1      -0.723   1.572  -1.182  0.00  0.00    -0.284 NA
ATOM     17  C   UNL     1      -2.104   1.063  -1.217  0.00  0.00    +0.090 C 
ATOM     18  C   UNL     1      -2.894   1.875  -2.244  0.00  0.00    +0.051 C 
ATOM     19  C   UNL     1      -2.141   1.925  -3.549  0.00  0.00    -0.042 A 
ATOM     20  C   UNL     1      -2.827   2.298  -4.695  0.00  0.00    +0.004 A 
ATOM     21  C   UNL     1      -2.174   2.362  -5.909  0.00  0.00    +0.000 A 
ATOM     22  C   UNL     1      -0.829   2.052  -5.984  0.00  0.00    +0.000 A 
ATOM     23  C   UNL     1      -0.145   1.679  -4.844  0.00  0.00    +0.005 A 
ATOM     24  C   UNL     1      -0.800   1.613  -3.623  0.00  0.00    -0.030 A 
ATOM     25  C   UNL     1      -0.012   1.197  -2.409  0.00  0.00    +0.120 C 
ENDBRANCH   1  16
BRANCH   1  26
ATOM     26  C   UNL     1      -0.718   1.572   1.248  0.00  0.00    +0.173 A 
ATOM     27  N   UNL     1      -1.163   2.784   1.471  0.00  0.00    -0.111 NA
ATOM     28  N   UNL     1      -1.705   2.801   2.639  0.00  0.00    -0.023 NA
ATOM     29  N   UNL     1      -1.611   1.632   3.171  0.00  0.00    -0.044 NA
ATOM     30  N   UNL     1      -1.008   0.846   2.344  0.00  0.00    -0.225 N 
BRANCH  30  31
ATOM     31  C   UNL     1      -0.699  -0.570   2.557  0.00  0.00    +0.179 C 
BRANCH  31  32
ATOM     32  C   UNL     1       0.679  -0.698   3.210  0.00  0.00    +0.140 C 
ATOM     33  C   UNL     1       1.064  -2.188   3.333  0.00  0.00    +0.035 C 
ATOM     34  C   UNL     1       1.755  -2.235   4.723  0.00  0.00    +0.031 C 
ATOM     35  C   UNL     1       0.934  -1.173   5.497  0.00  0.00    +0.160 C 
ATOM     36  O   UNL     1       0.643  -0.148   4.532  0.00  0.00    -0.375 OA
ENDBRANCH  31  32
ENDBRANCH  30  31
ENDBRANCH   1  26
TORSDOF 5
