REMARK  Name = ZINC15088563
REMARK  13 active torsions:
REMARK  status: ('A' for Active; 'I' for Inactive)
REMARK    1  A    between atoms: C_1  and  C_2
REMARK    2  A    between atoms: C_7  and  C_35
REMARK    3  A    between atoms: C_10  and  C_12
REMARK    4  A    between atoms: C_12  and  O_13
REMARK    5  A    between atoms: O_13  and  C_14
REMARK    6  A    between atoms: C_17  and  C_20
REMARK    7  A    between atoms: C_20  and  O_22
REMARK    8  A    between atoms: O_22  and  C_23
REMARK    9  A    between atoms: C_23  and  C_24
REMARK   10  A    between atoms: N_26  and  C_27
REMARK   11  A    between atoms: N_31  and  C_32
REMARK   12  A    between atoms: C_32  and  C_33
REMARK   13  A    between atoms: C_32  and  C_34
REMARK                            x       y       z     vdW  Elec       q    Type
REMARK                         _______ _______ _______ _____ _____    ______ ____
ROOT
ATOM      1  C   UNL     1      -6.971  -1.275  -1.251  0.00  0.00    +0.121 A 
ATOM      2  C   UNL     1      -7.158   0.093  -1.409  0.00  0.00    +0.046 A 
ATOM      3  C   UNL     1      -6.087   0.907  -1.702  0.00  0.00    +0.018 A 
ATOM      4  C   UNL     1      -4.810   0.355  -1.841  0.00  0.00    +0.059 A 
ATOM      5  C   UNL     1      -4.628  -1.023  -1.688  0.00  0.00    +0.018 A 
ATOM      6  C   UNL     1      -5.704  -1.828  -1.389  0.00  0.00    +0.046 A 
ENDROOT
BRANCH   4   7
ATOM      7  C   UNL     1      -3.659   1.222  -2.155  0.00  0.00    +0.340 C 
ATOM      8  O   UNL     1      -3.821   2.419  -2.293  0.00  0.00    -0.245 OA
BRANCH   7   9
ATOM      9  O   UNL     1      -2.429   0.688  -2.289  0.00  0.00    -0.452 OA
BRANCH   9  10
ATOM     10  C   UNL     1      -1.344   1.602  -2.599  0.00  0.00    +0.328 C 
BRANCH  10  11
ATOM     11  C   UNL     1      -0.054   0.830  -2.710  0.00  0.00    +0.256 C 
ATOM     12  O   UNL     1      -0.050  -0.371  -2.545  0.00  0.00    -0.272 OA
ATOM     13  N   UNL     1       1.093   1.475  -2.999  0.00  0.00    -0.268 N 
ATOM     14  H   UNL     1       1.090   2.436  -3.131  0.00  0.00    +0.156 HD
BRANCH  13  15
ATOM     15  C   UNL     1       2.286   0.760  -3.107  0.00  0.00    +0.123 A 
ATOM     16  C   UNL     1       2.436  -0.583  -2.949  0.00  0.00    +0.065 A 
ATOM     17  C   UNL     1       3.786  -0.889  -3.141  0.00  0.00    +0.136 A 
ATOM     18  N   UNL     1       4.426   0.221  -3.405  0.00  0.00    -0.178 NA
ATOM     19  N   UNL     1       3.503   1.275  -3.396  0.00  0.00    -0.248 N 
BRANCH  19  20
ATOM     20  C   UNL     1       3.804   2.686  -3.651  0.00  0.00    +0.103 C 
ATOM     21  C   UNL     1       4.818   3.186  -2.620  0.00  0.00    +0.032 C 
ATOM     22  C   UNL     1       4.388   2.837  -5.056  0.00  0.00    +0.032 C 
ENDBRANCH  19  20
ENDBRANCH  13  15
ENDBRANCH  10  11
ENDBRANCH   9  10
ENDBRANCH   7   9
ENDBRANCH   4   7
BRANCH   1  23
ATOM     23  O   UNL     1      -8.030  -2.073  -0.962  0.00  0.00    -0.483 OA
BRANCH  23  24
ATOM     24  C   UNL     1      -7.768  -3.470  -0.814  0.00  0.00    +0.324 C 
BRANCH  24  32
ATOM     25  C   UNL     1     -11.498  -5.291  -0.317  0.00  0.00    +0.028 C 
ATOM     26  C   UNL     1     -10.322  -6.262  -0.190  0.00  0.00    +0.073 C 
ATOM     27  C   UNL     1     -10.431  -7.348  -1.270  0.00  0.00    +0.022 C 
ATOM     28  C   UNL     1      -9.182  -8.233  -1.222  0.00  0.00    +0.004 C 
ATOM     29  C   UNL     1      -7.943  -7.385  -1.515  0.00  0.00    +0.022 C 
ATOM     30  C   UNL     1      -7.807  -6.299  -0.443  0.00  0.00    +0.073 C 
ATOM     31  N   UNL     1      -9.060  -5.535  -0.383  0.00  0.00    -0.293 N 
ATOM     32  C   UNL     1      -9.052  -4.192  -0.497  0.00  0.00    +0.254 C 
ATOM     33  O   UNL     1     -10.079  -3.564  -0.345  0.00  0.00    -0.272 OA
ATOM     34  C   UNL     1      -7.537  -6.950   0.915  0.00  0.00    +0.028 C 
ENDBRANCH  24  32
ENDBRANCH  23  24
ENDBRANCH   1  23
TORSDOF 9
