REMARK  Name = ZINC67296349
REMARK  4 active torsions:
REMARK  status: ('A' for Active; 'I' for Inactive)
REMARK    1  A    between atoms: C_8  and  C_23
REMARK    2  A    between atoms: N_10  and  C_11
REMARK    3  A    between atoms: C_14  and  O_17
REMARK    4  A    between atoms: O_17  and  C_18
REMARK                            x       y       z     vdW  Elec       q    Type
REMARK                         _______ _______ _______ _____ _____    ______ ____
ROOT
ATOM      1  C   UNL     1      -0.144   1.023  -0.796  0.00  0.00    +0.001 A 
ATOM      2  C   UNL     1       0.779   1.873  -0.204  0.00  0.00    +0.004 A 
ATOM      3  C   UNL     1       2.015   1.404   0.192  0.00  0.00    +0.047 A 
ATOM      4  C   UNL     1       2.340   0.069  -0.002  0.00  0.00    +0.137 A 
ATOM      5  C   UNL     1       1.401  -0.793  -0.599  0.00  0.00    +0.018 A 
ATOM      6  C   UNL     1       0.154  -0.295  -0.996  0.00  0.00    +0.011 A 
ATOM      7  C   UNL     1       1.743  -2.204  -0.794  0.00  0.00    +0.030 A 
ATOM      8  C   UNL     1       2.868  -2.684  -0.138  0.00  0.00    +0.098 A 
ATOM      9  C   UNL     1       3.619  -1.726   0.698  0.00  0.00    +0.212 A 
ATOM     10  N   UNL     1       4.333  -2.136   1.723  0.00  0.00    -0.325 N 
ATOM     11  O   UNL     1       3.551  -0.409   0.376  0.00  0.00    -0.439 OA
ATOM     12  H   UNL     1       4.293  -3.065   2.002  0.00  0.00    +0.169 HD
ENDROOT
BRANCH   8  13
ATOM     13  C   UNL     1       3.293  -4.088  -0.269  0.00  0.00    +0.254 C 
ATOM     14  O   UNL     1       2.586  -4.885  -0.854  0.00  0.00    -0.270 OA
ATOM     15  N   UNL     1       4.466  -4.489   0.261  0.00  0.00    -0.266 N 
ATOM     16  C   UNL     1       4.897  -5.801   0.083  0.00  0.00    +0.125 A 
ATOM     17  C   UNL     1       3.977  -6.791  -0.246  0.00  0.00    +0.044 A 
ATOM     18  C   UNL     1       4.420  -8.090  -0.420  0.00  0.00    +0.005 A 
ATOM     19  C   UNL     1       5.773  -8.357  -0.258  0.00  0.00    +0.020 A 
ATOM     20  C   UNL     1       6.630  -7.325   0.068  0.00  0.00    +0.113 A 
ATOM     21  N   UNL     1       6.181  -6.094   0.222  0.00  0.00    -0.240 NA
ATOM     22  H   UNL     1       5.009  -3.864   0.765  0.00  0.00    +0.157 HD
ENDBRANCH   8  13
BRANCH  10  23
ATOM     23  C   UNL     1       5.134  -1.254   2.396  0.00  0.00    +0.042 A 
ATOM     24  C   UNL     1       5.940  -0.359   1.689  0.00  0.00    +0.029 A 
ATOM     25  C   UNL     1       6.745   0.529   2.371  0.00  0.00    +0.048 A 
ATOM     26  C   UNL     1       6.755   0.534   3.759  0.00  0.00    +0.130 A 
ATOM     27  C   UNL     1       5.957  -0.354   4.467  0.00  0.00    +0.048 A 
ATOM     28  C   UNL     1       5.144  -1.242   3.793  0.00  0.00    +0.029 A 
BRANCH  26  29
ATOM     29  O   UNL     1       7.550   1.411   4.428  0.00  0.00    -0.406 OA
BRANCH  29  30
ATOM     30  C   UNL     1       7.513   1.363   5.856  0.00  0.00    +0.575 C 
ATOM     31  F   UNL     1       7.906   0.092   6.290  0.00  0.00    -0.133 F 
ATOM     32  F   UNL     1       8.384   2.324   6.378  0.00  0.00    -0.133 F 
ATOM     33  F   UNL     1       6.211   1.624   6.297  0.00  0.00    -0.133 F 
ENDBRANCH  29  30
ENDBRANCH  26  29
ENDBRANCH  10  23
TORSDOF 4
