REMARK  Name = ZINC51362055
REMARK  4 active torsions:
REMARK  status: ('A' for Active; 'I' for Inactive)
REMARK    1  A    between atoms: C_1  and  N_2
REMARK    2  A    between atoms: C_6  and  C_12
REMARK    3  A    between atoms: C_12  and  C_14
REMARK    4  A    between atoms: C_12  and  N_22
REMARK                            x       y       z     vdW  Elec       q    Type
REMARK                         _______ _______ _______ _____ _____    ______ ____
ROOT
ATOM      1  C   UNL     1      -3.837  -4.135  -0.000  0.00  0.00    -0.013 C 
ENDROOT
BRANCH   1   7
ATOM      2  C   UNL     1      -0.018   1.461   0.010  0.00  0.00    +0.156 C 
ATOM      3  N   UNL     1       0.002  -0.004   0.002  0.00  0.00    -0.277 N 
ATOM      4  C   UNL     1      -1.111  -0.844   0.003  0.00  0.00    +0.090 A 
ATOM      5  C   UNL     1      -2.478  -0.613   0.010  0.00  0.00    +0.030 A 
ATOM      6  C   UNL     1      -3.355  -1.680   0.009  0.00  0.00    +0.004 A 
ATOM      7  C   UNL     1      -2.873  -2.977   0.000  0.00  0.00    -0.054 A 
ATOM      8  C   UNL     1      -1.513  -3.215  -0.008  0.00  0.00    +0.050 A 
ATOM      9  C   UNL     1      -0.625  -2.151  -0.007  0.00  0.00    +0.157 A 
ATOM     10  O   UNL     1       0.729  -2.076  -0.013  0.00  0.00    -0.407 OA
ATOM     11  C   UNL     1       1.100  -0.786  -0.013  0.00  0.00    +0.421 A 
ATOM     12  O   UNL     1       2.248  -0.385  -0.022  0.00  0.00    -0.223 OA
ENDBRANCH   1   7
BRANCH   1  13
ATOM     13  C   UNL     1      -4.341  -4.370   1.401  0.00  0.00    -0.055 A 
ATOM     14  C   UNL     1      -5.353  -3.579   1.912  0.00  0.00    +0.005 A 
ATOM     15  C   UNL     1      -5.816  -3.793   3.197  0.00  0.00    +0.041 A 
ATOM     16  C   UNL     1      -5.268  -4.800   3.972  0.00  0.00    +0.158 A 
ATOM     17  C   UNL     1      -4.253  -5.593   3.459  0.00  0.00    +0.159 A 
ATOM     18  C   UNL     1      -3.794  -5.380   2.170  0.00  0.00    +0.043 A 
ATOM     19  F   UNL     1      -3.716  -6.576   4.214  0.00  0.00    -0.202 F 
ATOM     20  F   UNL     1      -5.720  -5.009   5.228  0.00  0.00    -0.202 F 
ENDBRANCH   1  13
BRANCH   1  21
ATOM     21  N   UNL     1      -4.971  -3.829  -0.883  0.00  0.00    +0.385 N 
ATOM     22  H   UNL     1      -5.441  -3.000  -0.551  0.00  0.00    -0.089 HD
ATOM     23  H   UNL     1      -4.633  -3.671  -1.821  0.00  0.00    -0.089 HD
ATOM     24  H   UNL     1      -5.616  -4.604  -0.883  0.00  0.00    -0.089 HD
ENDBRANCH   1  21
TORSDOF 3
