REMARK  Name = ZINC64799050
REMARK  6 active torsions:
REMARK  status: ('A' for Active; 'I' for Inactive)
REMARK    1  A    between atoms: C_1  and  O_2
REMARK    2  A    between atoms: O_2  and  C_3
REMARK    3  A    between atoms: C_6  and  S_9
REMARK    4  A    between atoms: S_9  and  C_12
REMARK    5  A    between atoms: C_21  and  C_23
REMARK    6  A    between atoms: C_26  and  O_29
REMARK                            x       y       z     vdW  Elec       q    Type
REMARK                         _______ _______ _______ _____ _____    ______ ____
ROOT
ATOM      1  C   UNL     1       1.553  -3.064   5.779  0.00  0.00    +0.122 A 
ATOM      2  C   UNL     1       1.341  -4.357   6.123  0.00  0.00    +0.074 A 
ATOM      3  S   UNL     1       0.120  -4.204   7.419  0.00  0.00    -0.097 S 
ATOM      4  C   UNL     1      -0.023  -2.441   7.405  0.00  0.00    +0.021 A 
ATOM      5  C   UNL     1       0.862  -2.050   6.438  0.00  0.00    +0.070 A 
ATOM      6  N   UNL     1       0.993  -0.657   6.170  0.00  0.00    -0.283 N 
ATOM      7  C   UNL     1       0.421   0.221   7.013  0.00  0.00    +0.218 C 
ATOM      8  O   UNL     1       0.377   1.389   6.688  0.00  0.00    -0.275 OA
ATOM      9  C   UNL     1      -0.167  -0.176   8.337  0.00  0.00    +0.109 C 
ATOM     10  C   UNL     1      -0.882  -1.534   8.222  0.00  0.00    +0.066 C 
ATOM     11  H   UNL     1       1.485  -0.347   5.395  0.00  0.00    +0.155 HD
ENDROOT
BRANCH  10  12
ATOM     12  C   UNL     1      -2.222  -1.364   7.553  0.00  0.00    -0.039 A 
ATOM     13  C   UNL     1      -2.294  -0.836   6.277  0.00  0.00    +0.008 A 
ATOM     14  C   UNL     1      -3.521  -0.679   5.663  0.00  0.00    +0.045 A 
ATOM     15  C   UNL     1      -4.681  -1.052   6.326  0.00  0.00    +0.117 A 
ATOM     16  C   UNL     1      -4.606  -1.582   7.606  0.00  0.00    +0.045 A 
ATOM     17  C   UNL     1      -3.376  -1.742   8.215  0.00  0.00    +0.008 A 
BRANCH  15  18
ATOM     18  O   UNL     1      -5.890  -0.898   5.724  0.00  0.00    -0.507 OA
ATOM     19  H   UNL     1      -6.173  -1.665   5.209  0.00  0.00    +0.292 HD
ENDBRANCH  15  18
ENDBRANCH  10  12
BRANCH   1  20
ATOM     20  S   UNL     1       2.704  -2.665   4.505  0.00  0.00    +0.027 S 
ATOM     21  O   UNL     1       2.050  -1.746   3.640  0.00  0.00    -0.164 OA
ATOM     22  O   UNL     1       3.241  -3.897   4.043  0.00  0.00    -0.164 OA
BRANCH  20  26
ATOM     23  C   UNL     1       6.120  -0.412   6.445  0.00  0.00    +0.120 A 
ATOM     24  C   UNL     1       6.107  -1.799   6.456  0.00  0.00    +0.047 A 
ATOM     25  C   UNL     1       5.064  -2.484   5.864  0.00  0.00    +0.031 A 
ATOM     26  C   UNL     1       4.033  -1.789   5.260  0.00  0.00    +0.094 A 
ATOM     27  C   UNL     1       4.043  -0.406   5.247  0.00  0.00    +0.031 A 
ATOM     28  C   UNL     1       5.081   0.284   5.844  0.00  0.00    +0.047 A 
BRANCH  23  30
ATOM     29  C   UNL     1       8.179  -0.518   7.628  0.00  0.00    +0.277 C 
ATOM     30  O   UNL     1       7.144   0.264   7.027  0.00  0.00    -0.495 OA
ENDBRANCH  23  30
ENDBRANCH  20  26
ENDBRANCH   1  20
TORSDOF 5
