REMARK  Name = ZINC39324741
REMARK  4 active torsions:
REMARK  status: ('A' for Active; 'I' for Inactive)
REMARK    1  A    between atoms: C_10  and  C_21
REMARK    2  A    between atoms: C_12  and  C_19
REMARK    3  A    between atoms: C_13  and  N_18
REMARK    4  A    between atoms: C_23  and  C_27
REMARK                            x       y       z     vdW  Elec       q    Type
REMARK                         _______ _______ _______ _____ _____    ______ ____
ROOT
ATOM      1  C   UNL     1      -0.016   1.357   0.009  0.00  0.00    +0.001 A 
ATOM      2  C   UNL     1       1.162   2.096   0.002  0.00  0.00    +0.002 A 
ATOM      3  C   UNL     1       2.386   1.497  -0.010  0.00  0.00    +0.024 A 
ATOM      4  C   UNL     1       2.482   0.095  -0.017  0.00  0.00    +0.044 A 
ATOM      5  N   UNL     1       3.684  -0.494  -0.017  0.00  0.00    -0.284 N 
ATOM      6  C   UNL     1       3.863  -1.799  -0.043  0.00  0.00    +0.229 C 
ATOM      7  O   UNL     1       4.990  -2.260  -0.037  0.00  0.00    -0.275 OA
ATOM      8  C   UNL     1       2.667  -2.725  -0.080  0.00  0.00    +0.154 C 
ATOM      9  C   UNL     1       2.737  -3.607   1.171  0.00  0.00    +0.085 C 
ATOM     10  C   UNL     1       1.446  -4.360   1.334  0.00  0.00    +0.095 C 
ATOM     11  C   UNL     1       0.287  -3.959   0.766  0.00  0.00    +0.198 C 
ATOM     12  O   UNL     1       0.216  -2.853  -0.011  0.00  0.00    -0.444 OA
ATOM     13  C   UNL     1       1.297  -2.069  -0.059  0.00  0.00    +0.129 C 
ATOM     14  C   UNL     1       1.237  -0.684  -0.016  0.00  0.00    +0.035 A 
ATOM     15  C   UNL     1       0.002  -0.004   0.002  0.00  0.00    +0.013 A 
ATOM     16  H   UNL     1       4.470   0.074   0.003  0.00  0.00    +0.155 HD
ENDROOT
BRANCH   9  17
ATOM     17  C   UNL     1       2.969  -2.742   2.382  0.00  0.00    -0.019 A 
ATOM     18  C   UNL     1       4.098  -2.920   3.164  0.00  0.00    +0.015 A 
ATOM     19  C   UNL     1       4.270  -2.093   4.277  0.00  0.00    +0.001 A 
ATOM     20  C   UNL     1       3.304  -1.129   4.556  0.00  0.00    +0.119 A 
ATOM     21  N   UNL     1       2.245  -0.997   3.784  0.00  0.00    -0.262 NA
ATOM     22  C   UNL     1       2.058  -1.758   2.723  0.00  0.00    +0.115 A 
BRANCH  19  23
ATOM     23  C   UNL     1       5.461  -2.241   5.149  0.00  0.00    -0.016 A 
ATOM     24  C   UNL     1       6.424  -3.205   4.858  0.00  0.00    +0.011 A 
ATOM     25  C   UNL     1       7.531  -3.339   5.672  0.00  0.00    +0.039 A 
ATOM     26  C   UNL     1       7.685  -2.517   6.776  0.00  0.00    +0.123 A 
ATOM     27  C   UNL     1       6.730  -1.557   7.069  0.00  0.00    +0.039 A 
ATOM     28  C   UNL     1       5.623  -1.412   6.257  0.00  0.00    +0.011 A 
ATOM     29  F   UNL     1       8.770  -2.652   7.570  0.00  0.00    -0.205 F 
ENDBRANCH  19  23
ENDBRANCH   9  17
BRANCH  11  30
ATOM     30  N   UNL     1      -0.851  -4.696   0.982  0.00  0.00    -0.328 N 
ATOM     31  H   UNL     1      -0.816  -5.492   1.536  0.00  0.00    +0.145 HD
ATOM     32  H   UNL     1      -1.690  -4.421   0.581  0.00  0.00    +0.145 HD
ENDBRANCH  11  30
BRANCH  10  33
ATOM     33  C   UNL     1       1.444  -5.553   2.126  0.00  0.00    +0.100 C 
ATOM     34  N   UNL     1       1.442  -6.500   2.754  0.00  0.00    -0.191 NA
ENDBRANCH  10  33
TORSDOF 4
