REMARK  Name = ZINC20752464
REMARK  8 active torsions:
REMARK  status: ('A' for Active; 'I' for Inactive)
REMARK    1  A    between atoms: C_3  and  S_24
REMARK    2  A    between atoms: C_6  and  C_7
REMARK    3  A    between atoms: C_7  and  O_9
REMARK    4  A    between atoms: O_9  and  C_10
REMARK    5  A    between atoms: C_10  and  C_11
REMARK    6  A    between atoms: N_13  and  C_14
REMARK    7  A    between atoms: C_17  and  N_21
REMARK    8  A    between atoms: S_24  and  N_27
REMARK                            x       y       z     vdW  Elec       q    Type
REMARK                         _______ _______ _______ _____ _____    ______ ____
ROOT
ATOM      1  C   UNL     1      -6.038   1.679  -0.380  0.00  0.00    +0.340 C 
ATOM      2  O   UNL     1      -6.208   2.882  -0.386  0.00  0.00    -0.245 OA
ENDROOT
BRANCH   1   8
ATOM      3  C   UNL     1      -7.006  -0.614  -0.480  0.00  0.00    +0.017 A 
ATOM      4  C   UNL     1      -8.094  -1.457  -0.570  0.00  0.00    +0.029 A 
ATOM      5  C   UNL     1      -9.371  -0.936  -0.673  0.00  0.00    +0.106 A 
ATOM      6  C   UNL     1      -9.568   0.434  -0.680  0.00  0.00    +0.029 A 
ATOM      7  C   UNL     1      -8.490   1.289  -0.585  0.00  0.00    +0.017 A 
ATOM      8  C   UNL     1      -7.198   0.769  -0.482  0.00  0.00    +0.059 A 
BRANCH   5   9
ATOM      9  S   UNL     1     -10.754  -2.021  -0.794  0.00  0.00    +0.061 S 
ATOM     10  O   UNL     1     -10.354  -3.256  -0.216  0.00  0.00    -0.153 OA
ATOM     11  O   UNL     1     -11.883  -1.294  -0.330  0.00  0.00    -0.153 OA
BRANCH   9  12
ATOM     12  N   UNL     1     -11.008  -2.313  -2.404  0.00  0.00    -0.177 NA
ATOM     13  C   UNL     1     -11.899  -1.438  -3.135  0.00  0.00    +0.109 C 
ATOM     14  C   UNL     1     -13.344  -1.971  -3.050  0.00  0.00    +0.017 C 
ATOM     15  C   UNL     1     -13.487  -3.192  -3.857  0.00  0.00    +0.001 C 
ATOM     16  C   UNL     1     -12.624  -4.360  -3.387  0.00  0.00    +0.001 C 
ATOM     17  C   UNL     1     -11.245  -4.236  -3.987  0.00  0.00    +0.017 C 
ATOM     18  C   UNL     1     -10.321  -3.458  -3.033  0.00  0.00    +0.109 C 
ENDBRANCH   9  12
ENDBRANCH   5   9
ENDBRANCH   1   8
BRANCH   1  19
ATOM     19  O   UNL     1      -4.793   1.175  -0.280  0.00  0.00    -0.452 OA
BRANCH  19  20
ATOM     20  C   UNL     1      -3.702   2.128  -0.184  0.00  0.00    +0.328 C 
BRANCH  20  21
ATOM     21  C   UNL     1      -2.395   1.385  -0.081  0.00  0.00    +0.255 C 
ATOM     22  O   UNL     1      -2.384   0.173  -0.088  0.00  0.00    -0.272 OA
ATOM     23  N   UNL     1      -1.238   2.069   0.019  0.00  0.00    -0.281 N 
ATOM     24  H   UNL     1      -1.253   3.165   0.117  0.00  0.00    +0.155 HD
BRANCH  23  25
ATOM     25  C   UNL     1      -0.016   1.385  -0.001  0.00  0.00    +0.052 A 
ATOM     26  C   UNL     1       0.076   0.144  -0.617  0.00  0.00    +0.027 A 
ATOM     27  C   UNL     1       1.283  -0.526  -0.640  0.00  0.00    +0.034 A 
ATOM     28  C   UNL     1       2.401   0.038  -0.052  0.00  0.00    +0.128 A 
ATOM     29  C   UNL     1       2.313   1.274   0.561  0.00  0.00    +0.054 A 
ATOM     30  C   UNL     1       1.108   1.950   0.589  0.00  0.00    +0.064 A 
ATOM     31 CL   UNL     1       0.999   3.502   1.359  0.00  0.00    -0.082 Cl
BRANCH  28  32
ATOM     32  N   UNL     1       3.693  -0.683  -0.080  0.00  0.00    +0.056 N 
ATOM     33  O   UNL     1       3.771  -1.772  -0.620  0.00  0.00    -0.126 OA
ATOM     34  O   UNL     1       4.678  -0.188   0.438  0.00  0.00    -0.126 OA
ENDBRANCH  28  32
ENDBRANCH  23  25
ENDBRANCH  20  21
ENDBRANCH  19  20
ENDBRANCH   1  19
TORSDOF 8
