REMARK  Name = ZINC46575770
REMARK  6 active torsions:
REMARK  status: ('A' for Active; 'I' for Inactive)
REMARK    1  A    between atoms: C_1  and  C_2
REMARK    2  A    between atoms: C_2  and  C_4
REMARK    3  A    between atoms: C_2  and  N_16
REMARK    4  A    between atoms: C_7  and  C_10
REMARK    5  A    between atoms: C_17  and  C_19
REMARK    6  A    between atoms: C_23  and  C_24
REMARK                            x       y       z     vdW  Elec       q    Type
REMARK                         _______ _______ _______ _____ _____    ______ ____
ROOT
ATOM      1  N   UNL     1       0.564  -0.606   1.331  0.00  0.00    -0.305 N 
ATOM      2  C   UNL     1       1.906  -0.685   1.236  0.00  0.00    +0.248 C 
ATOM      3  O   UNL     1       2.460  -0.393   0.194  0.00  0.00    -0.270 OA
ATOM      4  H   UNL     1       0.121  -0.839   2.163  0.00  0.00    +0.150 HD
ENDROOT
BRANCH   2   5
ATOM      5  C   UNL     1       2.702  -1.126   2.396  0.00  0.00    +0.086 A 
ATOM      6  C   UNL     1       2.201  -1.502   3.663  0.00  0.00    +0.148 A 
ATOM      7  N   UNL     1       3.214  -1.827   4.418  0.00  0.00    -0.172 NA
ATOM      8  N   UNL     1       4.395  -1.679   3.682  0.00  0.00    -0.208 N 
ATOM      9  C   UNL     1       4.075  -1.254   2.446  0.00  0.00    +0.161 A 
ATOM     10  C   UNL     1       5.689  -1.932   4.151  0.00  0.00    +0.177 A 
ATOM     11  C   UNL     1       5.980  -1.794   5.508  0.00  0.00    +0.055 A 
ATOM     12  C   UNL     1       7.274  -2.056   5.924  0.00  0.00    +0.077 A 
ATOM     13  C   UNL     1       8.205  -2.441   4.961  0.00  0.00    +0.289 A 
ATOM     14  O   UNL     1       9.486  -2.708   5.322  0.00  0.00    -0.264 OA
ATOM     15  N   UNL     1       7.838  -2.546   3.695  0.00  0.00    -0.105 NA
ATOM     16  N   UNL     1       6.637  -2.308   3.310  0.00  0.00    -0.126 NA
BRANCH   9  17
ATOM     17  C   UNL     1       5.039  -0.970   1.323  0.00  0.00    +0.435 C 
ATOM     18  F   UNL     1       5.141  -2.095   0.499  0.00  0.00    -0.164 F 
ATOM     19  F   UNL     1       4.575   0.117   0.573  0.00  0.00    -0.164 F 
ATOM     20  F   UNL     1       6.297  -0.665   1.854  0.00  0.00    -0.164 F 
ENDBRANCH   9  17
ENDBRANCH   2   5
BRANCH   1  22
ATOM     21  C   UNL     1      -0.286   1.361   0.151  0.00  0.00    +0.033 C 
ATOM     22  C   UNL     1      -0.228  -0.168   0.179  0.00  0.00    +0.100 C 
BRANCH  22  23
ATOM     23  C   UNL     1      -1.625  -0.722   0.289  0.00  0.00    -0.027 A 
ATOM     24  C   UNL     1      -2.259  -0.752   1.518  0.00  0.00    +0.006 A 
ATOM     25  C   UNL     1      -3.539  -1.258   1.624  0.00  0.00    +0.009 A 
ATOM     26  C   UNL     1      -4.191  -1.740   0.491  0.00  0.00    -0.018 A 
ATOM     27  C   UNL     1      -3.548  -1.707  -0.744  0.00  0.00    +0.009 A 
ATOM     28  C   UNL     1      -2.270  -1.193  -0.840  0.00  0.00    +0.006 A 
BRANCH  26  29
ATOM     29  C   UNL     1      -5.567  -2.286   0.600  0.00  0.00    -0.018 A 
ATOM     30  C   UNL     1      -6.213  -2.314   1.834  0.00  0.00    +0.008 A 
ATOM     31  C   UNL     1      -7.492  -2.822   1.929  0.00  0.00    +0.001 A 
ATOM     32  C   UNL     1      -8.133  -3.304   0.802  0.00  0.00    +0.000 A 
ATOM     33  C   UNL     1      -7.497  -3.279  -0.426  0.00  0.00    +0.001 A 
ATOM     34  C   UNL     1      -6.220  -2.767  -0.534  0.00  0.00    +0.008 A 
ENDBRANCH  26  29
ENDBRANCH  22  23
ENDBRANCH   1  22
TORSDOF 5
