REMARK  Name = ZINC15683266
REMARK  9 active torsions:
REMARK  status: ('A' for Active; 'I' for Inactive)
REMARK    1  A    between atoms: C_1  and  C_2
REMARK    2  A    between atoms: C_2  and  C_4
REMARK    3  A    between atoms: C_2  and  O_17
REMARK    4  A    between atoms: N_6  and  C_7
REMARK    5  A    between atoms: C_12  and  C_13
REMARK    6  A    between atoms: O_17  and  C_18
REMARK    7  A    between atoms: C_18  and  C_20
REMARK    8  A    between atoms: C_23  and  N_29
REMARK    9  A    between atoms: C_24  and  N_26
REMARK                            x       y       z     vdW  Elec       q    Type
REMARK                         _______ _______ _______ _____ _____    ______ ____
ROOT
ATOM      1  O   UNL     1      -3.492   3.446   0.228  0.00  0.00    -0.449 OA
ENDROOT
BRANCH   1   3
ATOM      2  C   UNL     1      -5.181   4.424   1.684  0.00  0.00    +0.062 C 
ATOM      3  C   UNL     1      -4.752   4.167   0.238  0.00  0.00    +0.259 C 
BRANCH   3   4
ATOM      4  C   UNL     1      -5.806   3.346  -0.460  0.00  0.00    +0.258 C 
ATOM      5  O   UNL     1      -5.548   2.224  -0.840  0.00  0.00    -0.271 OA
ATOM      6  N   UNL     1      -7.036   3.860  -0.661  0.00  0.00    -0.282 N 
ATOM      7  H   UNL     1      -7.218   4.785  -0.435  0.00  0.00    +0.155 HD
BRANCH   6   8
ATOM      8  C   UNL     1      -8.050   3.058  -1.196  0.00  0.00    +0.045 A 
ATOM      9  C   UNL     1      -7.995   1.677  -1.051  0.00  0.00    +0.024 A 
ATOM     10  C   UNL     1      -8.999   0.889  -1.576  0.00  0.00    +0.002 A 
ATOM     11  C   UNL     1     -10.054   1.471  -2.255  0.00  0.00    +0.001 A 
ATOM     12  C   UNL     1     -10.109   2.845  -2.406  0.00  0.00    +0.014 A 
ATOM     13  C   UNL     1      -9.110   3.639  -1.878  0.00  0.00    +0.076 A 
BRANCH  13  14
ATOM     14  C   UNL     1      -9.170   5.136  -2.044  0.00  0.00    +0.419 C 
ATOM     15  F   UNL     1     -10.322   5.480  -2.760  0.00  0.00    -0.166 F 
ATOM     16  F   UNL     1      -9.205   5.743  -0.784  0.00  0.00    -0.166 F 
ATOM     17  F   UNL     1      -8.039   5.574  -2.741  0.00  0.00    -0.166 F 
ENDBRANCH  13  14
ENDBRANCH   6   8
ENDBRANCH   3   4
ENDBRANCH   1   3
BRANCH   1  18
ATOM     18  C   UNL     1      -2.365   4.184   0.215  0.00  0.00    +0.340 C 
ATOM     19  O   UNL     1      -2.433   5.397   0.212  0.00  0.00    -0.245 OA
BRANCH  18  20
ATOM     20  C   UNL     1      -1.049   3.520   0.204  0.00  0.00    +0.061 A 
ATOM     21  C   UNL     1      -0.969   2.124   0.201  0.00  0.00    +0.017 A 
ATOM     22  C   UNL     1       0.251   1.509   0.196  0.00  0.00    +0.026 A 
ATOM     23  C   UNL     1       1.418   2.268   0.183  0.00  0.00    +0.060 A 
ATOM     24  C   UNL     1       1.348   3.659   0.180  0.00  0.00    +0.148 A 
ATOM     25  C   UNL     1       0.122   4.285   0.191  0.00  0.00    +0.049 A 
BRANCH  23  26
ATOM     26  N   UNL     1       2.656   1.636   0.173  0.00  0.00    -0.328 N 
ATOM     27  C   UNL     1       2.792   0.711   1.327  0.00  0.00    +0.105 C 
ATOM     28  C   UNL     1       3.924  -0.249   0.881  0.00  0.00    +0.020 C 
ATOM     29  C   UNL     1       3.649  -0.429  -0.630  0.00  0.00    +0.020 C 
ATOM     30  C   UNL     1       2.814   0.799  -1.036  0.00  0.00    +0.105 C 
ENDBRANCH  23  26
BRANCH  24  31
ATOM     31  N   UNL     1       2.590   4.463   0.167  0.00  0.00    +0.058 N 
ATOM     32  O   UNL     1       2.531   5.676   0.257  0.00  0.00    -0.126 OA
ATOM     33  O   UNL     1       3.672   3.912   0.065  0.00  0.00    -0.126 OA
ENDBRANCH  24  31
ENDBRANCH  18  20
ENDBRANCH   1  18
TORSDOF 8
