REMARK  Name = ZINC43263708
REMARK  7 active torsions:
REMARK  status: ('A' for Active; 'I' for Inactive)
REMARK    1  A    between atoms: C_1  and  C_2
REMARK    2  A    between atoms: C_2  and  C_3
REMARK    3  A    between atoms: C_3  and  C_5
REMARK    4  A    between atoms: C_3  and  N_22
REMARK    5  A    between atoms: C_5  and  C_7
REMARK    6  A    between atoms: C_5  and  O_13
REMARK    7  A    between atoms: O_13  and  C_14
REMARK                            x       y       z     vdW  Elec       q    Type
REMARK                         _______ _______ _______ _____ _____    ______ ____
ROOT
ATOM      1  C   UNL     1       0.872  -2.049   1.175  0.00  0.00    +0.196 C 
ENDROOT
BRANCH   1   2
ATOM      2  C   UNL     1       1.554  -2.638   2.383  0.00  0.00    +0.029 A 
ATOM      3  C   UNL     1       1.003  -3.220   3.475  0.00  0.00    +0.016 A 
ATOM      4  C   UNL     1       1.833  -3.696   4.473  0.00  0.00    +0.023 A 
ATOM      5  C   UNL     1       3.176  -3.565   4.329  0.00  0.00    +0.055 A 
ATOM      6  S   UNL     1       3.299  -2.757   2.741  0.00  0.00    -0.083 S 
ATOM      7 BR   UNL     1       4.558  -4.106   5.500  0.00  0.00    -0.043 Br
ENDBRANCH   1   2
BRANCH   1   8
ATOM      8  C   UNL     1       0.818  -0.526   1.312  0.00  0.00    -0.029 C 
BRANCH   8   9
ATOM      9  N   UNL     1       0.065  -0.170   2.523  0.00  0.00    +0.383 N 
ATOM     10  H   UNL     1      -0.873  -0.535   2.455  0.00  0.00    -0.089 HD
ATOM     11  H   UNL     1       0.522  -0.564   3.331  0.00  0.00    -0.089 HD
ATOM     12  H   UNL     1       0.029   0.834   2.613  0.00  0.00    -0.089 HD
ENDBRANCH   8   9
BRANCH   8  14
ATOM     13  C   UNL     1       0.181   1.599   0.163  0.00  0.00    +0.002 C 
ATOM     14  C   UNL     1       0.125   0.072   0.086  0.00  0.00    -0.016 C 
ENDBRANCH   8  14
ENDBRANCH   1   8
BRANCH   1  15
ATOM     15  O   UNL     1       1.604  -2.395  -0.002  0.00  0.00    -0.482 OA
BRANCH  15  16
ATOM     16  C   UNL     1       0.879  -2.713  -1.109  0.00  0.00    +0.157 A 
ATOM     17  C   UNL     1      -0.500  -2.577  -1.097  0.00  0.00    +0.051 A 
ATOM     18  C   UNL     1      -1.235  -2.899  -2.222  0.00  0.00    +0.042 A 
ATOM     19  C   UNL     1      -0.595  -3.359  -3.361  0.00  0.00    +0.126 A 
ATOM     20  C   UNL     1       0.782  -3.496  -3.375  0.00  0.00    +0.080 A 
ATOM     21  C   UNL     1       1.522  -3.168  -2.253  0.00  0.00    +0.168 A 
ATOM     22  F   UNL     1       2.866  -3.296  -2.268  0.00  0.00    -0.202 F 
ATOM     23  F   UNL     1      -1.316  -3.675  -4.459  0.00  0.00    -0.205 F 
ENDBRANCH  15  16
ENDBRANCH   1  15
TORSDOF 6
