REMARK  Name = ZINC39933717
REMARK  6 active torsions:
REMARK  status: ('A' for Active; 'I' for Inactive)
REMARK    1  A    between atoms: C_1  and  C_2
REMARK    2  A    between atoms: N_16  and  N_17
REMARK    3  A    between atoms: C_18  and  C_19
REMARK    4  A    between atoms: C_28  and  C_29
REMARK    5  A    between atoms: C_28  and  C_30
REMARK    6  A    between atoms: C_32  and  C_34
REMARK                            x       y       z     vdW  Elec       q    Type
REMARK                         _______ _______ _______ _____ _____    ______ ____
ROOT
ATOM      1  C   UNL     1      -0.018   1.503   0.010  0.00  0.00    +0.044 C 
ATOM      2  C   UNL     1       0.002  -0.004   0.002  0.00  0.00    -0.050 A 
ATOM      3  C   UNL     1       0.005  -0.672  -1.230  0.00  0.00    +0.005 A 
ATOM      4  C   UNL     1       0.030  -2.022  -1.308  0.00  0.00    +0.026 A 
ATOM      5  C   UNL     1       0.053  -2.812  -0.071  0.00  0.00    +0.046 A 
ATOM      6  N   UNL     1       0.047  -4.107   0.140  0.00  0.00    -0.358 N 
ATOM      7  C   UNL     1       0.206  -4.351   1.563  0.00  0.00    +0.253 C 
ATOM      8  C   UNL     1       0.045  -2.999   2.235  0.00  0.00    +0.115 C 
ATOM      9  C   UNL     1       0.037  -2.075   1.218  0.00  0.00    +0.025 A 
ATOM     10  C   UNL     1       0.022  -0.662   1.184  0.00  0.00    +0.015 A 
ATOM     11  N   UNL     1      -0.183  -2.889   3.546  0.00  0.00    -0.171 NA
ATOM     12  N   UNL     1      -0.778  -3.903   4.097  0.00  0.00    -0.247 N 
ATOM     13  C   UNL     1      -1.200  -4.970   3.376  0.00  0.00    +0.227 C 
ATOM     14  N   UNL     1      -0.802  -5.231   2.152  0.00  0.00    -0.220 NA
ATOM     15  N   UNL     1      -2.099  -5.838   3.964  0.00  0.00    -0.206 N 
ATOM     16  H   UNL     1      -2.409  -5.674   4.869  0.00  0.00    +0.177 HD
ATOM     17  H   UNL     1      -0.925  -3.897   5.056  0.00  0.00    +0.192 HD
ATOM     18  H   UNL     1      -0.048  -4.789  -0.543  0.00  0.00    +0.162 HD
ENDROOT
BRANCH  15  19
ATOM     19  N   UNL     1      -2.561  -6.954   3.255  0.00  0.00    -0.192 NA
ATOM     20  C   UNL     1      -3.394  -7.758   3.801  0.00  0.00    +0.107 C 
BRANCH  20  21
ATOM     21  C   UNL     1      -3.892  -8.959   3.038  0.00  0.00    +0.035 C 
ATOM     22  C   UNL     1      -3.514 -10.235   3.794  0.00  0.00    +0.017 C 
ATOM     23  C   UNL     1      -3.956 -11.456   2.983  0.00  0.00    +0.021 C 
ATOM     24  C   UNL     1      -5.419 -11.340   2.668  0.00  0.00    -0.070 C 
ATOM     25  C   UNL     1      -6.289 -12.278   2.902  0.00  0.00    -0.027 C 
ATOM     26  C   UNL     1      -5.928 -13.595   3.527  0.00  0.00    +0.028 C 
ATOM     27  C   UNL     1      -4.456 -13.901   3.230  0.00  0.00    +0.011 C 
ATOM     28  C   UNL     1      -3.624 -12.731   3.739  0.00  0.00    -0.028 C 
ATOM     29  C   UNL     1      -3.897 -12.518   5.230  0.00  0.00    +0.011 C 
ATOM     30  C   UNL     1      -2.143 -13.062   3.542  0.00  0.00    +0.011 C 
ATOM     31  C   UNL     1      -5.909 -10.046   2.040  0.00  0.00    +0.034 C 
ATOM     32  C   UNL     1      -5.413  -8.877   2.896  0.00  0.00    -0.002 C 
ATOM     33  C   UNL     1      -5.791  -7.556   2.222  0.00  0.00    +0.008 C 
ENDBRANCH  20  21
ENDBRANCH  15  19
TORSDOF 2
