REMARK  Name = ZINC12882297
REMARK  18 active torsions:
REMARK  status: ('A' for Active; 'I' for Inactive)
REMARK    1  A    between atoms: C_1  and  C_2
REMARK    2  A    between atoms: C_2  and  C_3
REMARK    3  A    between atoms: C_2  and  C_4
REMARK    4  A    between atoms: C_4  and  C_6
REMARK    5  A    between atoms: C_4  and  N_27
REMARK    6  A    between atoms: N_8  and  C_9
REMARK    7  A    between atoms: C_9  and  C_10
REMARK    8  A    between atoms: C_13  and  C_16
REMARK    9  A    between atoms: N_18  and  CA_19
REMARK   10  A    between atoms: CA_19  and  CB_21
REMARK   11  A    between atoms: CA_19  and  C_25
REMARK   12  A    between atoms: CB_21  and  CG2_23
REMARK   13  A    between atoms: CB_21  and  OG1_24
REMARK   14  A    between atoms: C_28  and  O_30
REMARK   15  A    between atoms: O_30  and  C_31
REMARK   16  A    between atoms: C_31  and  C_32
REMARK   17  A    between atoms: C_31  and  C_33
REMARK   18  A    between atoms: C_31  and  C_34
REMARK                            x       y       z     vdW  Elec       q    Type
REMARK                         _______ _______ _______ _____ _____    ______ ____
ROOT
ATOM      1  C   UNK A   0      -1.665   5.563   0.159  0.00  0.00    +0.107 C 
ENDROOT
BRANCH   1   2
ATOM      2  C   UNK A   0      -2.473   5.963  -1.077  0.00  0.00    +0.006 C 
ATOM      3  C   UNK A   0      -1.697   5.581  -2.339  0.00  0.00    +0.006 C 
ATOM      4  C   UNK A   0      -2.504   5.981  -3.575  0.00  0.00    +0.013 C 
ATOM      5  C   UNK A   0      -2.742   7.493  -3.561  0.00  0.00    +0.075 C 
ATOM      6  C   UNK A   0      -3.518   7.875  -2.299  0.00  0.00    +0.013 C 
ATOM      7  C   UNK A   0      -2.710   7.475  -1.063  0.00  0.00    +0.006 C 
BRANCH   5   8
ATOM      8  C   UNK A   0      -3.537   7.887  -4.779  0.00  0.00    +0.217 C 
ATOM      9  O   UNK A   0      -4.618   8.422  -4.650  0.00  0.00    -0.275 OA
ATOM     10  N   THR A   1      -3.047   7.646  -6.011  0.00  0.00    -0.300 N 
ATOM     11  H   THR A   1      -2.183   7.218  -6.114  0.00  0.00    +0.150 HD
BRANCH  10  12
ATOM     12  CA  THR A   1      -3.820   8.030  -7.195  0.00  0.00    +0.215 C 
BRANCH  12  13
ATOM     13  C   THR A   1      -3.419   7.162  -8.360  0.00  0.00    +0.378 C 
ATOM     14  O   THR A   1      -2.574   6.311  -8.216  0.00  0.00    -0.244 OA
ATOM     15  OXT THR A   1      -4.000   7.335  -9.557  0.00  0.00    -0.244 OA
ENDBRANCH  12  13
BRANCH  12  16
ATOM     16  CB  THR A   1      -3.543   9.496  -7.532  0.00  0.00    +0.143 C 
ATOM     17  CG2 THR A   1      -3.833  10.365  -6.306  0.00  0.00    +0.040 C 
BRANCH  16  18
ATOM     18  OG1 THR A   1      -2.174   9.648  -7.910  0.00  0.00    -0.390 OA
ATOM     19  HG1 THR A   1      -1.926  10.555  -8.137  0.00  0.00    +0.210 HD
ENDBRANCH  16  18
ENDBRANCH  12  16
ENDBRANCH  10  12
ENDBRANCH   5   8
ENDBRANCH   1   2
BRANCH   1  22
ATOM     20  C   UNK A   0      -0.864   3.520   1.218  0.00  0.00    +0.234 C 
ATOM     21  O   UNK A   0      -0.360   4.202   2.085  0.00  0.00    -0.274 OA
ATOM     22  N   UNK A   0      -1.540   4.104   0.209  0.00  0.00    -0.314 N 
ATOM     23  H   UNK A   0      -1.943   3.559  -0.484  0.00  0.00    +0.149 HD
BRANCH  20  24
ATOM     24  C   UNK A   0      -0.735   2.019   1.269  0.00  0.00    +0.165 C 
BRANCH  24  25
ATOM     25  N   UNK A   0       0.038   1.636   2.453  0.00  0.00    -0.270 N 
ATOM     26  C   UNK A   0      -0.124   0.413   2.997  0.00  0.00    +0.401 C 
ATOM     27  O   UNK A   0      -0.911  -0.371   2.505  0.00  0.00    -0.226 OA
ATOM     28  H   UNK A   0       0.667   2.261   2.846  0.00  0.00    +0.153 HD
BRANCH  26  29
ATOM     29  O   UNK A   0       0.587   0.060   4.084  0.00  0.00    -0.445 OA
BRANCH  29  30
ATOM     30  C   UNK A   0       0.361  -1.272   4.616  0.00  0.00    +0.107 C 
ATOM     31  C   UNK A   0       0.702  -2.312   3.547  0.00  0.00    +0.055 C 
ATOM     32  C   UNK A   0       1.250  -1.489   5.842  0.00  0.00    +0.055 C 
ATOM     33  C   UNK A   0      -1.108  -1.418   5.019  0.00  0.00    +0.055 C 
ENDBRANCH  29  30
ENDBRANCH  26  29
ENDBRANCH  24  25
BRANCH  24  35
ATOM     34  C   UNK A   0       0.002  -0.004   0.002  0.00  0.00    +0.009 C 
ATOM     35  C   UNK A   0      -0.019   1.526   0.010  0.00  0.00    +0.012 C 
ATOM     36  C   UNK A   0       1.417   2.055  -0.000  0.00  0.00    +0.009 C 
ENDBRANCH  24  35
ENDBRANCH  20  24
ENDBRANCH   1  22
TORSDOF 12
