REMARK  Name = ZINC33752367
REMARK  8 active torsions:
REMARK  status: ('A' for Active; 'I' for Inactive)
REMARK    1  A    between atoms: C_1  and  C_2
REMARK    2  A    between atoms: C_5  and  C_19
REMARK    3  A    between atoms: C_6  and  C_7
REMARK    4  A    between atoms: C_6  and  C_8
REMARK    5  A    between atoms: N_21  and  C_22
REMARK    6  A    between atoms: C_23  and  C_31
REMARK    7  A    between atoms: C_31  and  O_33
REMARK    8  A    between atoms: O_33  and  C_34
REMARK                            x       y       z     vdW  Elec       q    Type
REMARK                         _______ _______ _______ _____ _____    ______ ____
ROOT
ATOM      1  C   UNL     1      -0.019   1.526   0.010  0.00  0.00    +0.018 C 
ATOM      2  C   UNL     1       0.002  -0.004   0.002  0.00  0.00    +0.018 C 
ATOM      3  C   UNL     1       0.742  -0.677  -1.197  0.00  0.00    +0.015 C 
ATOM      4  C   UNL     1       1.004  -2.123  -0.714  0.00  0.00    +0.024 C 
ATOM      5  C   UNL     1       0.393  -2.161   0.722  0.00  0.00    +0.097 C 
ATOM      6  C   UNL     1       0.727  -0.704   1.210  0.00  0.00    -0.005 C 
ATOM      7  C   UNL     1       2.234  -0.443   1.214  0.00  0.00    +0.013 C 
ATOM      8  C   UNL     1       0.082  -0.359   2.554  0.00  0.00    +0.013 C 
ATOM      9  C   UNL     1      -1.115  -2.027   0.495  0.00  0.00    +0.079 A 
ATOM     10  C   UNL     1      -1.360  -0.699   0.069  0.00  0.00    +0.071 A 
ATOM     11  N   UNL     1      -2.569  -0.283  -0.202  0.00  0.00    -0.248 NA
ATOM     12  C   UNL     1      -3.604  -1.119  -0.050  0.00  0.00    +0.090 A 
ATOM     13  C   UNL     1      -4.917  -0.705  -0.332  0.00  0.00    +0.030 A 
ATOM     14  C   UNL     1      -5.949  -1.575  -0.166  0.00  0.00    +0.002 A 
ATOM     15  C   UNL     1      -5.725  -2.877   0.279  0.00  0.00    +0.002 A 
ATOM     16  C   UNL     1      -4.468  -3.314   0.560  0.00  0.00    +0.030 A 
ATOM     17  C   UNL     1      -3.376  -2.444   0.401  0.00  0.00    +0.090 A 
ATOM     18  N   UNL     1      -2.100  -2.874   0.637  0.00  0.00    -0.247 NA
ENDROOT
BRANCH   5  19
ATOM     19  C   UNL     1       0.850  -3.290   1.610  0.00  0.00    +0.230 C 
ATOM     20  O   UNL     1       1.426  -3.048   2.650  0.00  0.00    -0.274 OA
ATOM     21  N   UNL     1       0.618  -4.567   1.249  0.00  0.00    -0.279 N 
ATOM     22  H   UNL     1       0.157  -4.761   0.418  0.00  0.00    +0.155 HD
BRANCH  21  23
ATOM     23  C   UNL     1       1.038  -5.606   2.066  0.00  0.00    +0.086 A 
ATOM     24  C   UNL     1       0.892  -6.969   1.856  0.00  0.00    +0.091 A 
ATOM     25  C   UNL     1       1.426  -7.858   2.874  0.00  0.00    -0.021 A 
ATOM     26  C   UNL     1       2.005  -7.222   3.914  0.00  0.00    -0.004 A 
ATOM     27  S   UNL     1       1.846  -5.502   3.534  0.00  0.00    -0.077 S 
ATOM     28  C   UNL     1       2.641  -7.854   5.114  0.00  0.00    +0.043 C 
ATOM     29  C   UNL     1       2.205  -9.325   5.172  0.00  0.00    +0.005 C 
ATOM     30  C   UNL     1       2.390  -9.952   3.787  0.00  0.00    +0.005 C 
ATOM     31  C   UNL     1       1.360  -9.377   2.812  0.00  0.00    +0.037 C 
BRANCH  24  32
ATOM     32  C   UNL     1       0.229  -7.490   0.658  0.00  0.00    +0.342 C 
ATOM     33  O   UNL     1       0.879  -7.727  -0.342  0.00  0.00    -0.245 OA
BRANCH  32  34
ATOM     34  O   UNL     1      -1.102  -7.706   0.665  0.00  0.00    -0.464 OA
ATOM     35  C   UNL     1      -1.683  -8.215  -0.537  0.00  0.00    +0.280 C 
ENDBRANCH  32  34
ENDBRANCH  24  32
ENDBRANCH  21  23
ENDBRANCH   5  19
TORSDOF 4
