REMARK  Name = ZINC20235159
REMARK  11 active torsions:
REMARK  status: ('A' for Active; 'I' for Inactive)
REMARK    1  A    between atoms: C_1  and  C_2
REMARK    2  A    between atoms: C_5  and  S_8
REMARK    3  A    between atoms: S_8  and  N_11
REMARK    4  A    between atoms: N_11  and  C_12
REMARK    5  A    between atoms: N_11  and  C_25
REMARK    6  A    between atoms: C_12  and  C_13
REMARK    7  A    between atoms: N_15  and  C_16
REMARK    8  A    between atoms: C_19  and  O_23
REMARK    9  A    between atoms: O_23  and  C_24
REMARK   10  A    between atoms: C_27  and  C_32
REMARK   11  A    between atoms: C_29  and  C_31
REMARK                            x       y       z     vdW  Elec       q    Type
REMARK                         _______ _______ _______ _____ _____    ______ ____
ROOT
ATOM      1  N   UNL     1      -6.023   2.984  -0.210  0.00  0.00    -0.194 N 
ENDROOT
BRANCH   1   2
ATOM      2  C   UNL     1      -6.496   2.433  -1.403  0.00  0.00    +0.052 A 
ATOM      3  C   UNL     1      -7.766   1.872  -1.456  0.00  0.00    +0.028 A 
ATOM      4  C   UNL     1      -8.232   1.332  -2.638  0.00  0.00    -0.048 A 
ATOM      5  C   UNL     1      -7.433   1.340  -3.767  0.00  0.00    +0.006 A 
ATOM      6  C   UNL     1      -6.166   1.893  -3.716  0.00  0.00    -0.048 A 
ATOM      7  C   UNL     1      -5.696   2.439  -2.539  0.00  0.00    +0.028 A 
ATOM      8  C   UNL     1      -5.299   1.900  -4.949  0.00  0.00    +0.044 C 
ATOM      9  C   UNL     1      -9.612   0.728  -2.698  0.00  0.00    +0.044 C 
ENDBRANCH   1   2
BRANCH   1  10
ATOM     10  S   UNL     1      -6.614   2.448   1.241  0.00  0.00    +0.075 S 
ATOM     11  O   UNL     1      -7.042   1.108   1.035  0.00  0.00    -0.150 OA
ATOM     12  O   UNL     1      -5.651   2.797   2.225  0.00  0.00    -0.150 OA
BRANCH  10  17
ATOM     13  C   UNL     1     -11.567   5.673   2.453  0.00  0.00    +0.044 C 
ATOM     14  C   UNL     1     -10.330   4.867   2.151  0.00  0.00    -0.050 A 
ATOM     15  C   UNL     1     -10.444   3.618   1.571  0.00  0.00    +0.005 A 
ATOM     16  C   UNL     1      -9.309   2.879   1.293  0.00  0.00    +0.029 A 
ATOM     17  C   UNL     1      -8.060   3.390   1.595  0.00  0.00    +0.109 A 
ATOM     18  C   UNL     1      -7.947   4.637   2.179  0.00  0.00    +0.029 A 
ATOM     19  C   UNL     1      -9.082   5.378   2.452  0.00  0.00    +0.005 A 
ENDBRANCH  10  17
ENDBRANCH   1  10
BRANCH   1  20
ATOM     20  C   UNL     1      -5.005   4.036  -0.243  0.00  0.00    +0.227 C 
BRANCH  20  21
ATOM     21  C   UNL     1      -3.637   3.409  -0.327  0.00  0.00    +0.236 C 
ATOM     22  O   UNL     1      -3.524   2.202  -0.356  0.00  0.00    -0.274 OA
ATOM     23  N   UNL     1      -2.539   4.190  -0.369  0.00  0.00    -0.284 N 
ATOM     24  H   UNL     1      -2.635   5.280  -0.261  0.00  0.00    +0.155 HD
BRANCH  23  25
ATOM     25  C   UNL     1      -1.276   3.613  -0.550  0.00  0.00    +0.035 A 
ATOM     26  C   UNL     1      -0.305   4.281  -1.285  0.00  0.00    +0.027 A 
ATOM     27  C   UNL     1       0.938   3.709  -1.467  0.00  0.00    +0.049 A 
ATOM     28  C   UNL     1       1.223   2.472  -0.908  0.00  0.00    +0.138 A 
ATOM     29  C   UNL     1       0.256   1.806  -0.169  0.00  0.00    +0.084 A 
ATOM     30  C   UNL     1      -0.991   2.375   0.011  0.00  0.00    +0.047 A 
ATOM     31 CL   UNL     1       0.612   0.258   0.531  0.00  0.00    -0.080 Cl
BRANCH  28  32
ATOM     32  O   UNL     1       2.450   1.913  -1.084  0.00  0.00    -0.494 OA
ATOM     33  C   UNL     1       3.396   2.654  -1.856  0.00  0.00    +0.277 C 
ENDBRANCH  28  32
ENDBRANCH  23  25
ENDBRANCH  20  21
ENDBRANCH   1  20
TORSDOF 7
