REMARK  Name = ZINC14550689
REMARK  7 active torsions:
REMARK  status: ('A' for Active; 'I' for Inactive)
REMARK    1  A    between atoms: C_1  and  C_2
REMARK    2  A    between atoms: C_5  and  N_9
REMARK    3  A    between atoms: C_7  and  C_8
REMARK    4  A    between atoms: N_9  and  S_10
REMARK    5  A    between atoms: S_10  and  C_13
REMARK    6  A    between atoms: C_26  and  C_29
REMARK    7  A    between atoms: C_32  and  N_35
REMARK                            x       y       z     vdW  Elec       q    Type
REMARK                         _______ _______ _______ _____ _____    ______ ____
ROOT
ATOM      1  C   UNL     1      -4.160   5.183   2.071  0.00  0.00    +0.109 A 
ATOM      2  C   UNL     1      -2.978   5.812   2.416  0.00  0.00    +0.030 A 
ATOM      3  C   UNL     1      -2.512   6.872   1.665  0.00  0.00    +0.025 A 
ATOM      4  C   UNL     1      -3.230   7.321   0.564  0.00  0.00    +0.031 A 
ATOM      5  C   UNL     1      -4.434   6.690   0.230  0.00  0.00    -0.018 A 
ATOM      6  C   UNL     1      -4.887   5.628   0.982  0.00  0.00    +0.034 A 
ATOM      7  C   UNL     1      -5.182   7.216  -0.932  0.00  0.00    +0.049 C 
ATOM      8  C   UNL     1      -6.102   6.362  -1.725  0.00  0.00    -0.023 C 
ATOM      9  C   UNL     1      -6.100   6.789  -2.982  0.00  0.00    -0.030 C 
ATOM     10  C   UNL     1      -5.133   7.965  -3.133  0.00  0.00    +0.033 C 
ATOM     11  C   UNL     1      -4.145   7.700  -1.989  0.00  0.00    +0.029 C 
ATOM     12  C   UNL     1      -3.465   8.906  -1.366  0.00  0.00    +0.105 C 
ATOM     13  N   UNL     1      -2.728   8.387  -0.193  0.00  0.00    -0.336 N 
ATOM     14  H   UNL     1      -1.883   8.792   0.056  0.00  0.00    +0.147 HD
ENDROOT
BRANCH  12  15
ATOM     15  C   UNL     1      -2.507   9.529  -2.349  0.00  0.00    -0.027 A 
ATOM     16  C   UNL     1      -1.252   8.979  -2.534  0.00  0.00    +0.008 A 
ATOM     17  C   UNL     1      -0.375   9.546  -3.439  0.00  0.00    +0.033 A 
ATOM     18  C   UNL     1      -0.748  10.671  -4.151  0.00  0.00    +0.126 A 
ATOM     19  C   UNL     1      -2.001  11.224  -3.962  0.00  0.00    +0.033 A 
ATOM     20  C   UNL     1      -2.880  10.653  -3.061  0.00  0.00    +0.008 A 
BRANCH  18  21
ATOM     21  N   UNL     1       0.193  11.282  -5.116  0.00  0.00    +0.056 N 
ATOM     22  O   UNL     1      -0.136  12.273  -5.743  0.00  0.00    -0.126 OA
ATOM     23  O   UNL     1       1.297  10.795  -5.282  0.00  0.00    -0.126 OA
ENDBRANCH  18  21
ENDBRANCH  12  15
BRANCH   1  24
ATOM     24  S   UNL     1      -4.745   3.821   3.025  0.00  0.00    +0.072 S 
ATOM     25  O   UNL     1      -6.150   3.761   2.827  0.00  0.00    -0.150 OA
ATOM     26  O   UNL     1      -4.162   3.949   4.314  0.00  0.00    -0.150 OA
BRANCH  24  27
ATOM     27  N   UNL     1      -4.112   2.446   2.353  0.00  0.00    -0.216 N 
ATOM     28  H   UNL     1      -4.700   1.790   1.947  0.00  0.00    +0.174 HD
BRANCH  27  33
ATOM     29  C   UNL     1       1.491   1.573   2.424  0.00  0.00    +0.044 C 
ATOM     30  C   UNL     1       0.002   1.805   2.405  0.00  0.00    -0.047 A 
ATOM     31  C   UNL     1      -0.642   2.252   3.545  0.00  0.00    +0.005 A 
ATOM     32  C   UNL     1      -2.006   2.466   3.531  0.00  0.00    +0.025 A 
ATOM     33  C   UNL     1      -2.732   2.231   2.370  0.00  0.00    +0.048 A 
ATOM     34  C   UNL     1      -2.082   1.789   1.225  0.00  0.00    +0.028 A 
ATOM     35  C   UNL     1      -0.718   1.572   1.248  0.00  0.00    -0.046 A 
ATOM     36  C   UNL     1      -0.013   1.086   0.008  0.00  0.00    +0.044 C 
ENDBRANCH  27  33
ENDBRANCH  24  27
ENDBRANCH   1  24
TORSDOF 5
