REMARK  Name = ZINC47880074
REMARK  6 active torsions:
REMARK  status: ('A' for Active; 'I' for Inactive)
REMARK    1  A    between atoms: C_1  and  C_2
REMARK    2  A    between atoms: C_5  and  C_7
REMARK    3  A    between atoms: C_12  and  N_13
REMARK    4  A    between atoms: N_16  and  C_17
REMARK    5  A    between atoms: C_17  and  C_19
REMARK    6  A    between atoms: C_17  and  C_20
REMARK                            x       y       z     vdW  Elec       q    Type
REMARK                         _______ _______ _______ _____ _____    ______ ____
ROOT
ATOM      1  N   UNL     1       0.091  -4.663  -0.565  0.00  0.00    -0.269 N 
ATOM      2  C   UNL     1       0.194  -5.864  -1.169  0.00  0.00    +0.304 C 
ATOM      3  O   UNL     1       0.198  -6.881  -0.503  0.00  0.00    -0.252 OA
ATOM      4  N   UNL     1       0.292  -5.937  -2.511  0.00  0.00    -0.293 N 
ATOM      5  H   UNL     1       0.025  -3.856  -1.099  0.00  0.00    +0.156 HD
ATOM      6  H   UNL     1       0.289  -5.125  -3.043  0.00  0.00    +0.151 HD
ENDROOT
BRANCH   1  12
ATOM      7  C   UNL     1       0.689  -3.498   1.475  0.00  0.00    +0.060 A 
ATOM      8  C   UNL     1       0.666  -3.424   2.869  0.00  0.00    +0.015 A 
ATOM      9  C   UNL     1       0.050  -4.418   3.600  0.00  0.00    +0.001 A 
ATOM     10  C   UNL     1      -0.546  -5.490   2.958  0.00  0.00    +0.002 A 
ATOM     11  C   UNL     1      -0.530  -5.576   1.580  0.00  0.00    +0.024 A 
ATOM     12  C   UNL     1       0.080  -4.582   0.829  0.00  0.00    +0.047 A 
BRANCH   7  17
ATOM     13  C   UNL     1       3.179   0.643   0.150  0.00  0.00    +0.111 C 
ATOM     14  C   UNL     1       2.417  -0.656   0.111  0.00  0.00    +0.215 A 
ATOM     15  N   UNL     1       2.075  -1.316  -0.959  0.00  0.00    -0.112 NA
ATOM     16  N   UNL     1       1.435  -2.380  -0.623  0.00  0.00    -0.107 NA
ATOM     17  C   UNL     1       1.347  -2.436   0.686  0.00  0.00    +0.250 A 
ATOM     18  O   UNL     1       1.972  -1.347   1.175  0.00  0.00    -0.420 OA
ENDBRANCH   7  17
ENDBRANCH   1  12
BRANCH   4  19
ATOM     19  C   UNL     1       0.404  -7.242  -3.168  0.00  0.00    +0.102 C 
ATOM     20  C   UNL     1      -0.995  -7.770  -3.493  0.00  0.00    +0.033 C 
BRANCH  19  21
ATOM     21  C   UNL     1       1.195  -7.097  -4.442  0.00  0.00    -0.020 A 
ATOM     22  C   UNL     1       1.234  -5.901  -5.091  0.00  0.00    +0.006 A 
ATOM     23  C   UNL     1       1.961  -5.748  -6.270  0.00  0.00    +0.001 A 
ATOM     24  C   UNL     1       2.652  -6.791  -6.808  0.00  0.00    +0.008 A 
ATOM     25  C   UNL     1       2.635  -8.040  -6.166  0.00  0.00    -0.018 A 
ATOM     26  C   UNL     1       1.901  -8.194  -4.963  0.00  0.00    -0.013 A 
ATOM     27  C   UNL     1       1.889  -9.443  -4.319  0.00  0.00    +0.009 A 
ATOM     28  C   UNL     1       2.585 -10.484  -4.853  0.00  0.00    +0.001 A 
ATOM     29  C   UNL     1       3.312 -10.331  -6.032  0.00  0.00    +0.001 A 
ATOM     30  C   UNL     1       3.336  -9.140  -6.691  0.00  0.00    +0.008 A 
ENDBRANCH  19  21
ENDBRANCH   4  19
TORSDOF 4
