REMARK  Name = ZINC15053791
REMARK  4 active torsions:
REMARK  status: ('A' for Active; 'I' for Inactive)
REMARK    1  A    between atoms: C_5  and  C_7
REMARK    2  A    between atoms: N_11  and  C_15
REMARK    3  A    between atoms: C_18  and  S_21
REMARK    4  A    between atoms: S_21  and  N_24
REMARK                            x       y       z     vdW  Elec       q    Type
REMARK                         _______ _______ _______ _____ _____    ______ ____
ROOT
ATOM      1  C   UNL     1       1.240  -2.164  -0.183  0.00  0.00    +0.031 C 
ATOM      2  C   UNL     1       0.091  -2.860   0.004  0.00  0.00    +0.079 C 
ATOM      3  C   UNL     1      -0.111  -4.318   0.119  0.00  0.00    +0.263 C 
ATOM      4  O   UNL     1       0.821  -5.097   0.049  0.00  0.00    -0.269 OA
ATOM      5  N   UNL     1      -1.351  -4.739   0.301  0.00  0.00    -0.215 N 
ATOM      6  C   UNL     1      -2.395  -3.836   0.378  0.00  0.00    +0.165 C 
ATOM      7  N   UNL     1      -3.665  -4.077   0.553  0.00  0.00    -0.279 NA
ATOM      8  S   UNL     1      -1.581  -2.259   0.187  0.00  0.00    -0.049 S 
ATOM      9  H   UNL     1      -4.298  -3.343   0.588  0.00  0.00    +0.189 HD
ENDROOT
BRANCH   1  14
ATOM     10  C   UNL     1       0.192   1.333   0.671  0.00  0.00    +0.001 A 
ATOM     11  C   UNL     1       1.227   2.067   0.116  0.00  0.00    +0.003 A 
ATOM     12  C   UNL     1       2.266   1.429  -0.536  0.00  0.00    +0.039 A 
ATOM     13  C   UNL     1       2.280   0.051  -0.639  0.00  0.00    +0.131 A 
ATOM     14  C   UNL     1       1.236  -0.698  -0.080  0.00  0.00    +0.011 A 
ATOM     15  C   UNL     1       0.189  -0.042   0.578  0.00  0.00    +0.011 A 
ATOM     16  F   UNL     1       3.295  -0.572  -1.276  0.00  0.00    -0.205 F 
ENDBRANCH   1  14
BRANCH   5  17
ATOM     17  C   UNL     1      -1.609  -6.111   0.417  0.00  0.00    +0.044 A 
ATOM     18  C   UNL     1      -1.190  -6.805   1.544  0.00  0.00    +0.026 A 
ATOM     19  C   UNL     1      -1.446  -8.158   1.655  0.00  0.00    +0.030 A 
ATOM     20  C   UNL     1      -2.119  -8.821   0.646  0.00  0.00    +0.105 A 
ATOM     21  C   UNL     1      -2.537  -8.133  -0.478  0.00  0.00    +0.030 A 
ATOM     22  C   UNL     1      -2.289  -6.779  -0.593  0.00  0.00    +0.026 A 
BRANCH  20  23
ATOM     23  S   UNL     1      -2.443 -10.547   0.791  0.00  0.00    +0.056 S 
ATOM     24  O   UNL     1      -2.605 -11.043  -0.531  0.00  0.00    -0.153 OA
ATOM     25  O   UNL     1      -1.471 -11.069   1.687  0.00  0.00    -0.153 OA
BRANCH  23  26
ATOM     26  N   UNL     1      -3.911 -10.708   1.540  0.00  0.00    -0.204 NA
ATOM     27  H   UNL     1      -4.410  -9.919   1.805  0.00  0.00    +0.144 HD
ATOM     28  H   UNL     1      -4.273 -11.591   1.715  0.00  0.00    +0.144 HD
ENDBRANCH  23  26
ENDBRANCH  20  23
ENDBRANCH   5  17
TORSDOF 4
