REMARK  Name = ZINC07797771
REMARK  10 active torsions:
REMARK  status: ('A' for Active; 'I' for Inactive)
REMARK    1  A    between atoms: C_1  and  C_2
REMARK    2  A    between atoms: N_10  and  N_14
REMARK    3  A    between atoms: C_15  and  C_17
REMARK    4  A    between atoms: C_17  and  N_65
REMARK    5  A    between atoms: C_18  and  C_19
REMARK    6  A    between atoms: C_18  and  N_65
REMARK    7  A    between atoms: C_22  and  C_25
REMARK    8  A    between atoms: C_25  and  C_26
REMARK    9  A    between atoms: C_25  and  C_27
REMARK   10  A    between atoms: C_28  and  N_65
REMARK                            x       y       z     vdW  Elec       q    Type
REMARK                         _______ _______ _______ _____ _____    ______ ____
ROOT
ATOM      1  N   UNL     1      -1.927   4.622   9.162  0.00  0.00    -0.225 N 
ATOM      2  C   UNL     1      -1.463   4.091   8.014  0.00  0.00    +0.213 C 
ATOM      3  O   UNL     1      -0.276   3.876   7.881  0.00  0.00    -0.276 OA
ATOM      4  H   UNL     1      -2.876   4.793   9.268  0.00  0.00    +0.173 HD
ENDROOT
BRANCH   1  14
ATOM      5  C   UNL     1       3.042   6.898  14.917  0.00  0.00    +0.007 C 
ATOM      6  C   UNL     1       2.090   7.085  13.735  0.00  0.00    -0.014 C 
ATOM      7  C   UNL     1       2.634   6.334  12.518  0.00  0.00    +0.006 C 
ATOM      8  C   UNL     1       1.686   6.532  11.332  0.00  0.00    +0.035 C 
ATOM      9  C   UNL     1       0.299   6.013  11.693  0.00  0.00    +0.114 C 
ATOM     10  C   UNL     1      -0.246   6.735  12.920  0.00  0.00    +0.035 C 
ATOM     11  C   UNL     1       0.709   6.536  14.099  0.00  0.00    +0.006 C 
ATOM     12  C   UNL     1      -0.645   6.174  10.523  0.00  0.00    +0.263 C 
ATOM     13  O   UNL     1      -0.978   7.209   9.987  0.00  0.00    -0.271 OA
ATOM     14  N   UNL     1      -1.039   4.925  10.203  0.00  0.00    -0.137 N 
ATOM     15  C   UNL     1      -0.482   4.011  11.007  0.00  0.00    +0.326 C 
ATOM     16  O   UNL     1      -0.688   2.816  10.917  0.00  0.00    -0.251 OA
ATOM     17  N   UNL     1       0.336   4.563  11.923  0.00  0.00    -0.284 N 
ATOM     18  H   UNL     1       0.846   4.096  12.603  0.00  0.00    +0.151 HD
ENDBRANCH   1  14
BRANCH   2  19
ATOM     19  C   UNL     1      -2.417   3.765   6.894  0.00  0.00    +0.021 C 
BRANCH  19  20
ATOM     20  N   UNL     1      -1.669   3.085   5.816  0.00  0.00    +0.390 N 
ATOM     21  H   UNL     1      -1.017   2.412   6.236  0.00  0.00    -0.080 HD
BRANCH  20  22
ATOM     22  C   UNL     1      -2.604   2.360   4.931  0.00  0.00    -0.068 C 
ATOM     23  C   UNL     1      -4.104   2.613   5.102  0.00  0.00    -0.017 C 
ATOM     24  C   UNL     1      -3.491   1.296   5.582  0.00  0.00    -0.017 C 
ENDBRANCH  20  22
BRANCH  20  25
ATOM     25  C   UNL     1      -0.899   4.075   5.034  0.00  0.00    -0.042 C 
BRANCH  25  26
ATOM     26  C   UNL     1       0.020   3.341   4.091  0.00  0.00    -0.064 A 
ATOM     27  C   UNL     1      -0.408   3.025   2.816  0.00  0.00    +0.002 A 
ATOM     28  C   UNL     1       0.434   2.352   1.951  0.00  0.00    +0.004 A 
ATOM     29  C   UNL     1       1.705   1.996   2.361  0.00  0.00    -0.045 A 
ATOM     30  C   UNL     1       2.132   2.308   3.639  0.00  0.00    +0.004 A 
ATOM     31  C   UNL     1       1.291   2.985   4.502  0.00  0.00    +0.002 A 
BRANCH  29  32
ATOM     32  C   UNL     1       2.624   1.262   1.419  0.00  0.00    +0.013 C 
ATOM     33  C   UNL     1       3.006  -0.089   2.026  0.00  0.00    +0.012 C 
ATOM     34  C   UNL     1       3.888   2.093   1.188  0.00  0.00    +0.012 C 
ENDBRANCH  29  32
ENDBRANCH  25  26
ENDBRANCH  20  25
ENDBRANCH  19  20
ENDBRANCH   2  19
TORSDOF 7
