REMARK  Name = ZINC38732211
REMARK  5 active torsions:
REMARK  status: ('A' for Active; 'I' for Inactive)
REMARK    1  A    between atoms: C_4  and  C_7
REMARK    2  A    between atoms: C_7  and  C_9
REMARK    3  A    between atoms: C_7  and  N_16
REMARK    4  A    between atoms: C_17  and  C_19
REMARK    5  A    between atoms: C_25  and  C_27
REMARK                            x       y       z     vdW  Elec       q    Type
REMARK                         _______ _______ _______ _____ _____    ______ ____
ROOT
ATOM      1  C   UNL     1       3.750  -2.933  -3.179  0.00  0.00    +0.087 C 
ATOM      2  C   UNL     1       2.346  -3.537  -3.107  0.00  0.00    +0.013 C 
ATOM      3  C   UNL     1       2.259  -4.740  -4.048  0.00  0.00    +0.001 C 
ATOM      4  C   UNL     1       2.547  -4.289  -5.481  0.00  0.00    +0.001 C 
ATOM      5  C   UNL     1       3.952  -3.686  -5.553  0.00  0.00    +0.013 C 
ATOM      6  C   UNL     1       4.038  -2.482  -4.612  0.00  0.00    +0.087 C 
ENDROOT
BRANCH   6   7
ATOM      7  C   UNL     1       5.422  -1.888  -4.683  0.00  0.00    +0.219 C 
ATOM      8  O   UNL     1       6.261  -2.206  -3.867  0.00  0.00    -0.275 OA
ATOM      9  N   UNL     1       5.726  -1.003  -5.653  0.00  0.00    -0.298 N 
ATOM     10  C   UNL     1       4.693  -0.528  -6.583  0.00  0.00    +0.126 C 
ATOM     11  C   UNL     1       4.656   1.004  -6.534  0.00  0.00    +0.125 C 
ATOM     12  N   UNL     1       6.028   1.512  -6.680  0.00  0.00    -0.314 N 
ATOM     13  C   UNL     1       7.061   1.037  -5.749  0.00  0.00    +0.125 C 
ATOM     14  C   UNL     1       7.097  -0.492  -5.795  0.00  0.00    +0.126 C 
ATOM     15  C   UNL     1       6.342   2.424  -7.680  0.00  0.00    +0.099 A 
ATOM     16  C   UNL     1       5.327   2.966  -8.463  0.00  0.00    +0.042 A 
ATOM     17  C   UNL     1       5.654   3.872  -9.455  0.00  0.00    +0.005 A 
ATOM     18  C   UNL     1       6.990   4.209  -9.631  0.00  0.00    +0.018 A 
ATOM     19  C   UNL     1       7.945   3.633  -8.818  0.00  0.00    +0.084 A 
ATOM     20  N   UNL     1       7.603   2.775  -7.876  0.00  0.00    -0.350 N 
ATOM     21  H   UNL     1       8.294   2.388  -7.316  0.00  0.00    +0.166 HD
ENDBRANCH   6   7
BRANCH   1  23
ATOM     22  N   UNL     1       3.616  -1.908  -0.932  0.00  0.00    -0.304 N 
ATOM     23  C   UNL     1       3.835  -1.748  -2.252  0.00  0.00    +0.218 C 
ATOM     24  O   UNL     1       4.101  -0.651  -2.694  0.00  0.00    -0.275 OA
ATOM     25  H   UNL     1       3.404  -2.786  -0.578  0.00  0.00    +0.150 HD
BRANCH  22  26
ATOM     26  C   UNL     1       3.700  -0.756  -0.031  0.00  0.00    +0.134 C 
BRANCH  26  27
ATOM     27  C   UNL     1       4.029  -1.229   1.361  0.00  0.00    -0.023 A 
ATOM     28  C   UNL     1       3.450  -2.384   1.854  0.00  0.00    +0.007 A 
ATOM     29  C   UNL     1       3.752  -2.818   3.130  0.00  0.00    +0.020 A 
ATOM     30  C   UNL     1       4.634  -2.098   3.916  0.00  0.00    +0.041 A 
ATOM     31  C   UNL     1       5.214  -0.943   3.422  0.00  0.00    +0.020 A 
ATOM     32  C   UNL     1       4.915  -0.512   2.143  0.00  0.00    +0.007 A 
ATOM     33 CL   UNL     1       5.014  -2.643   5.519  0.00  0.00    -0.084 Cl
ENDBRANCH  26  27
BRANCH  26  37
ATOM     34  C   UNL     1      -0.050   1.291   0.010  0.00  0.00    +0.000 A 
ATOM     35  C   UNL     1       1.131   2.011   0.013  0.00  0.00    +0.000 A 
ATOM     36  C   UNL     1       2.344   1.348   0.000  0.00  0.00    +0.006 A 
ATOM     37  C   UNL     1       2.377  -0.034  -0.016  0.00  0.00    -0.023 A 
ATOM     38  C   UNL     1       1.196  -0.753  -0.019  0.00  0.00    +0.006 A 
ATOM     39  C   UNL     1      -0.017  -0.090  -0.007  0.00  0.00    +0.000 A 
ENDBRANCH  26  37
ENDBRANCH  22  26
ENDBRANCH   1  23
TORSDOF 5
