REMARK  Name = ZINC39697620
REMARK  7 active torsions:
REMARK  status: ('A' for Active; 'I' for Inactive)
REMARK    1  A    between atoms: C_1  and  C_2
REMARK    2  A    between atoms: C_2  and  O_3
REMARK    3  A    between atoms: O_3  and  C_4
REMARK    4  A    between atoms: C_7  and  N_10
REMARK    5  A    between atoms: C_11  and  C_13
REMARK    6  A    between atoms: C_13  and  S_14
REMARK    7  A    between atoms: S_14  and  C_15
REMARK                            x       y       z     vdW  Elec       q    Type
REMARK                         _______ _______ _______ _____ _____    ______ ____
ROOT
ATOM      1  S   UNL     1       2.429  -8.287  -4.794  0.00  0.00    -0.075 S 
ENDROOT
BRANCH   1   2
ATOM      2  C   UNL     1       2.371 -10.044  -4.913  0.00  0.00    +0.208 C 
ATOM      3  N   UNL     1       1.825 -10.713  -3.925  0.00  0.00    -0.227 NA
ATOM      4  C   UNL     1       1.851 -12.172  -3.996  0.00  0.00    +0.252 C 
ATOM      5  C   UNL     1       1.867 -12.529  -5.476  0.00  0.00    +0.117 C 
ATOM      6  C   UNL     1       0.894 -13.470  -5.635  0.00  0.00    +0.028 A 
ATOM      7  C   UNL     1       0.504 -14.255  -6.745  0.00  0.00    +0.050 A 
ATOM      8  C   UNL     1      -0.542 -15.111  -6.572  0.00  0.00    +0.124 A 
ATOM      9  C   UNL     1      -1.249 -15.256  -5.371  0.00  0.00    +0.040 A 
ATOM     10  C   UNL     1      -0.957 -14.559  -4.242  0.00  0.00    +0.029 A 
ATOM     11  C   UNL     1       0.168 -13.612  -4.334  0.00  0.00    +0.046 A 
ATOM     12  N   UNL     1       0.684 -12.835  -3.433  0.00  0.00    -0.358 N 
ATOM     13  F   UNL     1      -0.923 -15.866  -7.625  0.00  0.00    -0.205 F 
ATOM     14  N   UNL     1       2.630 -11.857  -6.341  0.00  0.00    -0.147 NA
ATOM     15  N   UNL     1       2.888 -10.627  -6.021  0.00  0.00    -0.122 NA
ATOM     16  H   UNL     1       0.347 -12.715  -2.531  0.00  0.00    +0.162 HD
ENDBRANCH   1   2
BRANCH   1  17
ATOM     17  C   UNL     1       1.651  -7.929  -3.195  0.00  0.00    +0.173 C 
BRANCH  17  19
ATOM     18  N   UNL     1       1.102  -5.938  -1.834  0.00  0.00    -0.285 N 
ATOM     19  C   UNL     1       1.635  -6.440  -2.966  0.00  0.00    +0.227 C 
ATOM     20  O   UNL     1       2.103  -5.694  -3.799  0.00  0.00    -0.275 OA
ATOM     21  H   UNL     1       0.797  -6.536  -1.135  0.00  0.00    +0.155 HD
BRANCH  18  25
ATOM     22  C   UNL     1       0.759  -1.811  -1.344  0.00  0.00    +0.121 A 
ATOM     23  C   UNL     1       0.629  -2.373  -2.606  0.00  0.00    +0.047 A 
ATOM     24  C   UNL     1       0.743  -3.739  -2.769  0.00  0.00    +0.027 A 
ATOM     25  C   UNL     1       0.987  -4.551  -1.670  0.00  0.00    +0.034 A 
ATOM     26  C   UNL     1       1.117  -3.989  -0.407  0.00  0.00    +0.027 A 
ATOM     27  C   UNL     1       1.009  -2.622  -0.246  0.00  0.00    +0.047 A 
BRANCH  22  28
ATOM     28  O   UNL     1       0.648  -0.466  -1.184  0.00  0.00    -0.492 OA
BRANCH  28  30
ATOM     29  C   UNL     1       0.297   1.788  -1.982  0.00  0.00    +0.048 C 
ATOM     30  C   UNL     1       0.390   0.308  -2.357  0.00  0.00    +0.225 C 
ENDBRANCH  28  30
ENDBRANCH  22  28
ENDBRANCH  18  25
ENDBRANCH  17  19
ENDBRANCH   1  17
TORSDOF 6
