REMARK  Name = ZINC16520731
REMARK  9 active torsions:
REMARK  status: ('A' for Active; 'I' for Inactive)
REMARK    1  A    between atoms: C_1  and  C_2
REMARK    2  A    between atoms: C_5  and  N_31
REMARK    3  A    between atoms: C_7  and  S_8
REMARK    4  A    between atoms: S_8  and  N_11
REMARK    5  A    between atoms: N_14  and  C_17
REMARK    6  A    between atoms: C_17  and  C_18
REMARK    7  A    between atoms: N_20  and  C_21
REMARK    8  A    between atoms: C_21  and  C_23
REMARK    9  A    between atoms: C_21  and  C_24
REMARK                            x       y       z     vdW  Elec       q    Type
REMARK                         _______ _______ _______ _____ _____    ______ ____
ROOT
ATOM      1  N   UNL     1       1.449   1.014   2.807  0.00  0.00    -0.174 NA
ATOM      2  C   UNL     1       2.651   0.409   3.399  0.00  0.00    +0.125 C 
ATOM      3  C   UNL     1       3.219   1.378   4.443  0.00  0.00    +0.102 C 
ATOM      4  N   UNL     1       3.426   2.694   3.823  0.00  0.00    -0.291 NA
ATOM      5  C   UNL     1       2.155   3.277   3.374  0.00  0.00    +0.102 C 
ATOM      6  C   UNL     1       1.545   2.385   2.282  0.00  0.00    +0.125 C 
ENDROOT
BRANCH   1   7
ATOM      7  S   UNL     1       0.025   0.171   2.726  0.00  0.00    +0.061 S 
ATOM      8  O   UNL     1      -1.014   1.137   2.645  0.00  0.00    -0.153 OA
ATOM      9  O   UNL     1       0.076  -0.810   3.753  0.00  0.00    -0.153 OA
BRANCH   7  16
ATOM     10  C   UNL     1      -0.018   1.503   0.010  0.00  0.00    +0.046 C 
ATOM     11  C   UNL     1       0.002  -0.004   0.002  0.00  0.00    -0.024 A 
ATOM     12  C   UNL     1       0.006  -0.689  -1.199  0.00  0.00    +0.007 A 
ATOM     13  C   UNL     1       0.025  -2.071  -1.207  0.00  0.00    +0.033 A 
ATOM     14  C   UNL     1       0.040  -2.768  -0.013  0.00  0.00    +0.128 A 
ATOM     15  C   UNL     1       0.037  -2.084   1.188  0.00  0.00    +0.061 A 
ATOM     16  C   UNL     1       0.023  -0.702   1.195  0.00  0.00    +0.111 A 
BRANCH  14  17
ATOM     17  N   UNL     1       0.059  -4.248  -0.021  0.00  0.00    +0.056 N 
ATOM     18  O   UNL     1       0.061  -4.847  -1.072  0.00  0.00    -0.126 OA
ATOM     19  O   UNL     1       0.073  -4.859   1.022  0.00  0.00    -0.126 OA
ENDBRANCH  14  17
ENDBRANCH   7  16
ENDBRANCH   1   7
BRANCH   4  20
ATOM     20  C   UNL     1       4.128   3.602   4.740  0.00  0.00    +0.180 C 
BRANCH  20  21
ATOM     21  C   UNL     1       4.539   4.847   3.996  0.00  0.00    +0.228 C 
ATOM     22  O   UNL     1       4.274   4.965   2.819  0.00  0.00    -0.274 OA
ATOM     23  N   UNL     1       5.202   5.828   4.640  0.00  0.00    -0.308 N 
ATOM     24  H   UNL     1       5.414   5.733   5.581  0.00  0.00    +0.149 HD
BRANCH  23  25
ATOM     25  C   UNL     1       5.602   7.038   3.917  0.00  0.00    +0.100 C 
ATOM     26  C   UNL     1       6.940   6.795   3.216  0.00  0.00    +0.033 C 
BRANCH  25  27
ATOM     27  C   UNL     1       5.745   8.180   4.889  0.00  0.00    -0.027 A 
ATOM     28  C   UNL     1       6.321   7.965   6.127  0.00  0.00    +0.008 A 
ATOM     29  C   UNL     1       6.453   9.012   7.020  0.00  0.00    +0.038 A 
ATOM     30  C   UNL     1       6.008  10.276   6.674  0.00  0.00    +0.123 A 
ATOM     31  C   UNL     1       5.430  10.491   5.434  0.00  0.00    +0.038 A 
ATOM     32  C   UNL     1       5.304   9.444   4.541  0.00  0.00    +0.008 A 
ATOM     33  F   UNL     1       6.136  11.300   7.546  0.00  0.00    -0.205 F 
ENDBRANCH  25  27
ENDBRANCH  23  25
ENDBRANCH  20  21
ENDBRANCH   4  20
TORSDOF 7
