REMARK  Name = ZINC08536373
REMARK  6 active torsions:
REMARK  status: ('A' for Active; 'I' for Inactive)
REMARK    1  A    between atoms: C_1  and  N_59
REMARK    2  A    between atoms: C_4  and  S_7
REMARK    3  A    between atoms: S_7  and  C_10
REMARK    4  A    between atoms: C_13  and  C_16
REMARK    5  A    between atoms: C_19  and  C_28
REMARK    6  A    between atoms: C_20  and  C_22
REMARK                            x       y       z     vdW  Elec       q    Type
REMARK                         _______ _______ _______ _____ _____    ______ ____
ROOT
ATOM      1  C   UNL     1      -0.010   1.358   0.126  0.00  0.00    +0.139 A 
ATOM      2  N   UNL     1       0.013  -0.008   0.114  0.00  0.00    -0.337 N 
ATOM      3  H   UNL     1      -0.775  -0.615   0.216  0.00  0.00    +0.167 HD
ATOM      4  C   UNL     1       1.320  -0.391  -0.066  0.00  0.00    +0.074 A 
ATOM      5  C   UNL     1       2.061   0.777  -0.157  0.00  0.00    +0.097 A 
ATOM      6  N   UNL     1       1.212   1.810  -0.035  0.00  0.00    -0.227 NA
ENDROOT
BRANCH   4   7
ATOM      7  C   UNL     1       1.834  -1.772  -0.144  0.00  0.00    +0.001 A 
ATOM      8  C   UNL     1       2.959  -2.145   0.595  0.00  0.00    +0.013 A 
ATOM      9  C   UNL     1       3.432  -3.438   0.520  0.00  0.00    +0.039 A 
ATOM     10  C   UNL     1       2.799  -4.365  -0.293  0.00  0.00    +0.123 A 
ATOM     11  C   UNL     1       1.685  -3.999  -1.033  0.00  0.00    +0.039 A 
ATOM     12  C   UNL     1       1.200  -2.710  -0.963  0.00  0.00    +0.013 A 
ATOM     13  F   UNL     1       3.270  -5.629  -0.366  0.00  0.00    -0.205 F 
ENDBRANCH   4   7
BRANCH   1  17
ATOM     14  C   UNL     1      -3.483   3.758   0.596  0.00  0.00    +0.089 A 
ATOM     15  C   UNL     1      -2.246   4.359   0.440  0.00  0.00    +0.027 A 
ATOM     16  C   UNL     1      -1.115   3.585   0.286  0.00  0.00    +0.013 A 
ATOM     17  C   UNL     1      -1.219   2.193   0.290  0.00  0.00    +0.017 A 
ATOM     18  C   UNL     1      -2.470   1.594   0.443  0.00  0.00    +0.013 A 
ATOM     19  C   UNL     1      -3.593   2.379   0.601  0.00  0.00    +0.027 A 
BRANCH  14  20
ATOM     20  S   UNL     1      -4.923   4.754   0.791  0.00  0.00    -0.000 S 
ATOM     21  O   UNL     1      -5.835   3.936   1.512  0.00  0.00    -0.169 OA
ATOM     22  O   UNL     1      -4.449   5.973   1.346  0.00  0.00    -0.169 OA
BRANCH  20  26
ATOM     23  C   UNL     1      -6.536   7.260  -4.402  0.00  0.00    -0.096 C 
ATOM     24  C   UNL     1      -7.188   6.273  -2.290  0.00  0.00    -0.077 C 
ATOM     25  C   UNL     1      -6.718   5.997  -0.860  0.00  0.00    +0.008 C 
ATOM     26  C   UNL     1      -5.531   5.030  -0.895  0.00  0.00    +0.132 C 
ATOM     27  C   UNL     1      -4.414   5.636  -1.749  0.00  0.00    +0.008 C 
ATOM     28  C   UNL     1      -4.950   5.924  -3.153  0.00  0.00    -0.077 C 
ATOM     29  N   UNL     1      -6.075   6.879  -3.052  0.00  0.00    +0.378 N 
ATOM     30  H   UNL     1      -5.753   7.720  -2.559  0.00  0.00    -0.082 HD
ENDBRANCH  20  26
ENDBRANCH  14  20
ENDBRANCH   1  17
BRANCH   5  31
ATOM     31  C   UNL     1       3.525   0.869  -0.354  0.00  0.00    +0.005 A 
ATOM     32  C   UNL     1       4.290   1.800   0.358  0.00  0.00    +0.030 A 
ATOM     33  C   UNL     1       5.651   1.848   0.147  0.00  0.00    +0.111 A 
ATOM     34  N   UNL     1       6.232   1.039  -0.719  0.00  0.00    -0.263 NA
ATOM     35  C   UNL     1       5.548   0.150  -1.414  0.00  0.00    +0.111 A 
ATOM     36  C   UNL     1       4.183   0.030  -1.261  0.00  0.00    +0.030 A 
ENDBRANCH   5  31
TORSDOF 5
