REMARK  Name = ZINC06652269
REMARK  6 active torsions:
REMARK  status: ('A' for Active; 'I' for Inactive)
REMARK    1  A    between atoms: C_1  and  N_2
REMARK    2  A    between atoms: N_2  and  C_3
REMARK    3  A    between atoms: N_2  and  S_18
REMARK    4  A    between atoms: C_3  and  C_4
REMARK    5  A    between atoms: N_6  and  C_7
REMARK    6  A    between atoms: S_18  and  C_21
REMARK                            x       y       z     vdW  Elec       q    Type
REMARK                         _______ _______ _______ _____ _____    ______ ____
ROOT
ATOM      1  C   UNL     1       2.879  -4.574  -2.253  0.00  0.00    +0.229 C 
ATOM      2  O   UNL     1       2.171  -5.367  -1.668  0.00  0.00    -0.274 OA
ATOM      3  N   UNL     1       4.015  -4.993  -2.844  0.00  0.00    -0.307 N 
ATOM      4  H   UNL     1       4.581  -4.358  -3.311  0.00  0.00    +0.149 HD
ENDROOT
BRANCH   3   5
ATOM      5  C   UNL     1       4.397  -6.406  -2.780  0.00  0.00    +0.105 C 
ATOM      6  C   UNL     1       5.204  -6.747  -4.020  0.00  0.00    +0.038 C 
ATOM      7  C   UNL     1       5.559  -8.241  -3.993  0.00  0.00    +0.076 C 
ATOM      8  S   UNL     1       6.817  -8.468  -2.701  0.00  0.00    -0.125 S 
ATOM      9  C   UNL     1       6.183  -7.534  -1.345  0.00  0.00    +0.013 A 
ATOM     10  C   UNL     1       5.133  -6.646  -1.495  0.00  0.00    -0.014 A 
ATOM     11  C   UNL     1       4.710  -5.915  -0.388  0.00  0.00    +0.006 A 
ATOM     12  C   UNL     1       5.313  -6.075   0.841  0.00  0.00    +0.000 A 
ATOM     13  C   UNL     1       6.352  -6.974   0.991  0.00  0.00    +0.001 A 
ATOM     14  C   UNL     1       6.784  -7.700  -0.098  0.00  0.00    +0.015 A 
ENDBRANCH   3   5
BRANCH   1  15
ATOM     15  C   UNL     1       2.486  -3.121  -2.318  0.00  0.00    +0.204 C 
BRANCH  15  17
ATOM     16  C   UNL     1      -0.051  -3.153  -2.294  0.00  0.00    +0.132 C 
ATOM     17  N   UNL     1       1.222  -2.923  -1.605  0.00  0.00    -0.171 NA
BRANCH  17  18
ATOM     18  S   UNL     1       1.230  -2.441  -0.021  0.00  0.00    +0.061 S 
ATOM     19  O   UNL     1       2.486  -2.834   0.516  0.00  0.00    -0.153 OA
ATOM     20  O   UNL     1      -0.004  -2.866   0.539  0.00  0.00    -0.153 OA
BRANCH  18  21
ATOM     21  C   UNL     1       1.208  -0.679  -0.013  0.00  0.00    +0.106 A 
ATOM     22  C   UNL     1       0.002  -0.004   0.002  0.00  0.00    +0.031 A 
ATOM     23  C   UNL     1      -0.017   1.378   0.010  0.00  0.00    +0.040 A 
ATOM     24  C   UNL     1       1.173   2.086   0.002  0.00  0.00    +0.124 A 
ATOM     25  C   UNL     1       2.381   1.408  -0.013  0.00  0.00    +0.040 A 
ATOM     26  C   UNL     1       2.397   0.026  -0.020  0.00  0.00    +0.031 A 
ATOM     27  F   UNL     1       1.156   3.437   0.009  0.00  0.00    -0.205 F 
ENDBRANCH  18  21
ENDBRANCH  17  18
ENDBRANCH  15  17
ENDBRANCH   1  15
TORSDOF 5
