REMARK  Name = ZINC43259063
REMARK  6 active torsions:
REMARK  status: ('A' for Active; 'I' for Inactive)
REMARK    1  A    between atoms: C_1  and  C_2
REMARK    2  A    between atoms: C_2  and  C_3
REMARK    3  A    between atoms: C_3  and  C_5
REMARK    4  A    between atoms: C_3  and  N_23
REMARK    5  A    between atoms: C_5  and  C_7
REMARK    6  A    between atoms: C_5  and  N_13
REMARK                            x       y       z     vdW  Elec       q    Type
REMARK                         _______ _______ _______ _____ _____    ______ ____
ROOT
ATOM      1  C   UNL     1       0.550  -2.024   1.367  0.00  0.00    +0.079 C 
ENDROOT
BRANCH   1   2
ATOM      2  N   UNL     1      -0.892  -2.295   1.306  0.00  0.00    -0.292 NA
ATOM      3  C   UNL     1      -1.600  -1.637   2.416  0.00  0.00    +0.090 C 
ATOM      4  C   UNL     1      -3.097  -1.640   2.106  0.00  0.00    +0.051 C 
ATOM      5  C   UNL     1      -3.542  -3.030   1.728  0.00  0.00    -0.042 A 
ATOM      6  C   UNL     1      -4.897  -3.322   1.758  0.00  0.00    +0.004 A 
ATOM      7  C   UNL     1      -5.347  -4.581   1.415  0.00  0.00    +0.000 A 
ATOM      8  C   UNL     1      -4.441  -5.556   1.039  0.00  0.00    +0.000 A 
ATOM      9  C   UNL     1      -3.092  -5.266   1.009  0.00  0.00    +0.005 A 
ATOM     10  C   UNL     1      -2.638  -4.002   1.356  0.00  0.00    -0.030 A 
ATOM     11  C   UNL     1      -1.156  -3.738   1.319  0.00  0.00    +0.120 C 
ENDBRANCH   1   2
BRANCH   1  12
ATOM     12  C   UNL     1       1.248  -2.760   0.252  0.00  0.00    +0.006 A 
ATOM     13  C   UNL     1       2.390  -3.488   0.294  0.00  0.00    +0.014 A 
ATOM     14  C   UNL     1       2.849  -4.082  -0.867  0.00  0.00    +0.023 A 
ATOM     15  C   UNL     1       2.143  -3.918  -2.013  0.00  0.00    +0.055 A 
ATOM     16  S   UNL     1       0.780  -2.905  -1.465  0.00  0.00    -0.085 S 
ATOM     17 BR   UNL     1       2.506  -4.593  -3.742  0.00  0.00    -0.043 Br
ENDBRANCH   1  12
BRANCH   1  18
ATOM     18  C   UNL     1       0.793  -0.521   1.216  0.00  0.00    -0.053 C 
BRANCH  18  19
ATOM     19  N   UNL     1       2.238  -0.260   1.171  0.00  0.00    +0.381 N 
ATOM     20  H   UNL     1       2.398   0.731   1.071  0.00  0.00    -0.090 HD
ATOM     21  H   UNL     1       2.665  -0.585   2.026  0.00  0.00    -0.090 HD
ATOM     22  H   UNL     1       2.644  -0.747   0.386  0.00  0.00    -0.090 HD
ENDBRANCH  18  19
BRANCH  18  24
ATOM     23  C   UNL     1       0.272   1.495  -0.166  0.00  0.00    +0.002 C 
ATOM     24  C   UNL     1       0.146  -0.028  -0.080  0.00  0.00    -0.018 C 
ENDBRANCH  18  24
ENDBRANCH   1  18
TORSDOF 5
