REMARK  Name = ZINC39690634
REMARK  6 active torsions:
REMARK  status: ('A' for Active; 'I' for Inactive)
REMARK    1  A    between atoms: C_5  and  C_7
REMARK    2  A    between atoms: C_7  and  N_8
REMARK    3  A    between atoms: C_9  and  C_11
REMARK    4  A    between atoms: C_22  and  C_24
REMARK    5  A    between atoms: C_24  and  O_25
REMARK    6  A    between atoms: O_25  and  C_26
REMARK                            x       y       z     vdW  Elec       q    Type
REMARK                         _______ _______ _______ _____ _____    ______ ____
ROOT
ATOM      1  C   UNL     1       1.818  -4.511   2.961  0.00  0.00    +0.100 C 
ATOM      2  C   UNL     1       3.260  -4.161   3.394  0.00  0.00    +0.121 C 
ATOM      3  N   UNL     1       3.712  -5.336   4.176  0.00  0.00    -0.297 N 
ATOM      4  C   UNL     1       3.162  -6.501   3.441  0.00  0.00    +0.115 C 
ATOM      5  C   UNL     1       1.759  -6.048   2.993  0.00  0.00    -0.004 C 
ATOM      6  C   UNL     1       1.448  -6.593   1.602  0.00  0.00    -0.010 C 
ATOM      7  C   UNL     1       1.336  -8.119   1.671  0.00  0.00    -0.082 C 
ATOM      8  N   UNL     1       0.274  -8.492   2.613  0.00  0.00    +0.379 N 
ATOM      9  C   UNL     1       0.625  -8.044   3.966  0.00  0.00    -0.082 C 
ATOM     10  C   UNL     1       0.707  -6.515   3.995  0.00  0.00    -0.010 C 
ATOM     11  C   UNL     1       4.454  -5.344   5.300  0.00  0.00    +0.253 C 
ATOM     12  O   UNL     1       4.745  -6.397   5.827  0.00  0.00    -0.272 OA
ATOM     13  H   UNL     1      -0.592  -8.057   2.331  0.00  0.00    -0.086 HD
ATOM     14  H   UNL     1       0.161  -9.494   2.611  0.00  0.00    -0.086 HD
ENDROOT
BRANCH   1  16
ATOM     15  N   UNL     1       0.298  -3.671   1.200  0.00  0.00    -0.311 N 
ATOM     16  C   UNL     1       1.551  -4.005   1.567  0.00  0.00    +0.218 C 
ATOM     17  O   UNL     1       2.464  -3.897   0.776  0.00  0.00    -0.275 OA
ATOM     18  H   UNL     1      -0.432  -3.756   1.833  0.00  0.00    +0.149 HD
BRANCH  15  19
ATOM     19  C   UNL     1       0.038  -3.178  -0.155  0.00  0.00    +0.140 C 
BRANCH  19  24
ATOM     20  C   UNL     1      -3.606  -3.511  -1.081  0.00  0.00    +0.000 A 
ATOM     21  C   UNL     1      -4.126  -2.328  -0.588  0.00  0.00    +0.001 A 
ATOM     22  C   UNL     1      -3.299  -1.420   0.044  0.00  0.00    +0.015 A 
ATOM     23  C   UNL     1      -1.950  -1.695   0.185  0.00  0.00    +0.023 A 
ATOM     24  C   UNL     1      -1.431  -2.878  -0.307  0.00  0.00    -0.016 A 
ATOM     25  C   UNL     1      -2.259  -3.786  -0.940  0.00  0.00    +0.006 A 
ATOM     26 BR   UNL     1      -0.817  -0.452   1.051  0.00  0.00    -0.050 Br
ENDBRANCH  19  24
ENDBRANCH  15  19
ENDBRANCH   1  16
BRANCH  11  27
ATOM     27  C   UNL     1       4.923  -4.045   5.903  0.00  0.00    +0.324 C 
BRANCH  27  28
ATOM     28  O   UNL     1       5.686  -4.314   7.081  0.00  0.00    -0.483 OA
BRANCH  28  29
ATOM     29  C   UNL     1       6.187  -3.242   7.750  0.00  0.00    +0.123 A 
ATOM     30  C   UNL     1       5.943  -1.958   7.285  0.00  0.00    +0.046 A 
ATOM     31  C   UNL     1       6.452  -0.869   7.967  0.00  0.00    +0.005 A 
ATOM     32  C   UNL     1       7.204  -1.059   9.112  0.00  0.00    +0.020 A 
ATOM     33  C   UNL     1       7.450  -2.339   9.577  0.00  0.00    +0.044 A 
ATOM     34  C   UNL     1       6.937  -3.431   8.901  0.00  0.00    +0.065 A 
ATOM     35 CL   UNL     1       8.395  -2.573  11.014  0.00  0.00    -0.083 Cl
ENDBRANCH  28  29
ENDBRANCH  27  28
ENDBRANCH  11  27
TORSDOF 6
