REMARK  Name = ZINC13015876
REMARK  7 active torsions:
REMARK  status: ('A' for Active; 'I' for Inactive)
REMARK    1  A    between atoms: C_1  and  C_2
REMARK    2  A    between atoms: C_2  and  N_3
REMARK    3  A    between atoms: N_3  and  C_4
REMARK    4  A    between atoms: N_3  and  S_10
REMARK    5  A    between atoms: S_10  and  C_13
REMARK    6  A    between atoms: C_17  and  N_19
REMARK    7  A    between atoms: C_23  and  C_25
REMARK                            x       y       z     vdW  Elec       q    Type
REMARK                         _______ _______ _______ _____ _____    ______ ____
ROOT
ATOM      1  C   UNL     1       1.916   2.052   0.309  0.00  0.00    +0.111 A 
ATOM      2  C   UNL     1       2.387   2.205   1.600  0.00  0.00    +0.030 A 
ATOM      3  C   UNL     1       3.713   2.528   1.822  0.00  0.00    +0.024 A 
ATOM      4  C   UNL     1       4.570   2.708   0.753  0.00  0.00    +0.062 A 
ATOM      5  C   UNL     1       4.099   2.560  -0.546  0.00  0.00    +0.055 A 
ATOM      6  C   UNL     1       2.767   2.231  -0.764  0.00  0.00    +0.053 A 
ATOM      7 CL   UNL     1       6.234   3.119   1.032  0.00  0.00    -0.082 Cl
ENDROOT
BRANCH   5   8
ATOM      8  N   UNL     1       4.963   2.742  -1.630  0.00  0.00    -0.266 N 
ATOM      9  C   UNL     1       4.464   2.737  -2.920  0.00  0.00    +0.312 A 
ATOM     10  N   UNL     1       3.226   2.485  -3.272  0.00  0.00    -0.092 NA
ATOM     11  N   UNL     1       3.118   2.569  -4.551  0.00  0.00    -0.105 NA
ATOM     12  C   UNL     1       4.285   2.878  -5.068  0.00  0.00    +0.257 A 
ATOM     13  O   UNL     1       5.160   2.997  -4.044  0.00  0.00    -0.404 OA
ATOM     14  H   UNL     1       5.912   2.871  -1.478  0.00  0.00    +0.157 HD
BRANCH  12  15
ATOM     15  C   UNL     1       4.583   3.067  -6.495  0.00  0.00    +0.076 A 
ATOM     16  C   UNL     1       3.737   2.966  -7.583  0.00  0.00    +0.021 A 
ATOM     17  C   UNL     1       4.255   3.191  -8.839  0.00  0.00    +0.008 A 
ATOM     18  C   UNL     1       5.570   3.502  -8.969  0.00  0.00    +0.046 A 
ATOM     19  S   UNL     1       6.132   3.494  -7.275  0.00  0.00    -0.092 S 
ENDBRANCH  12  15
ENDBRANCH   5   8
BRANCH   1  20
ATOM     20  S   UNL     1       0.227   1.635   0.032  0.00  0.00    +0.075 S 
ATOM     21  O   UNL     1      -0.095   2.091  -1.275  0.00  0.00    -0.150 OA
ATOM     22  O   UNL     1      -0.490   2.057   1.184  0.00  0.00    -0.150 OA
BRANCH  20  23
ATOM     23  N   UNL     1       0.130  -0.018  -0.006  0.00  0.00    -0.203 N 
BRANCH  23  24
ATOM     24  C   UNL     1       0.160  -0.691  -1.229  0.00  0.00    +0.051 A 
ATOM     25  C   UNL     1       1.159  -1.622  -1.487  0.00  0.00    +0.025 A 
ATOM     26  C   UNL     1       1.182  -2.290  -2.696  0.00  0.00    +0.002 A 
ATOM     27  C   UNL     1       0.220  -2.025  -3.653  0.00  0.00    +0.000 A 
ATOM     28  C   UNL     1      -0.771  -1.095  -3.402  0.00  0.00    +0.002 A 
ATOM     29  C   UNL     1      -0.804  -0.427  -2.193  0.00  0.00    +0.025 A 
ENDBRANCH  23  24
BRANCH  23  31
ATOM     30  C   UNL     1      -1.462  -1.058   1.531  0.00  0.00    +0.026 C 
ATOM     31  C   UNL     1       0.014  -0.773   1.244  0.00  0.00    +0.128 C 
ENDBRANCH  23  31
ENDBRANCH  20  23
ENDBRANCH   1  20
TORSDOF 6
