REMARK  Name = ZINC13041100
REMARK  11 active torsions:
REMARK  status: ('A' for Active; 'I' for Inactive)
REMARK    1  A    between atoms: C_1  and  C_2
REMARK    2  A    between atoms: C_2  and  O_3
REMARK    3  A    between atoms: O_3  and  C_4
REMARK    4  A    between atoms: C_4  and  C_6
REMARK    5  A    between atoms: C_7  and  C_23
REMARK    6  A    between atoms: C_10  and  N_11
REMARK    7  A    between atoms: C_12  and  C_14
REMARK    8  A    between atoms: C_14  and  N_60
REMARK    9  A    between atoms: C_17  and  C_20
REMARK   10  A    between atoms: C_26  and  C_30
REMARK   11  A    between atoms: C_28  and  C_29
REMARK                            x       y       z     vdW  Elec       q    Type
REMARK                         _______ _______ _______ _____ _____    ______ ____
ROOT
ATOM      1  C   UNL     1       0.242   1.130  -0.735  0.00  0.00    +0.095 A 
ATOM      2  C   UNL     1       0.328  -0.305  -0.929  0.00  0.00    +0.005 A 
ATOM      3  C   UNL     1       1.575  -0.834  -1.031  0.00  0.00    +0.056 A 
ATOM      4  S   UNL     1       2.636   0.586  -0.868  0.00  0.00    -0.080 S 
ATOM      5  C   UNL     1       1.443   1.825  -0.672  0.00  0.00    +0.086 A 
ENDROOT
BRANCH   2   6
ATOM      6  C   UNL     1      -0.885  -1.153  -1.012  0.00  0.00    -0.014 A 
ATOM      7  C   UNL     1      -1.599  -1.468   0.143  0.00  0.00    +0.009 A 
ATOM      8  C   UNL     1      -2.728  -2.257   0.059  0.00  0.00    +0.004 A 
ATOM      9  C   UNL     1      -3.152  -2.735  -1.168  0.00  0.00    -0.050 A 
ATOM     10  C   UNL     1      -2.448  -2.425  -2.317  0.00  0.00    +0.007 A 
ATOM     11  C   UNL     1      -1.320  -1.633  -2.247  0.00  0.00    -0.042 A 
ATOM     12  C   UNL     1      -0.557  -1.292  -3.501  0.00  0.00    +0.044 C 
ATOM     13  C   UNL     1      -4.385  -3.597  -1.253  0.00  0.00    +0.044 C 
ENDBRANCH   2   6
BRANCH   5  14
ATOM     14  N   UNL     1       1.639   3.185  -0.496  0.00  0.00    -0.281 N 
ATOM     15  C   UNL     1       2.889   3.687  -0.460  0.00  0.00    +0.201 C 
ATOM     16  O   UNL     1       3.843   2.948  -0.583  0.00  0.00    -0.278 OA
ATOM     17  H   UNL     1       0.876   3.776  -0.398  0.00  0.00    +0.155 HD
BRANCH  15  18
ATOM     18  C   UNL     1       3.102   5.166  -0.269  0.00  0.00    +0.019 C 
BRANCH  18  24
ATOM     19  C   UNL     1       4.811   6.878  -0.172  0.00  0.00    -0.077 C 
ATOM     20  C   UNL     1       6.323   7.113  -0.145  0.00  0.00    -0.006 C 
ATOM     21  C   UNL     1       6.902   6.524   1.145  0.00  0.00    +0.071 C 
ATOM     22  C   UNL     1       6.561   5.033   1.214  0.00  0.00    -0.006 C 
ATOM     23  C   UNL     1       5.042   4.859   1.147  0.00  0.00    -0.077 C 
ATOM     24  N   UNL     1       4.550   5.424  -0.128  0.00  0.00    +0.385 N 
ATOM     25  H   UNL     1       5.046   4.973  -0.906  0.00  0.00    -0.081 HD
BRANCH  21  26
ATOM     26  C   UNL     1       8.399   6.699   1.150  0.00  0.00    +0.213 C 
ATOM     27  O   UNL     1       9.123   5.727   1.204  0.00  0.00    -0.276 OA
ATOM     28  N   UNL     1       8.934   7.935   1.095  0.00  0.00    -0.329 N 
ATOM     29  H   UNL     1       8.355   8.712   1.052  0.00  0.00    +0.145 HD
ATOM     30  H   UNL     1       9.897   8.047   1.099  0.00  0.00    +0.145 HD
ENDBRANCH  21  26
ENDBRANCH  18  24
ENDBRANCH  15  18
ENDBRANCH   5  14
BRANCH   1  31
ATOM     31  C   UNL     1      -1.046   1.812  -0.618  0.00  0.00    +0.342 C 
ATOM     32  O   UNL     1      -1.601   1.883   0.463  0.00  0.00    -0.245 OA
BRANCH  31  33
ATOM     33  O   UNL     1      -1.620   2.363  -1.708  0.00  0.00    -0.461 OA
BRANCH  33  35
ATOM     34  C   UNL     1      -3.389   3.582  -2.854  0.00  0.00    +0.048 C 
ATOM     35  C   UNL     1      -2.899   3.024  -1.517  0.00  0.00    +0.229 C 
ENDBRANCH  33  35
ENDBRANCH  31  33
ENDBRANCH   1  31
TORSDOF 8
