REMARK  Name = ZINC35523164
REMARK  8 active torsions:
REMARK  status: ('A' for Active; 'I' for Inactive)
REMARK    1  A    between atoms: C_4  and  C_7
REMARK    2  A    between atoms: C_7  and  C_8
REMARK    3  A    between atoms: C_7  and  C_32
REMARK    4  A    between atoms: C_8  and  C_9
REMARK    5  A    between atoms: C_9  and  N_10
REMARK    6  A    between atoms: C_11  and  C_13
REMARK    7  A    between atoms: C_13  and  N_14
REMARK    8  A    between atoms: C_22  and  C_24
REMARK                            x       y       z     vdW  Elec       q    Type
REMARK                         _______ _______ _______ _____ _____    ______ ____
ROOT
ATOM      1  N   UNL     1       3.483  -1.308   3.698  0.00  0.00    -0.314 N 
ATOM      2  C   UNL     1       3.533  -0.673   4.886  0.00  0.00    +0.227 C 
ATOM      3  O   UNL     1       3.708   0.526   4.926  0.00  0.00    -0.274 OA
ATOM      4  H   UNL     1       3.342  -2.267   3.666  0.00  0.00    +0.149 HD
ENDROOT
BRANCH   1   5
ATOM      5  C   UNL     1       3.642  -0.548   2.455  0.00  0.00    +0.105 C 
BRANCH   5   6
ATOM      6  C   UNL     1       3.546  -1.500   1.260  0.00  0.00    +0.031 C 
BRANCH   6   7
ATOM      7  C   UNL     1       3.711  -0.707  -0.038  0.00  0.00    +0.050 C 
BRANCH   7  11
ATOM      8  C   UNL     1       0.435   1.998  -0.484  0.00  0.00    +0.000 A 
ATOM      9  C   UNL     1       1.734   2.463  -0.576  0.00  0.00    +0.000 A 
ATOM     10  C   UNL     1       2.794   1.588  -0.432  0.00  0.00    +0.004 A 
ATOM     11  C   UNL     1       2.556   0.247  -0.194  0.00  0.00    -0.040 A 
ATOM     12  C   UNL     1       1.257  -0.218  -0.101  0.00  0.00    +0.004 A 
ATOM     13  C   UNL     1       0.197   0.657  -0.247  0.00  0.00    +0.000 A 
ENDBRANCH   7  11
BRANCH   7  14
ATOM     14  C   UNL     1       3.740  -1.658  -1.207  0.00  0.00    -0.040 A 
ATOM     15  C   UNL     1       2.732  -2.591  -1.363  0.00  0.00    +0.004 A 
ATOM     16  C   UNL     1       2.758  -3.463  -2.435  0.00  0.00    +0.000 A 
ATOM     17  C   UNL     1       3.791  -3.401  -3.351  0.00  0.00    +0.000 A 
ATOM     18  C   UNL     1       4.798  -2.467  -3.196  0.00  0.00    +0.000 A 
ATOM     19  C   UNL     1       4.770  -1.592  -2.126  0.00  0.00    +0.004 A 
ENDBRANCH   7  14
ENDBRANCH   6   7
ENDBRANCH   5   6
ENDBRANCH   1   5
BRANCH   2  20
ATOM     20  C   UNL     1       3.369  -1.454   6.165  0.00  0.00    +0.181 C 
BRANCH  20  21
ATOM     21  N   UNL     1       3.462  -0.540   7.311  0.00  0.00    -0.280 NA
ATOM     22  C   UNL     1       2.334   0.402   7.326  0.00  0.00    +0.107 C 
ATOM     23  C   UNL     1       2.642   1.565   8.277  0.00  0.00    +0.137 C 
ATOM     24  N   UNL     1       3.082   1.004   9.560  0.00  0.00    -0.348 N 
ATOM     25  C   UNL     1       3.158   1.627  10.764  0.00  0.00    +0.086 A 
ATOM     26  C   UNL     1       3.610   0.735  11.672  0.00  0.00    +0.019 A 
ATOM     27  C   UNL     1       3.821  -0.486  10.998  0.00  0.00    +0.024 A 
ATOM     28  C   UNL     1       3.493  -0.295   9.712  0.00  0.00    +0.041 A 
ATOM     29  C   UNL     1       3.545  -1.289   8.578  0.00  0.00    +0.135 C 
BRANCH  29  30
ATOM     30  C   UNL     1       4.842  -2.055   8.632  0.00  0.00    -0.023 A 
ATOM     31  C   UNL     1       6.008  -1.473   8.170  0.00  0.00    +0.007 A 
ATOM     32  C   UNL     1       7.198  -2.175   8.218  0.00  0.00    +0.022 A 
ATOM     33  C   UNL     1       7.222  -3.460   8.729  0.00  0.00    +0.059 A 
ATOM     34  C   UNL     1       6.055  -4.043   9.192  0.00  0.00    +0.060 A 
ATOM     35  C   UNL     1       4.866  -3.337   9.148  0.00  0.00    +0.027 A 
ATOM     36 CL   UNL     1       6.084  -5.656   9.834  0.00  0.00    -0.082 Cl
ATOM     37 CL   UNL     1       8.716  -4.342   8.790  0.00  0.00    -0.082 Cl
ENDBRANCH  29  30
ENDBRANCH  20  21
ENDBRANCH   2  20
TORSDOF 8
