REMARK  Name = ZINC36029779
REMARK  15 active torsions:
REMARK  status: ('A' for Active; 'I' for Inactive)
REMARK    1  A    between atoms: C_1  and  C_2
REMARK    2  A    between atoms: C_2  and  C_3
REMARK    3  A    between atoms: C_2  and  C_4
REMARK    4  A    between atoms: C_4  and  C_5
REMARK    5  A    between atoms: N_9  and  C_24
REMARK    6  A    between atoms: N_19  and  C_20
REMARK    7  A    between atoms: C_20  and  C_21
REMARK    8  A    between atoms: C_20  and  C_22
REMARK    9  A    between atoms: C_20  and  C_23
REMARK   10  A    between atoms: C_24  and  C_25
REMARK   11  A    between atoms: C_25  and  C_26
REMARK   12  A    between atoms: C_29  and  O_34
REMARK   13  A    between atoms: C_30  and  O_32
REMARK   14  A    between atoms: O_32  and  C_33
REMARK   15  A    between atoms: O_34  and  C_35
REMARK                            x       y       z     vdW  Elec       q    Type
REMARK                         _______ _______ _______ _____ _____    ______ ____
ROOT
ATOM      1  C   UNL     1      -0.330  -0.074   2.541  0.00  0.00    +0.019 C 
ATOM      2  C   UNL     1       0.370  -0.690   3.733  0.00  0.00    +0.200 C 
ATOM      3  O   UNL     1       0.836  -1.808   3.781  0.00  0.00    -0.277 OA
ATOM      4  N   UNL     1       0.390   0.216   4.733  0.00  0.00    -0.313 N 
ATOM      5  C   UNL     1      -0.276   1.445   4.292  0.00  0.00    +0.006 C 
ATOM      6  N   UNL     1      -0.338   1.383   2.815  0.00  0.00    +0.401 N 
ATOM      7  C   UNL     1       0.531   2.668   4.725  0.00  0.00    +0.025 C 
ATOM      8  C   UNL     1       0.620   2.703   6.254  0.00  0.00    +0.109 C 
ATOM      9  N   UNL     1      -0.739   2.638   6.809  0.00  0.00    -0.286 N 
ATOM     10  C   UNL     1      -1.620   1.538   6.394  0.00  0.00    +0.109 C 
ATOM     11  C   UNL     1      -1.691   1.513   4.864  0.00  0.00    +0.025 C 
ATOM     12  C   UNL     1      -1.169   3.571   7.681  0.00  0.00    +0.303 C 
ATOM     13  O   UNL     1      -0.463   4.524   7.950  0.00  0.00    -0.253 OA
ATOM     14  N   UNL     1      -2.382   3.447   8.257  0.00  0.00    -0.294 N 
ATOM     15  H   UNL     1       0.470   1.827   2.406  0.00  0.00    -0.082 HD
ATOM     16  H   UNL     1      -2.916   2.654   8.096  0.00  0.00    +0.151 HD
ATOM     17  H   UNL     1      -1.190   1.805   2.475  0.00  0.00    -0.082 HD
ENDROOT
BRANCH  14  18
ATOM     18  C   UNL     1      -2.893   4.510   9.125  0.00  0.00    +0.028 C 
ATOM     19  C   UNL     1      -2.992   5.814   8.330  0.00  0.00    +0.031 C 
ATOM     20  C   UNL     1      -4.279   4.123   9.644  0.00  0.00    +0.031 C 
ATOM     21  C   UNL     1      -1.941   4.705  10.307  0.00  0.00    +0.031 C 
ENDBRANCH  14  18
BRANCH   1  22
ATOM     22  C   UNL     1       0.445  -0.370   1.256  0.00  0.00    -0.004 C 
BRANCH  22  24
ATOM     23  C   UNL     1       0.560   0.080  -1.199  0.00  0.00    +0.007 C 
ATOM     24  C   UNL     1      -0.284   0.254   0.065  0.00  0.00    -0.018 C 
ATOM     25  C   UNL     1      -1.636  -0.437  -0.125  0.00  0.00    +0.007 C 
ENDBRANCH  22  24
ENDBRANCH   1  22
BRANCH   4  26
ATOM     26  C   UNL     1       0.986   0.004   6.054  0.00  0.00    +0.110 C 
BRANCH  26  27
ATOM     27  C   UNL     1       2.467   0.386   6.013  0.00  0.00    +0.054 C 
BRANCH  27  28
ATOM     28  C   UNL     1       3.086   0.144   7.366  0.00  0.00    -0.042 A 
ATOM     29  C   UNL     1       3.084   1.149   8.315  0.00  0.00    +0.007 A 
ATOM     30  C   UNL     1       3.651   0.932   9.557  0.00  0.00    +0.049 A 
ATOM     31  C   UNL     1       4.221  -0.295   9.854  0.00  0.00    +0.161 A 
ATOM     32  C   UNL     1       4.221  -1.308   8.899  0.00  0.00    +0.162 A 
ATOM     33  C   UNL     1       3.648  -1.085   7.658  0.00  0.00    +0.053 A 
BRANCH  32  34
ATOM     34  O   UNL     1       4.779  -2.514   9.186  0.00  0.00    -0.491 OA
ATOM     35  C   UNL     1       4.744  -3.506   8.158  0.00  0.00    +0.277 C 
ENDBRANCH  32  34
BRANCH  31  36
ATOM     36  O   UNL     1       4.778  -0.510  11.076  0.00  0.00    -0.491 OA
ATOM     37  C   UNL     1       4.742   0.574  12.005  0.00  0.00    +0.277 C 
ENDBRANCH  31  36
ENDBRANCH  27  28
ENDBRANCH  26  27
ENDBRANCH   4  26
TORSDOF 8
