REMARK  Name = ZINC45871982
REMARK  10 active torsions:
REMARK  status: ('A' for Active; 'I' for Inactive)
REMARK    1  A    between atoms: C_1  and  C_2
REMARK    2  A    between atoms: C_3  and  C_14
REMARK    3  A    between atoms: C_4  and  C_13
REMARK    4  A    between atoms: C_9  and  S_11
REMARK    5  A    between atoms: S_11  and  C_12
REMARK    6  A    between atoms: C_14  and  C_15
REMARK    7  A    between atoms: C_20  and  C_23
REMARK    8  A    between atoms: C_23  and  N_24
REMARK    9  A    between atoms: C_26  and  C_33
REMARK   10  A    between atoms: C_29  and  C_32
REMARK                            x       y       z     vdW  Elec       q    Type
REMARK                         _______ _______ _______ _____ _____    ______ ____
ROOT
ATOM      1  C   UNL     1      -2.893   0.356   1.435  0.00  0.00    +0.223 C 
ATOM      2  O   UNL     1      -2.159   0.039   2.347  0.00  0.00    -0.275 OA
ATOM      3  N   UNL     1      -4.040   1.015   1.690  0.00  0.00    -0.264 N 
ATOM      4  C   UNL     1      -4.383   1.332   2.999  0.00  0.00    +0.165 A 
ATOM      5  N   UNL     1      -5.454   1.960   3.434  0.00  0.00    -0.231 NA
ATOM      6  C   UNL     1      -5.636   2.186   4.722  0.00  0.00    +0.034 A 
ATOM      7  C   UNL     1      -4.673   1.743   5.568  0.00  0.00    +0.070 A 
ATOM      8  S   UNL     1      -3.533   0.998   4.413  0.00  0.00    -0.060 S 
ATOM      9  H   UNL     1      -4.626   1.269   0.960  0.00  0.00    +0.157 HD
ENDROOT
BRANCH   1  10
ATOM     10  C   UNL     1      -2.520   0.013   0.015  0.00  0.00    +0.134 C 
BRANCH  10  13
ATOM     11  C   UNL     1      -0.018   1.503   0.010  0.00  0.00    +0.066 C 
ATOM     12  C   UNL     1       0.002  -0.004   0.002  0.00  0.00    +0.047 A 
ATOM     13  C   UNL     1      -1.202  -0.717   0.004  0.00  0.00    +0.004 A 
ATOM     14  C   UNL     1      -1.169  -2.075  -0.004  0.00  0.00    +0.049 A 
ATOM     15  N   UNL     1       0.035  -2.706  -0.014  0.00  0.00    -0.200 N 
ATOM     16  C   UNL     1       1.192  -1.980  -0.015  0.00  0.00    +0.254 A 
ATOM     17  N   UNL     1       1.151  -0.643  -0.012  0.00  0.00    -0.216 NA
ATOM     18  N   UNL     1       2.202  -2.844  -0.025  0.00  0.00    -0.183 NA
ATOM     19  C   UNL     1       1.728  -4.088  -0.030  0.00  0.00    +0.211 A 
ATOM     20  N   UNL     1       0.410  -4.055  -0.023  0.00  0.00    -0.137 NA
ATOM     21  C   UNL     1      -2.449  -2.871  -0.002  0.00  0.00    +0.066 C 
BRANCH  19  22
ATOM     22  S   UNL     1       2.710  -5.551  -0.044  0.00  0.00    -0.088 S 
ATOM     23  C   UNL     1       4.416  -4.935  -0.049  0.00  0.00    +0.093 C 
ENDBRANCH  19  22
ENDBRANCH  10  13
ENDBRANCH   1  10
BRANCH   6  24
ATOM     24  C   UNL     1      -6.859   2.905   5.230  0.00  0.00    -0.022 C 
BRANCH  24  25
ATOM     25  N   UNL     1      -6.638   4.356   5.162  0.00  0.00    +0.384 N 
ATOM     26  C   UNL     1      -5.551   4.726   6.077  0.00  0.00    -0.075 C 
ATOM     27  C   UNL     1      -5.262   6.224   5.952  0.00  0.00    -0.031 C 
ATOM     28  C   UNL     1      -6.524   7.014   6.309  0.00  0.00    +0.003 C 
ATOM     29  C   UNL     1      -7.670   6.566   5.397  0.00  0.00    -0.031 C 
ATOM     30  C   UNL     1      -7.870   5.056   5.543  0.00  0.00    -0.075 C 
ATOM     31  C   UNL     1      -8.955   7.294   5.796  0.00  0.00    +0.005 C 
ATOM     32  C   UNL     1      -4.130   6.607   6.907  0.00  0.00    +0.005 C 
ATOM     33  H   UNL     1      -6.383   4.613   4.220  0.00  0.00    -0.081 HD
ENDBRANCH  24  25
ENDBRANCH   6  24
TORSDOF 5
