REMARK  Name = ZINC39531043
REMARK  11 active torsions:
REMARK  status: ('A' for Active; 'I' for Inactive)
REMARK    1  A    between atoms: C_1  and  C_2
REMARK    2  A    between atoms: C_2  and  O_3
REMARK    3  A    between atoms: O_3  and  N_4
REMARK    4  A    between atoms: N_4  and  C_5
REMARK    5  A    between atoms: C_5  and  C_6
REMARK    6  A    between atoms: C_6  and  C_8
REMARK    7  A    between atoms: C_6  and  N_21
REMARK    8  A    between atoms: C_11  and  C_14
REMARK    9  A    between atoms: C_14  and  C_15
REMARK   10  A    between atoms: C_25  and  C_28
REMARK   11  A    between atoms: C_33  and  O_34
REMARK                            x       y       z     vdW  Elec       q    Type
REMARK                         _______ _______ _______ _____ _____    ______ ____
ROOT
ATOM      1  C   UNL     1       1.555  -3.877   2.523  0.00  0.00    +0.103 C 
ENDROOT
BRANCH   1   2
ATOM      2  N   UNL     1       0.112  -3.906   2.799  0.00  0.00    -0.297 NA
ATOM      3  C   UNL     1      -0.638  -4.392   1.632  0.00  0.00    +0.066 C 
ATOM      4  C   UNL     1      -2.126  -4.464   1.980  0.00  0.00    -0.066 C 
ATOM      5  N   UNL     1      -2.603  -3.131   2.369  0.00  0.00    +0.385 N 
ATOM      6  C   UNL     1      -1.862  -2.670   3.551  0.00  0.00    -0.023 C 
ATOM      7  C   UNL     1      -0.371  -2.582   3.216  0.00  0.00    +0.074 C 
ATOM      8  H   UNL     1      -2.457  -2.485   1.608  0.00  0.00    -0.085 HD
ATOM      9  H   UNL     1      -3.588  -3.176   2.587  0.00  0.00    -0.085 HD
BRANCH   6  10
ATOM     10  C   UNL     1      -2.365  -1.309   3.960  0.00  0.00    -0.019 A 
ATOM     11  C   UNL     1      -3.057  -0.527   3.056  0.00  0.00    +0.005 A 
ATOM     12  C   UNL     1      -3.519   0.721   3.431  0.00  0.00    +0.000 A 
ATOM     13  C   UNL     1      -3.290   1.190   4.711  0.00  0.00    +0.004 A 
ATOM     14  C   UNL     1      -2.599   0.411   5.619  0.00  0.00    +0.045 A 
ATOM     15  C   UNL     1      -2.139  -0.844   5.247  0.00  0.00    +0.118 A 
BRANCH  15  16
ATOM     16  O   UNL     1      -1.464  -1.614   6.141  0.00  0.00    -0.507 OA
ATOM     17  H   UNL     1      -0.507  -1.476   6.135  0.00  0.00    +0.292 HD
ENDBRANCH  15  16
ENDBRANCH   6  10
ENDBRANCH   1   2
BRANCH   1  18
ATOM     18  C   UNL     1       2.316  -3.927   3.822  0.00  0.00    -0.029 A 
ATOM     19  C   UNL     1       1.651  -3.748   5.021  0.00  0.00    +0.005 A 
ATOM     20  C   UNL     1       2.349  -3.794   6.213  0.00  0.00    +0.004 A 
ATOM     21  C   UNL     1       3.713  -4.020   6.206  0.00  0.00    -0.043 A 
ATOM     22  C   UNL     1       4.378  -4.201   5.008  0.00  0.00    +0.004 A 
ATOM     23  C   UNL     1       3.679  -4.159   3.816  0.00  0.00    +0.005 A 
BRANCH  21  24
ATOM     24  C   UNL     1       4.474  -4.070   7.506  0.00  0.00    +0.070 C 
BRANCH  24  25
ATOM     25  C   UNL     1       4.496  -5.486   8.021  0.00  0.00    -0.043 A 
ATOM     26  C   UNL     1       3.489  -5.933   8.856  0.00  0.00    +0.004 A 
ATOM     27  C   UNL     1       3.509  -7.232   9.329  0.00  0.00    +0.000 A 
ATOM     28  C   UNL     1       4.536  -8.083   8.967  0.00  0.00    +0.000 A 
ATOM     29  C   UNL     1       5.543  -7.636   8.132  0.00  0.00    +0.000 A 
ATOM     30  C   UNL     1       5.521  -6.339   7.656  0.00  0.00    +0.004 A 
ENDBRANCH  24  25
ENDBRANCH  21  24
ENDBRANCH   1  18
BRANCH   1  31
ATOM     31  C   UNL     1       1.905  -2.587   1.776  0.00  0.00    +0.134 C 
BRANCH  31  32
ATOM     32  N   UNL     1       1.124  -2.514   0.534  0.00  0.00    -0.199 NA
ATOM     33  H   UNL     1       1.276  -3.332  -0.037  0.00  0.00    +0.154 HD
BRANCH  32  34
ATOM     34  O   UNL     1       1.434  -1.291  -0.208  0.00  0.00    -0.300 OA
BRANCH  34  36
ATOM     35  C   UNL     1       1.109   0.153  -2.118  0.00  0.00    +0.036 C 
ATOM     36  C   UNL     1       0.708  -1.154  -1.431  0.00  0.00    +0.182 C 
ENDBRANCH  34  36
ENDBRANCH  32  34
ENDBRANCH  31  32
ENDBRANCH   1  31
TORSDOF 10
