REMARK  Name = ZINC01372637
REMARK  11 active torsions:
REMARK  status: ('A' for Active; 'I' for Inactive)
REMARK    1  A    between atoms: C_1  and  C_2
REMARK    2  A    between atoms: C_2  and  O_3
REMARK    3  A    between atoms: O_3  and  C_4
REMARK    4  A    between atoms: C_9  and  C_10
REMARK    5  A    between atoms: C_10  and  C_12
REMARK    6  A    between atoms: C_10  and  N_22
REMARK    7  A    between atoms: N_14  and  C_15
REMARK    8  A    between atoms: C_15  and  C_16
REMARK    9  A    between atoms: N_22  and  C_23
REMARK   10  A    between atoms: C_29  and  C_31
REMARK   11  A    between atoms: C_31  and  N_32
REMARK                            x       y       z     vdW  Elec       q    Type
REMARK                         _______ _______ _______ _____ _____    ______ ____
ROOT
ATOM      1  C   UNL     1       1.098   3.462   0.084  0.00  0.00    +0.201 C 
ENDROOT
BRANCH   1   7
ATOM      2  C   UNL     1       2.126   1.177   0.167  0.00  0.00    +0.126 A 
ATOM      3  C   UNL     1       2.030  -0.205   0.075  0.00  0.00    +0.046 A 
ATOM      4  C   UNL     1       0.811  -0.794  -0.198  0.00  0.00    +0.004 A 
ATOM      5  C   UNL     1      -0.313  -0.009  -0.378  0.00  0.00    +0.001 A 
ATOM      6  C   UNL     1      -0.220   1.367  -0.287  0.00  0.00    +0.009 A 
ATOM      7  C   UNL     1       0.997   1.962  -0.015  0.00  0.00    +0.024 A 
BRANCH   2   8
ATOM      8  O   UNL     1       3.324   1.759   0.435  0.00  0.00    -0.492 OA
BRANCH   8  10
ATOM      9  C   UNL     1       5.695   1.720   0.902  0.00  0.00    +0.048 C 
ATOM     10  C   UNL     1       4.444   0.889   0.610  0.00  0.00    +0.225 C 
ENDBRANCH   8  10
ENDBRANCH   2   8
ENDBRANCH   1   7
BRANCH   1  11
ATOM     11  C   UNL     1       1.149   3.868   1.534  0.00  0.00    +0.239 C 
ATOM     12  O   UNL     1       0.294   4.596   1.991  0.00  0.00    -0.273 OA
ATOM     13  N   UNL     1       2.147   3.422   2.324  0.00  0.00    -0.309 N 
ATOM     14  H   UNL     1       2.831   2.840   1.958  0.00  0.00    +0.149 HD
BRANCH  13  15
ATOM     15  C   UNL     1       2.197   3.816   3.734  0.00  0.00    +0.139 C 
BRANCH  15  16
ATOM     16  C   UNL     1       3.400   3.188   4.389  0.00  0.00    -0.030 A 
ATOM     17  C   UNL     1       3.292   1.945   4.985  0.00  0.00    +0.005 A 
ATOM     18  C   UNL     1       4.396   1.366   5.581  0.00  0.00    +0.000 A 
ATOM     19  C   UNL     1       5.606   2.035   5.591  0.00  0.00    +0.000 A 
ATOM     20  C   UNL     1       5.713   3.280   4.999  0.00  0.00    +0.000 A 
ATOM     21  C   UNL     1       4.610   3.856   4.398  0.00  0.00    +0.005 A 
ENDBRANCH  15  16
ENDBRANCH  13  15
ENDBRANCH   1  11
BRANCH   1  22
ATOM     22  N   UNL     1      -0.071   4.073  -0.553  0.00  0.00    -0.254 N 
ATOM     23  C   UNL     1      -1.292   3.926  -0.002  0.00  0.00    +0.242 C 
ATOM     24  O   UNL     1      -1.436   3.224   0.977  0.00  0.00    -0.273 OA
BRANCH  22  25
ATOM     25  C   UNL     1       0.080   4.809  -1.734  0.00  0.00    +0.037 A 
ATOM     26  C   UNL     1      -0.605   4.432  -2.881  0.00  0.00    +0.023 A 
ATOM     27  C   UNL     1      -0.458   5.164  -4.043  0.00  0.00    +0.002 A 
ATOM     28  C   UNL     1       0.379   6.265  -4.068  0.00  0.00    +0.000 A 
ATOM     29  C   UNL     1       1.066   6.640  -2.928  0.00  0.00    +0.002 A 
ATOM     30  C   UNL     1       0.919   5.915  -1.761  0.00  0.00    +0.023 A 
ENDBRANCH  22  25
BRANCH  23  31
ATOM     31  C   UNL     1      -2.480   4.634  -0.602  0.00  0.00    +0.242 C 
BRANCH  31  32
ATOM     32  N   UNL     1      -3.654   4.424   0.248  0.00  0.00    -0.235 N 
ATOM     33  C   UNL     1      -4.062   5.213   1.297  0.00  0.00    +0.090 A 
ATOM     34  C   UNL     1      -3.569   6.375   1.881  0.00  0.00    +0.029 A 
ATOM     35  C   UNL     1      -4.223   6.933   2.944  0.00  0.00    +0.002 A 
ATOM     36  C   UNL     1      -5.378   6.347   3.448  0.00  0.00    +0.002 A 
ATOM     37  C   UNL     1      -5.881   5.207   2.894  0.00  0.00    +0.032 A 
ATOM     38  C   UNL     1      -5.230   4.616   1.803  0.00  0.00    +0.113 A 
ATOM     39  N   UNL     1      -5.481   3.518   1.064  0.00  0.00    -0.129 NA
ATOM     40  N   UNL     1      -4.588   3.382   0.148  0.00  0.00    -0.064 NA
ENDBRANCH  31  32
ENDBRANCH  23  31
ENDBRANCH   1  22
TORSDOF 10
