REMARK  Name = ZINC11243685
REMARK  9 active torsions:
REMARK  status: ('A' for Active; 'I' for Inactive)
REMARK    1  A    between atoms: C_1  and  C_2
REMARK    2  A    between atoms: C_2  and  C_4
REMARK    3  A    between atoms: C_2  and  O_16
REMARK    4  A    between atoms: N_6  and  C_7
REMARK    5  A    between atoms: C_12  and  N_13
REMARK    6  A    between atoms: O_16  and  C_17
REMARK    7  A    between atoms: C_17  and  C_19
REMARK    8  A    between atoms: N_22  and  S_25
REMARK    9  A    between atoms: S_25  and  C_28
REMARK                            x       y       z     vdW  Elec       q    Type
REMARK                         _______ _______ _______ _____ _____    ______ ____
ROOT
ATOM      1  C   UNL     1       2.280   0.829   0.594  0.00  0.00    +0.311 C 
ATOM      2  O   UNL     1       1.965  -0.218   1.110  0.00  0.00    -0.251 OA
ENDROOT
BRANCH   1   3
ATOM      3  C   UNL     1       3.718   1.279   0.619  0.00  0.00    +0.100 C 
ATOM      4  C   UNL     1       4.228   1.436  -0.815  0.00  0.00    +0.032 C 
ATOM      5  C   UNL     1       5.678   1.927  -0.786  0.00  0.00    +0.110 C 
ATOM      6  N   UNL     1       6.473   1.007   0.039  0.00  0.00    -0.177 NA
ATOM      7  C   UNL     1       6.020   0.714   1.406  0.00  0.00    +0.110 C 
ATOM      8  C   UNL     1       4.566   0.237   1.353  0.00  0.00    +0.032 C 
BRANCH   6   9
ATOM      9  S   UNL     1       7.852   0.312  -0.560  0.00  0.00    +0.061 S 
ATOM     10  O   UNL     1       8.317   1.164  -1.598  0.00  0.00    -0.153 OA
ATOM     11  O   UNL     1       8.654  -0.030   0.562  0.00  0.00    -0.153 OA
BRANCH   9  12
ATOM     12  C   UNL     1       7.382  -1.204  -1.325  0.00  0.00    +0.106 A 
ATOM     13  C   UNL     1       7.365  -2.373  -0.588  0.00  0.00    +0.030 A 
ATOM     14  C   UNL     1       6.992  -3.562  -1.186  0.00  0.00    +0.022 A 
ATOM     15  C   UNL     1       6.645  -3.583  -2.525  0.00  0.00    +0.041 A 
ATOM     16  C   UNL     1       6.667  -2.413  -3.264  0.00  0.00    +0.022 A 
ATOM     17  C   UNL     1       7.036  -1.224  -2.663  0.00  0.00    +0.030 A 
ATOM     18 CL   UNL     1       6.182  -5.077  -3.279  0.00  0.00    -0.084 Cl
ENDBRANCH   9  12
ENDBRANCH   6   9
ENDBRANCH   1   3
BRANCH   1  19
ATOM     19  O   UNL     1       1.348   1.590  -0.001  0.00  0.00    -0.452 OA
BRANCH  19  21
ATOM     20  C   UNL     1      -0.732   1.605   1.266  0.00  0.00    +0.062 C 
ATOM     21  C   UNL     1      -0.016   1.094   0.014  0.00  0.00    +0.259 C 
BRANCH  21  22
ATOM     22  C   UNL     1      -0.741   1.582  -1.214  0.00  0.00    +0.258 C 
ATOM     23  O   UNL     1      -0.165   2.280  -2.022  0.00  0.00    -0.271 OA
ATOM     24  N   UNL     1      -2.030   1.244  -1.415  0.00  0.00    -0.281 N 
ATOM     25  H   UNL     1      -2.468   0.622  -0.812  0.00  0.00    +0.155 HD
BRANCH  24  26
ATOM     26  C   UNL     1      -2.738   1.790  -2.491  0.00  0.00    +0.064 A 
ATOM     27  C   UNL     1      -2.355   3.013  -3.027  0.00  0.00    +0.025 A 
ATOM     28  C   UNL     1      -3.053   3.547  -4.092  0.00  0.00    +0.002 A 
ATOM     29  C   UNL     1      -4.137   2.871  -4.620  0.00  0.00    +0.002 A 
ATOM     30  C   UNL     1      -4.524   1.655  -4.086  0.00  0.00    +0.034 A 
ATOM     31  C   UNL     1      -3.827   1.113  -3.023  0.00  0.00    +0.147 A 
BRANCH  31  32
ATOM     32  N   UNL     1      -4.242  -0.188  -2.452  0.00  0.00    +0.058 N 
ATOM     33  O   UNL     1      -5.140  -0.824  -2.974  0.00  0.00    -0.126 OA
ATOM     34  O   UNL     1      -3.686  -0.622  -1.459  0.00  0.00    -0.126 OA
ENDBRANCH  31  32
ENDBRANCH  24  26
ENDBRANCH  21  22
ENDBRANCH  19  21
ENDBRANCH   1  19
TORSDOF 8
