REMARK  Name = ZINC63193889
REMARK  5 active torsions:
REMARK  status: ('A' for Active; 'I' for Inactive)
REMARK    1  A    between atoms: C_1  and  C_2
REMARK    2  A    between atoms: C_2  and  C_4
REMARK    3  A    between atoms: C_2  and  N_22
REMARK    4  A    between atoms: N_10  and  S_11
REMARK    5  A    between atoms: S_11  and  C_14
REMARK                            x       y       z     vdW  Elec       q    Type
REMARK                         _______ _______ _______ _____ _____    ______ ____
ROOT
ATOM      1  C   UNL     1      -1.463  -0.428   0.147  0.00  0.00    +0.065 C 
ATOM      2  C   UNL     1      -2.323  -0.063  -1.067  0.00  0.00    +0.019 C 
ATOM      3  C   UNL     1      -3.744  -0.591  -0.857  0.00  0.00    +0.003 C 
ATOM      4  C   UNL     1      -3.710  -2.116  -0.731  0.00  0.00    +0.017 C 
ATOM      5  C   UNL     1      -2.865  -2.505   0.487  0.00  0.00    +0.110 C 
ATOM      6  N   UNL     1      -1.541  -1.879   0.366  0.00  0.00    -0.175 NA
ENDROOT
BRANCH   6   7
ATOM      7  S   UNL     1      -0.163  -2.792   0.471  0.00  0.00    +0.061 S 
ATOM      8  O   UNL     1      -0.313  -3.861  -0.453  0.00  0.00    -0.153 OA
ATOM      9  O   UNL     1       0.930  -1.886   0.416  0.00  0.00    -0.153 OA
BRANCH   7  10
ATOM     10  C   UNL     1      -0.139  -3.515   2.078  0.00  0.00    +0.108 A 
ATOM     11  C   UNL     1       0.393  -2.813   3.143  0.00  0.00    +0.048 A 
ATOM     12  C   UNL     1       0.413  -3.380   4.405  0.00  0.00    +0.044 A 
ATOM     13  C   UNL     1      -0.099  -4.651   4.600  0.00  0.00    +0.040 A 
ATOM     14  C   UNL     1      -0.631  -5.353   3.533  0.00  0.00    +0.044 A 
ATOM     15  C   UNL     1      -0.655  -4.782   2.273  0.00  0.00    +0.048 A 
ATOM     16 CL   UNL     1      -1.273  -6.947   3.777  0.00  0.00    -0.083 Cl
ATOM     17 CL   UNL     1       1.081  -2.499   5.742  0.00  0.00    -0.083 Cl
ENDBRANCH   7  10
ENDBRANCH   6   7
BRANCH   1  19
ATOM     18  C   UNL     1       0.498  -0.741  -1.369  0.00  0.00    -0.013 C 
ATOM     19  C   UNL     1      -0.010  -0.027  -0.115  0.00  0.00    -0.059 C 
BRANCH  19  20
ATOM     20  N   UNL     1       0.068   1.427  -0.313  0.00  0.00    +0.381 N 
ATOM     21  H   UNL     1      -0.417   1.677  -1.161  0.00  0.00    -0.090 HD
ATOM     22  H   UNL     1      -0.360   1.896   0.471  0.00  0.00    -0.090 HD
ATOM     23  H   UNL     1       1.036   1.705  -0.384  0.00  0.00    -0.090 HD
ENDBRANCH  19  20
ENDBRANCH   1  19
TORSDOF 4
