REMARK  Name = ZINC12901729
REMARK  6 active torsions:
REMARK  status: ('A' for Active; 'I' for Inactive)
REMARK    1  A    between atoms: C_1  and  C_2
REMARK    2  A    between atoms: C_5  and  N_8
REMARK    3  A    between atoms: C_13  and  C_37
REMARK    4  A    between atoms: C_37  and  C_38
REMARK    5  A    between atoms: C_38  and  C_39
REMARK    6  A    between atoms: C_38  and  C_40
REMARK                            x       y       z     vdW  Elec       q    Type
REMARK                         _______ _______ _______ _____ _____    ______ ____
ROOT
ATOM      1  N   UNL     1       1.930   6.622  -1.319  0.00  0.00    -0.210 N 
ATOM      2  C   UNL     1       3.170   6.859  -0.875  0.00  0.00    +0.228 C 
ATOM      3  O   UNL     1       3.622   7.952  -0.609  0.00  0.00    -0.275 OA
ATOM      4  C   UNL     1       3.919   5.551  -0.756  0.00  0.00    +0.073 C 
ATOM      5  C   UNL     1       4.175   5.244   0.735  0.00  0.00    -0.057 C 
ATOM      6  C   UNL     1       2.597   3.663   0.051  0.00  0.00    +0.032 C 
ATOM      7  C   UNL     1       2.872   4.495  -1.207  0.00  0.00    +0.087 C 
ATOM      8  C   UNL     1       1.656   5.331  -1.539  0.00  0.00    +0.229 C 
ATOM      9  O   UNL     1       0.598   4.899  -1.943  0.00  0.00    -0.275 OA
ATOM     10  C   UNL     1       1.166   3.217   0.119  0.00  0.00    -0.026 A 
ATOM     11  C   UNL     1      -0.035   3.893   0.153  0.00  0.00    +0.005 A 
ATOM     12  C   UNL     1      -1.224   3.188   0.215  0.00  0.00    +0.000 A 
ATOM     13  C   UNL     1      -1.205   1.805   0.237  0.00  0.00    +0.002 A 
ATOM     14  C   UNL     1      -0.005   1.126   0.210  0.00  0.00    +0.026 A 
ATOM     15  C   UNL     1       1.196   1.829   0.149  0.00  0.00    +0.053 A 
ATOM     16  N   UNL     1       2.520   1.362   0.111  0.00  0.00    -0.265 N 
ATOM     17  C   UNL     1       3.410   2.393   0.051  0.00  0.00    +0.112 A 
ATOM     18  N   UNL     1       4.700   2.216   0.006  0.00  0.00    -0.234 NA
ATOM     19  C   UNL     1       5.259   0.983   0.016  0.00  0.00    +0.078 A 
ATOM     20  C   UNL     1       6.643   0.803  -0.033  0.00  0.00    +0.028 A 
ATOM     21  C   UNL     1       7.166  -0.471  -0.018  0.00  0.00    +0.002 A 
ATOM     22  C   UNL     1       6.333  -1.581   0.044  0.00  0.00    +0.001 A 
ATOM     23  C   UNL     1       4.965  -1.428   0.093  0.00  0.00    +0.015 A 
ATOM     24  C   UNL     1       4.415  -0.148   0.078  0.00  0.00    +0.065 A 
ATOM     25  C   UNL     1       2.966   0.078   0.127  0.00  0.00    +0.266 A 
ATOM     26  O   UNL     1       2.187  -0.856   0.179  0.00  0.00    -0.267 OA
ATOM     27  N   UNL     1       2.973   4.522   1.160  0.00  0.00    +0.393 N 
ATOM     28  H   UNL     1       2.217   5.184   1.368  0.00  0.00    -0.084 HD
ATOM     29  H   UNL     1       3.174   3.958   1.994  0.00  0.00    -0.084 HD
ENDROOT
BRANCH   1  34
ATOM     30  C   UNL     1      -1.858  10.757  -2.197  0.00  0.00    +0.044 C 
ATOM     31  C   UNL     1      -0.852   9.659  -1.964  0.00  0.00    -0.050 A 
ATOM     32  C   UNL     1      -0.434   9.368  -0.679  0.00  0.00    +0.005 A 
ATOM     33  C   UNL     1       0.488   8.363  -0.462  0.00  0.00    +0.024 A 
ATOM     34  C   UNL     1       0.994   7.644  -1.536  0.00  0.00    +0.044 A 
ATOM     35  C   UNL     1       0.577   7.942  -2.826  0.00  0.00    +0.024 A 
ATOM     36  C   UNL     1      -0.349   8.945  -3.036  0.00  0.00    +0.005 A 
ENDBRANCH   1  34
BRANCH   5  37
ATOM     37  C   UNL     1       4.354   6.543   1.523  0.00  0.00    -0.012 C 
BRANCH  37  38
ATOM     38  C   UNL     1       4.655   6.213   2.987  0.00  0.00    -0.019 C 
ATOM     39  C   UNL     1       6.001   5.493   3.082  0.00  0.00    +0.007 C 
ATOM     40  C   UNL     1       4.711   7.508   3.800  0.00  0.00    +0.007 C 
ENDBRANCH  37  38
ENDBRANCH   5  37
TORSDOF 3
