REMARK  Name = ZINC36821093
REMARK  10 active torsions:
REMARK  status: ('A' for Active; 'I' for Inactive)
REMARK    1  A    between atoms: C_1  and  C_2
REMARK    2  A    between atoms: C_3  and  C_31
REMARK    3  A    between atoms: N_9  and  C_28
REMARK    4  A    between atoms: C_10  and  S_12
REMARK    5  A    between atoms: S_12  and  C_13
REMARK    6  A    between atoms: C_13  and  C_15
REMARK    7  A    between atoms: C_13  and  C_16
REMARK    8  A    between atoms: N_18  and  C_19
REMARK    9  A    between atoms: C_28  and  C_29
REMARK   10  A    between atoms: C_28  and  C_30
REMARK                            x       y       z     vdW  Elec       q    Type
REMARK                         _______ _______ _______ _____ _____    ______ ____
ROOT
ATOM      1  S   UNL     1       0.069  -3.589   4.762  0.00  0.00    -0.075 S 
ENDROOT
BRANCH   1  11
ATOM      2  C   UNL     1      -0.098   1.519   0.035  0.00  0.00    +0.045 C 
ATOM      3  C   UNL     1      -0.068   0.012   0.022  0.00  0.00    -0.026 A 
ATOM      4  C   UNL     1      -0.065  -0.657  -1.140  0.00  0.00    -0.008 A 
ATOM      5  S   UNL     1      -0.026  -2.366  -0.635  0.00  0.00    -0.073 S 
ATOM      6  C   UNL     1      -0.015  -2.133   1.124  0.00  0.00    +0.117 A 
ATOM      7  C   UNL     1      -0.036  -0.733   1.269  0.00  0.00    +0.075 A 
ATOM      8  C   UNL     1      -0.028  -0.246   2.614  0.00  0.00    +0.263 A 
ATOM      9  O   UNL     1      -0.049   0.952   2.838  0.00  0.00    -0.267 OA
ATOM     10  N   UNL     1       0.004  -1.129   3.630  0.00  0.00    -0.285 N 
ATOM     11  C   UNL     1       0.028  -2.474   3.399  0.00  0.00    +0.174 A 
ATOM     12  N   UNL     1       0.011  -2.949   2.170  0.00  0.00    -0.216 NA
ATOM     13  C   UNL     1      -0.089  -0.097  -2.539  0.00  0.00    +0.052 C 
BRANCH  10  14
ATOM     14  C   UNL     1       0.013  -0.636   5.010  0.00  0.00    +0.087 C 
ATOM     15  C   UNL     1       1.248   0.239   5.231  0.00  0.00    +0.031 C 
ATOM     16  C   UNL     1      -1.250   0.189   5.265  0.00  0.00    +0.031 C 
ENDBRANCH  10  14
ENDBRANCH   1  11
BRANCH   1  17
ATOM     17  C   UNL     1       0.091  -5.229   3.987  0.00  0.00    +0.137 C 
ATOM     18  C   UNL     1       1.392  -5.403   3.201  0.00  0.00    +0.029 C 
BRANCH  17  19
ATOM     19  C   UNL     1       0.003  -6.290   5.054  0.00  0.00    +0.230 C 
ATOM     20  O   UNL     1       0.293  -6.022   6.201  0.00  0.00    -0.274 OA
ATOM     21  N   UNL     1      -0.397  -7.536   4.733  0.00  0.00    -0.282 N 
ATOM     22  H   UNL     1      -0.690  -7.734   3.829  0.00  0.00    +0.155 HD
BRANCH  21  23
ATOM     23  C   UNL     1      -0.390  -8.546   5.704  0.00  0.00    +0.072 A 
ATOM     24  C   UNL     1      -0.685  -8.242   7.026  0.00  0.00    +0.029 A 
ATOM     25  C   UNL     1      -0.678  -9.238   7.983  0.00  0.00    +0.043 A 
ATOM     26  C   UNL     1      -0.376 -10.541   7.627  0.00  0.00    +0.161 A 
ATOM     27  C   UNL     1      -0.081 -10.850   6.308  0.00  0.00    +0.195 A 
ATOM     28  C   UNL     1      -0.093  -9.856   5.344  0.00  0.00    +0.182 A 
ATOM     29  F   UNL     1       0.189 -10.156   4.058  0.00  0.00    -0.200 F 
ATOM     30  F   UNL     1       0.214 -12.123   5.962  0.00  0.00    -0.199 F 
ATOM     31  F   UNL     1      -0.370 -11.513   8.565  0.00  0.00    -0.202 F 
ENDBRANCH  21  23
ENDBRANCH  17  19
ENDBRANCH   1  17
TORSDOF 5
