REMARK  Name = ZINC13192558
REMARK  9 active torsions:
REMARK  status: ('A' for Active; 'I' for Inactive)
REMARK    1  A    between atoms: C_3  and  O_29
REMARK    2  A    between atoms: C_6  and  C_7
REMARK    3  A    between atoms: C_7  and  N_8
REMARK    4  A    between atoms: N_8  and  C_9
REMARK    5  A    between atoms: C_12  and  S_18
REMARK    6  A    between atoms: C_14  and  N_15
REMARK    7  A    between atoms: S_18  and  N_21
REMARK    8  A    between atoms: C_24  and  C_27
REMARK    9  A    between atoms: O_29  and  C_30
REMARK                            x       y       z     vdW  Elec       q    Type
REMARK                         _______ _______ _______ _____ _____    ______ ____
ROOT
ATOM      1  C   UNL     1       1.073  -5.786   0.896  0.00  0.00    +0.058 A 
ATOM      2  C   UNL     1      -0.118  -5.162   0.545  0.00  0.00    +0.027 A 
ATOM      3  C   UNL     1      -0.291  -3.816   0.799  0.00  0.00    +0.030 A 
ATOM      4  C   UNL     1       0.723  -3.086   1.394  0.00  0.00    +0.108 A 
ATOM      5  C   UNL     1       1.909  -3.704   1.745  0.00  0.00    +0.063 A 
ATOM      6  C   UNL     1       2.087  -5.052   1.498  0.00  0.00    +0.149 A 
ENDROOT
BRANCH   6   7
ATOM      7  N   UNL     1       3.356  -5.713   1.874  0.00  0.00    +0.058 N 
ATOM      8  O   UNL     1       3.927  -5.395   2.902  0.00  0.00    -0.126 OA
ATOM      9  O   UNL     1       3.831  -6.574   1.156  0.00  0.00    -0.126 OA
ENDBRANCH   6   7
BRANCH   4  10
ATOM     10  S   UNL     1       0.500  -1.367   1.711  0.00  0.00    +0.061 S 
ATOM     11  O   UNL     1       1.382  -1.033   2.774  0.00  0.00    -0.153 OA
ATOM     12  O   UNL     1      -0.902  -1.147   1.786  0.00  0.00    -0.153 OA
BRANCH  10  13
ATOM     13  N   UNL     1       1.037  -0.549   0.375  0.00  0.00    -0.177 NA
ATOM     14  C   UNL     1       0.120  -0.237  -0.730  0.00  0.00    +0.110 C 
ATOM     15  C   UNL     1       0.183   1.267  -1.013  0.00  0.00    +0.032 C 
ATOM     16  C   UNL     1       1.637   1.673  -1.268  0.00  0.00    +0.105 C 
ATOM     17  C   UNL     1       2.476   1.381  -0.022  0.00  0.00    +0.032 C 
ATOM     18  C   UNL     1       2.439  -0.122   0.272  0.00  0.00    +0.110 C 
BRANCH  16  19
ATOM     19  C   UNL     1       1.699   3.146  -1.581  0.00  0.00    +0.359 C 
ATOM     20  O   UNL     1       0.685   3.803  -1.598  0.00  0.00    -0.246 OA
ATOM     21  O   UNL     1       2.880   3.728  -1.840  0.00  0.00    -0.246 OA
ENDBRANCH  16  19
ENDBRANCH  10  13
ENDBRANCH   4  10
BRANCH   1  22
ATOM     22  N   UNL     1       1.249  -7.149   0.646  0.00  0.00    -0.338 N 
ATOM     23  H   UNL     1       2.044  -7.602   0.967  0.00  0.00    +0.146 HD
BRANCH  22  24
ATOM     24  C   UNL     1       0.233  -7.893  -0.103  0.00  0.00    +0.137 C 
BRANCH  24  30
ATOM     25  C   UNL     1       1.415  -9.731  -1.323  0.00  0.00    +0.009 A 
ATOM     26  C   UNL     1       1.813 -11.048  -1.443  0.00  0.00    +0.046 A 
ATOM     27  C   UNL     1       1.446 -11.974  -0.477  0.00  0.00    +0.127 A 
ATOM     28  C   UNL     1       0.684 -11.572   0.611  0.00  0.00    +0.046 A 
ATOM     29  C   UNL     1       0.293 -10.252   0.730  0.00  0.00    +0.009 A 
ATOM     30  C   UNL     1       0.661  -9.332  -0.235  0.00  0.00    -0.030 A 
BRANCH  27  31
ATOM     31  O   UNL     1       1.832 -13.271  -0.596  0.00  0.00    -0.434 OA
BRANCH  31  32
ATOM     32  C   UNL     1       2.614 -13.613  -1.741  0.00  0.00    +0.541 C 
ATOM     33  F   UNL     1       1.889 -13.329  -2.903  0.00  0.00    -0.166 F 
ATOM     34  F   UNL     1       3.798 -12.868  -1.737  0.00  0.00    -0.166 F 
ENDBRANCH  31  32
ENDBRANCH  27  31
ENDBRANCH  24  30
ENDBRANCH  22  24
ENDBRANCH   1  22
TORSDOF 9
