REMARK  Name = ZINC38577915
REMARK  7 active torsions:
REMARK  status: ('A' for Active; 'I' for Inactive)
REMARK    1  A    between atoms: C_1  and  O_2
REMARK    2  A    between atoms: O_2  and  C_3
REMARK    3  A    between atoms: C_6  and  N_9
REMARK    4  A    between atoms: C_12  and  C_14
REMARK    5  A    between atoms: N_20  and  C_23
REMARK    6  A    between atoms: C_26  and  C_29
REMARK    7  A    between atoms: C_29  and  C_32
REMARK                            x       y       z     vdW  Elec       q    Type
REMARK                         _______ _______ _______ _____ _____    ______ ____
ROOT
ATOM      1  N   UNL     1      -0.901  -6.359  -4.854  0.00  0.00    -0.227 N 
ATOM      2  C   UNL     1       0.336  -6.881  -4.720  0.00  0.00    +0.133 A 
ATOM      3  C   UNL     1       0.752  -7.243  -6.002  0.00  0.00    +0.016 A 
ATOM      4  C   UNL     1      -0.284  -6.897  -6.842  0.00  0.00    +0.170 A 
ATOM      5  N   UNL     1      -1.241  -6.379  -6.100  0.00  0.00    -0.161 NA
ATOM      6  C   UNL     1       2.089  -7.883  -6.247  0.00  0.00    +0.059 C 
ATOM      7  C   UNL     1       3.062  -7.421  -5.159  0.00  0.00    +0.119 C 
ATOM      8  N   UNL     1       2.482  -7.485  -3.823  0.00  0.00    -0.266 N 
ATOM      9  C   UNL     1       1.207  -7.114  -3.561  0.00  0.00    +0.270 C 
ATOM     10  O   UNL     1       0.803  -6.981  -2.421  0.00  0.00    -0.268 OA
ENDROOT
BRANCH   1  14
ATOM     11  C   UNL     1      -3.265  -4.922  -1.733  0.00  0.00    +0.120 A 
ATOM     12  C   UNL     1      -1.913  -4.612  -1.779  0.00  0.00    +0.048 A 
ATOM     13  C   UNL     1      -1.130  -5.088  -2.812  0.00  0.00    +0.031 A 
ATOM     14  C   UNL     1      -1.696  -5.877  -3.805  0.00  0.00    +0.066 A 
ATOM     15  C   UNL     1      -3.049  -6.187  -3.759  0.00  0.00    +0.031 A 
ATOM     16  C   UNL     1      -3.829  -5.715  -2.723  0.00  0.00    +0.048 A 
BRANCH  11  18
ATOM     17  C   UNL     1      -3.389  -3.644   0.268  0.00  0.00    +0.277 C 
ATOM     18  O   UNL     1      -4.035  -4.454  -0.716  0.00  0.00    -0.495 OA
ENDBRANCH  11  18
ENDBRANCH   1  14
BRANCH   8  19
ATOM     19  C   UNL     1       3.276  -7.948  -2.769  0.00  0.00    +0.037 A 
ATOM     20  C   UNL     1       2.982  -9.159  -2.156  0.00  0.00    +0.024 A 
ATOM     21  C   UNL     1       3.768  -9.613  -1.115  0.00  0.00    +0.006 A 
ATOM     22  C   UNL     1       4.847  -8.864  -0.684  0.00  0.00    -0.034 A 
ATOM     23  C   UNL     1       5.143  -7.658  -1.292  0.00  0.00    +0.006 A 
ATOM     24  C   UNL     1       4.364  -7.200  -2.337  0.00  0.00    +0.024 A 
BRANCH  22  25
ATOM     25  C   UNL     1       5.702  -9.362   0.452  0.00  0.00    +0.052 C 
ATOM     26  C   UNL     1       7.220  -9.319   0.266  0.00  0.00    +0.020 C 
ATOM     27  C   UNL     1       6.483 -10.659   0.232  0.00  0.00    +0.020 C 
BRANCH  25  28
ATOM     28  C   UNL     1       5.163  -9.101   1.835  0.00  0.00    +0.095 A 
ATOM     29  N   UNL     1       4.630 -10.007   2.638  0.00  0.00    -0.349 N 
ATOM     30  H   UNL     1       4.519 -10.950   2.437  0.00  0.00    +0.166 HD
ATOM     31  C   UNL     1       4.266  -9.395   3.784  0.00  0.00    +0.101 A 
ATOM     32  C   UNL     1       4.590  -8.092   3.664  0.00  0.00    +0.101 A 
ATOM     33  N   UNL     1       5.151  -7.928   2.448  0.00  0.00    -0.349 N 
ATOM     34  H   UNL     1       5.486  -7.093   2.084  0.00  0.00    +0.166 HD
ENDBRANCH  25  28
ENDBRANCH  22  25
ENDBRANCH   8  19
BRANCH   4  35
ATOM     35  C   UNL     1      -0.318  -7.082  -8.337  0.00  0.00    +0.436 C 
ATOM     36  F   UNL     1      -0.858  -8.336  -8.640  0.00  0.00    -0.164 F 
ATOM     37  F   UNL     1      -1.109  -6.082  -8.913  0.00  0.00    -0.164 F 
ATOM     38  F   UNL     1       0.982  -6.999  -8.847  0.00  0.00    -0.164 F 
ENDBRANCH   4  35
TORSDOF 6
