REMARK  Name = ZINC32087703
REMARK  3 active torsions:
REMARK  status: ('A' for Active; 'I' for Inactive)
REMARK    1  A    between atoms: C_1  and  C_2
REMARK    2  A    between atoms: C_4  and  C_28
REMARK    3  A    between atoms: C_6  and  N_8
REMARK                            x       y       z     vdW  Elec       q    Type
REMARK                         _______ _______ _______ _____ _____    ______ ____
ROOT
ATOM      1  N   UNL     1       0.053  -2.798   2.395  0.00  0.00    -0.218 N 
ATOM      2  C   UNL     1       0.673  -2.421   3.531  0.00  0.00    +0.133 A 
ATOM      3  C   UNL     1       0.430  -3.386   4.475  0.00  0.00    +0.032 A 
ATOM      4  C   UNL     1      -0.346  -4.373   3.887  0.00  0.00    +0.141 A 
ATOM      5  N   UNL     1      -0.580  -4.027   2.643  0.00  0.00    -0.173 NA
ATOM      6  C   UNL     1       0.959  -3.279   5.878  0.00  0.00    +0.111 C 
ATOM      7  C   UNL     1       2.245  -2.454   5.872  0.00  0.00    +0.122 C 
ATOM      8  C   UNL     1       2.111  -1.248   4.984  0.00  0.00    +0.220 C 
ATOM      9  O   UNL     1       2.633  -0.207   5.325  0.00  0.00    -0.275 OA
ATOM     10  N   UNL     1       1.430  -1.286   3.820  0.00  0.00    -0.270 N 
ATOM     11  C   UNL     1      -0.059  -2.684   6.798  0.00  0.00    -0.006 A 
ATOM     12  C   UNL     1      -0.687  -1.457   6.796  0.00  0.00    +0.009 A 
ATOM     13  C   UNL     1      -1.602  -1.214   7.814  0.00  0.00    +0.039 A 
ATOM     14  C   UNL     1      -1.869  -2.164   8.782  0.00  0.00    +0.125 A 
ATOM     15  C   UNL     1      -1.241  -3.402   8.790  0.00  0.00    +0.062 A 
ATOM     16  C   UNL     1      -0.320  -3.656   7.773  0.00  0.00    +0.041 A 
ATOM     17  N   UNL     1       0.442  -4.788   7.540  0.00  0.00    -0.284 N 
ATOM     18  C   UNL     1       1.223  -4.655   6.447  0.00  0.00    +0.233 C 
ATOM     19  O   UNL     1       1.992  -5.483   6.005  0.00  0.00    -0.274 OA
ATOM     20  F   UNL     1      -2.768  -1.879   9.750  0.00  0.00    -0.205 F 
ATOM     21  H   UNL     1       1.466  -0.542   3.199  0.00  0.00    +0.156 HD
ATOM     22  H   UNL     1       0.416  -5.582   8.095  0.00  0.00    +0.155 HD
ENDROOT
BRANCH   1  28
ATOM     23  C   UNL     1      -0.018   1.503   0.010  0.00  0.00    +0.044 C 
ATOM     24  C   UNL     1       0.002  -0.004   0.002  0.00  0.00    -0.048 A 
ATOM     25  C   UNL     1       0.006  -0.688  -1.200  0.00  0.00    +0.006 A 
ATOM     26  C   UNL     1       0.025  -2.071  -1.211  0.00  0.00    -0.048 A 
ATOM     27  C   UNL     1       0.040  -2.773  -0.022  0.00  0.00    +0.031 A 
ATOM     28  C   UNL     1       0.037  -2.089   1.186  0.00  0.00    +0.068 A 
ATOM     29  C   UNL     1       0.023  -0.700   1.195  0.00  0.00    +0.031 A 
ATOM     30  C   UNL     1       0.028  -2.812  -2.523  0.00  0.00    +0.044 C 
ENDBRANCH   1  28
TORSDOF 1
