REMARK  Name = ZINC36624553
REMARK  14 active torsions:
REMARK  status: ('A' for Active; 'I' for Inactive)
REMARK    1  A    between atoms: C_1  and  C_2
REMARK    2  A    between atoms: C_2  and  C_4
REMARK    3  A    between atoms: C_2  and  O_27
REMARK    4  A    between atoms: N_6  and  N_7
REMARK    5  A    between atoms: C_8  and  C_10
REMARK    6  A    between atoms: C_10  and  C_12
REMARK    7  A    between atoms: C_10  and  N_15
REMARK    8  A    between atoms: C_12  and  C_13
REMARK    9  A    between atoms: C_12  and  C_14
REMARK   10  A    between atoms: N_15  and  S_16
REMARK   11  A    between atoms: S_16  and  C_19
REMARK   12  A    between atoms: C_22  and  O_25
REMARK   13  A    between atoms: O_25  and  C_26
REMARK   14  A    between atoms: O_27  and  C_28
REMARK                            x       y       z     vdW  Elec       q    Type
REMARK                         _______ _______ _______ _____ _____    ______ ____
ROOT
ATOM      1  N   UNL     1       3.182  -1.710   2.817  0.00  0.00    -0.233 N 
ATOM      2  C   UNL     1       4.471  -1.411   3.074  0.00  0.00    +0.248 C 
ATOM      3  O   UNL     1       5.188  -1.003   2.185  0.00  0.00    -0.273 OA
ATOM      4  H   UNL     1       2.608  -2.036   3.527  0.00  0.00    +0.173 HD
ENDROOT
BRANCH   1   7
ATOM      5  C   UNL     1       1.381  -1.846   1.265  0.00  0.00    +0.270 C 
ATOM      6  O   UNL     1       0.664  -2.255   2.154  0.00  0.00    -0.270 OA
ATOM      7  N   UNL     1       2.670  -1.548   1.522  0.00  0.00    -0.231 N 
ATOM      8  H   UNL     1       3.243  -1.221   0.812  0.00  0.00    +0.173 HD
BRANCH   5  10
ATOM      9  C   UNL     1       0.847  -0.188  -0.500  0.00  0.00    +0.062 C 
ATOM     10  C   UNL     1       0.831  -1.672  -0.127  0.00  0.00    +0.257 C 
BRANCH  10  11
ATOM     11  O   UNL     1      -0.512  -2.160  -0.172  0.00  0.00    -0.480 OA
BRANCH  11  12
ATOM     12  C   UNL     1      -0.987  -2.546  -1.386  0.00  0.00    +0.122 A 
ATOM     13  C   UNL     1      -0.203  -2.350  -2.528  0.00  0.00    +0.046 A 
ATOM     14  C   UNL     1      -0.651  -2.726  -3.755  0.00  0.00    +0.012 A 
ATOM     15  C   UNL     1      -1.918  -3.322  -3.883  0.00  0.00    -0.018 A 
ATOM     16  C   UNL     1      -2.412  -3.723  -5.136  0.00  0.00    +0.008 A 
ATOM     17  C   UNL     1      -3.643  -4.297  -5.223  0.00  0.00    +0.001 A 
ATOM     18  C   UNL     1      -4.425  -4.494  -4.087  0.00  0.00    +0.001 A 
ATOM     19  C   UNL     1      -3.980  -4.118  -2.857  0.00  0.00    +0.008 A 
ATOM     20  C   UNL     1      -2.713  -3.522  -2.727  0.00  0.00    -0.014 A 
ATOM     21  C   UNL     1      -2.220  -3.127  -1.473  0.00  0.00    +0.054 A 
ENDBRANCH  11  12
ENDBRANCH  10  11
ENDBRANCH   5  10
ENDBRANCH   1   7
BRANCH   2  22
ATOM     22  C   UNL     1       5.021  -1.585   4.466  0.00  0.00    +0.166 C 
BRANCH  22  23
ATOM     23  C   UNL     1       4.236  -0.703   5.439  0.00  0.00    +0.010 C 
ATOM     24  C   UNL     1       4.701  -0.983   6.869  0.00  0.00    +0.009 C 
ATOM     25  C   UNL     1       4.480   0.769   5.102  0.00  0.00    +0.009 C 
ENDBRANCH  22  23
BRANCH  22  26
ATOM     26  N   UNL     1       6.434  -1.197   4.485  0.00  0.00    -0.178 NA
ATOM     27  H   UNL     1       6.685  -0.276   4.314  0.00  0.00    +0.149 HD
BRANCH  26  28
ATOM     28  S   UNL     1       7.600  -2.330   4.796  0.00  0.00    +0.059 S 
ATOM     29  O   UNL     1       8.850  -1.657   4.724  0.00  0.00    -0.153 OA
ATOM     30  O   UNL     1       7.181  -3.036   5.956  0.00  0.00    -0.153 OA
BRANCH  28  31
ATOM     31  C   UNL     1       7.573  -3.485   3.466  0.00  0.00    +0.105 A 
ATOM     32  C   UNL     1       6.756  -4.598   3.535  0.00  0.00    +0.032 A 
ATOM     33  C   UNL     1       6.733  -5.505   2.494  0.00  0.00    +0.047 A 
ATOM     34  C   UNL     1       7.531  -5.299   1.378  0.00  0.00    +0.120 A 
ATOM     35  C   UNL     1       8.350  -4.181   1.311  0.00  0.00    +0.047 A 
ATOM     36  C   UNL     1       8.365  -3.274   2.353  0.00  0.00    +0.032 A 
BRANCH  34  37
ATOM     37  O   UNL     1       7.511  -6.191   0.353  0.00  0.00    -0.495 OA
ATOM     38  C   UNL     1       8.358  -5.914  -0.764  0.00  0.00    +0.277 C 
ENDBRANCH  34  37
ENDBRANCH  28  31
ENDBRANCH  26  28
ENDBRANCH  22  26
ENDBRANCH   2  22
TORSDOF 10
