REMARK  Name = ZINC39884110
REMARK  4 active torsions:
REMARK  status: ('A' for Active; 'I' for Inactive)
REMARK    1  A    between atoms: C_4  and  C_7
REMARK    2  A    between atoms: N_11  and  C_15
REMARK    3  A    between atoms: C_15  and  C_16
REMARK    4  A    between atoms: N_18  and  C_19
REMARK                            x       y       z     vdW  Elec       q    Type
REMARK                         _______ _______ _______ _____ _____    ______ ____
ROOT
ATOM      1  C   UNL     1       3.717  -0.695  -0.066  0.00  0.00    +0.072 C 
ATOM      2  C   UNL     1       3.740  -1.575  -1.263  0.00  0.00    +0.033 A 
ATOM      3  C   UNL     1       4.092  -2.870  -1.349  0.00  0.00    +0.091 A 
ATOM      4  N   UNL     1       4.039  -3.402  -2.618  0.00  0.00    -0.288 N 
ATOM      5  C   UNL     1       3.632  -2.642  -3.651  0.00  0.00    +0.292 A 
ATOM      6  O   UNL     1       3.522  -2.955  -4.823  0.00  0.00    -0.259 OA
ATOM      7  S   UNL     1       3.310  -1.155  -2.933  0.00  0.00    -0.030 S 
ATOM      8  S   UNL     1       4.556  -3.797   0.091  0.00  0.00    -0.093 S 
ATOM      9  C   UNL     1       4.907  -2.518   1.338  0.00  0.00    +0.153 C 
ATOM     10  C   UNL     1       3.883  -1.383   1.234  0.00  0.00    +0.112 C 
ATOM     11  C   UNL     1       2.683  -1.921   1.945  0.00  0.00    +0.245 C 
ATOM     12  O   UNL     1       1.411  -1.530   1.778  0.00  0.00    -0.273 OA
ATOM     13  N   UNL     1       3.116  -2.853   2.765  0.00  0.00    -0.145 NA
ATOM     14  C   UNL     1       4.431  -3.113   2.676  0.00  0.00    +0.253 C 
ATOM     15  O   UNL     1       5.110  -3.710   3.487  0.00  0.00    -0.272 OA
ENDROOT
BRANCH   1  19
ATOM     16  C   UNL     1      -0.012   1.388  -0.011  0.00  0.00    +0.000 A 
ATOM     17  C   UNL     1       1.120   1.983   0.514  0.00  0.00    +0.000 A 
ATOM     18  C   UNL     1       2.326   1.309   0.496  0.00  0.00    +0.004 A 
ATOM     19  C   UNL     1       2.401   0.040  -0.046  0.00  0.00    -0.039 A 
ATOM     20  C   UNL     1       1.269  -0.556  -0.570  0.00  0.00    +0.004 A 
ATOM     21  C   UNL     1       0.063   0.119  -0.554  0.00  0.00    +0.000 A 
ENDBRANCH   1  19
BRANCH   4  22
ATOM     22  C   UNL     1       4.428  -4.796  -2.844  0.00  0.00    +0.222 C 
BRANCH  22  23
ATOM     23  C   UNL     1       3.220  -5.685  -2.694  0.00  0.00    +0.237 C 
ATOM     24  O   UNL     1       2.141  -5.201  -2.424  0.00  0.00    -0.274 OA
ATOM     25  N   UNL     1       3.339  -7.017  -2.859  0.00  0.00    -0.284 N 
ATOM     26  H   UNL     1       4.213  -7.413  -2.996  0.00  0.00    +0.155 HD
BRANCH  25  27
ATOM     27  C   UNL     1       2.200  -7.830  -2.831  0.00  0.00    +0.034 A 
ATOM     28  C   UNL     1       2.268  -9.106  -2.286  0.00  0.00    +0.025 A 
ATOM     29  C   UNL     1       1.143  -9.906  -2.260  0.00  0.00    +0.022 A 
ATOM     30  C   UNL     1      -0.052  -9.438  -2.777  0.00  0.00    +0.041 A 
ATOM     31  C   UNL     1      -0.124  -8.167  -3.321  0.00  0.00    +0.022 A 
ATOM     32  C   UNL     1       0.997  -7.361  -3.344  0.00  0.00    +0.025 A 
ATOM     33 CL   UNL     1      -1.465 -10.446  -2.744  0.00  0.00    -0.084 Cl
ENDBRANCH  25  27
ENDBRANCH  22  23
ENDBRANCH   4  22
TORSDOF 4
