REMARK  Name = ZINC09540483
REMARK  7 active torsions:
REMARK  status: ('A' for Active; 'I' for Inactive)
REMARK    1  A    between atoms: C_1  and  C_2
REMARK    2  A    between atoms: C_15  and  C_17
REMARK    3  A    between atoms: C_17  and  C_29
REMARK    4  A    between atoms: C_18  and  C_19
REMARK    5  A    between atoms: C_21  and  O_27
REMARK    6  A    between atoms: C_22  and  O_26
REMARK    7  A    between atoms: O_27  and  C_28
REMARK                            x       y       z     vdW  Elec       q    Type
REMARK                         _______ _______ _______ _____ _____    ______ ____
ROOT
ATOM      1  C   UNL     1      -8.046   7.037  -1.814  0.00  0.00    +0.008 C 
ATOM      2  C   UNL     1      -6.982   6.106  -1.230  0.00  0.00    -0.009 C 
ATOM      3  C   UNL     1      -7.128   4.710  -1.843  0.00  0.00    +0.008 C 
ATOM      4  C   UNL     1      -6.242   3.716  -1.092  0.00  0.00    +0.037 C 
ATOM      5  C   UNL     1      -4.819   4.267  -1.040  0.00  0.00    -0.023 A 
ATOM      6  C   UNL     1      -4.579   5.578  -1.257  0.00  0.00    -0.004 A 
ATOM      7  S   UNL     1      -2.823   5.756  -1.101  0.00  0.00    -0.073 S 
ATOM      8  C   UNL     1      -2.414   4.066  -0.742  0.00  0.00    +0.116 A 
ATOM      9  C   UNL     1      -3.663   3.419  -0.757  0.00  0.00    +0.075 A 
ATOM     10  C   UNL     1      -3.639   2.010  -0.494  0.00  0.00    +0.260 A 
ATOM     11  O   UNL     1      -4.673   1.365  -0.487  0.00  0.00    -0.267 OA
ATOM     12  N   UNL     1      -2.458   1.409  -0.258  0.00  0.00    -0.306 N 
ATOM     13  H   UNL     1      -2.436   0.455  -0.082  0.00  0.00    +0.170 HD
ATOM     14  C   UNL     1      -1.288   2.120  -0.257  0.00  0.00    +0.152 A 
ATOM     15  N   UNL     1      -1.285   3.417  -0.498  0.00  0.00    -0.221 NA
ATOM     16  C   UNL     1      -5.584   6.646  -1.564  0.00  0.00    +0.046 C 
ENDROOT
BRANCH  14  17
ATOM     17  C   UNL     1      -0.017   1.428   0.011  0.00  0.00    +0.095 C 
ATOM     18  C   UNL     1       1.165   2.132   0.002  0.00  0.00    +0.030 C 
BRANCH  18  19
ATOM     19  C   UNL     1       2.443   1.421   0.097  0.00  0.00    -0.019 A 
ATOM     20  C   UNL     1       3.519   1.996   0.788  0.00  0.00    +0.057 A 
ATOM     21  C   UNL     1       4.717   1.317   0.879  0.00  0.00    +0.163 A 
ATOM     22  C   UNL     1       4.860   0.068   0.274  0.00  0.00    +0.173 A 
ATOM     23  C   UNL     1       3.797  -0.501  -0.416  0.00  0.00    +0.063 A 
ATOM     24  C   UNL     1       2.595   0.165  -0.508  0.00  0.00    +0.027 A 
ATOM     25 BR   UNL     1       4.001  -2.194  -1.233  0.00  0.00    -0.046 Br
BRANCH  22  26
ATOM     26  O   UNL     1       6.043  -0.594   0.360  0.00  0.00    -0.503 OA
ATOM     27  H   UNL     1       6.659  -0.395  -0.358  0.00  0.00    +0.292 HD
ENDBRANCH  22  26
BRANCH  21  28
ATOM     28  O   UNL     1       5.761   1.869   1.553  0.00  0.00    -0.491 OA
ATOM     29  C   UNL     1       5.544   3.150   2.148  0.00  0.00    +0.277 C 
ENDBRANCH  21  28
ENDBRANCH  18  19
BRANCH  17  30
ATOM     30  C   UNL     1      -0.011   0.020   0.273  0.00  0.00    +0.103 C 
ATOM     31  N   UNL     1      -0.005  -1.097   0.482  0.00  0.00    -0.191 NA
ENDBRANCH  17  30
ENDBRANCH  14  17
TORSDOF 5
