REMARK  Name = ZINC13353766
REMARK  9 active torsions:
REMARK  status: ('A' for Active; 'I' for Inactive)
REMARK    1  A    between atoms: C_1  and  C_2
REMARK    2  A    between atoms: C_2  and  O_3
REMARK    3  A    between atoms: O_3  and  C_4
REMARK    4  A    between atoms: C_9  and  N_10
REMARK    5  A    between atoms: C_11  and  C_13
REMARK    6  A    between atoms: C_13  and  N_14
REMARK    7  A    between atoms: C_16  and  C_23
REMARK    8  A    between atoms: C_26  and  C_28
REMARK    9  A    between atoms: C_28  and  N_29
REMARK                            x       y       z     vdW  Elec       q    Type
REMARK                         _______ _______ _______ _____ _____    ______ ____
ROOT
ATOM      1  N   UNL     1       3.611  -1.896   6.680  0.00  0.00    -0.337 N 
ATOM      2  C   UNL     1       2.919  -2.272   7.791  0.00  0.00    +0.100 A 
ATOM      3  C   UNL     1       3.723  -3.001   8.609  0.00  0.00    +0.064 A 
ATOM      4  C   UNL     1       5.035  -3.085   7.943  0.00  0.00    +0.012 A 
ATOM      5  C   UNL     1       4.902  -2.378   6.736  0.00  0.00    +0.050 A 
ATOM      6  C   UNL     1       5.991  -2.285   5.876  0.00  0.00    +0.026 A 
ATOM      7  C   UNL     1       7.184  -2.887   6.211  0.00  0.00    +0.002 A 
ATOM      8  C   UNL     1       7.314  -3.587   7.401  0.00  0.00    +0.001 A 
ATOM      9  C   UNL     1       6.249  -3.684   8.271  0.00  0.00    +0.011 A 
ENDROOT
BRANCH   3  10
ATOM     10  C   UNL     1       3.356  -3.593   9.909  0.00  0.00    +0.250 A 
ATOM     11  N   UNL     1       4.141  -4.292  10.698  0.00  0.00    -0.107 NA
ATOM     12  N   UNL     1       3.483  -4.646  11.745  0.00  0.00    -0.114 NA
ATOM     13  C   UNL     1       2.264  -4.193  11.669  0.00  0.00    +0.202 A 
ATOM     14  O   UNL     1       2.153  -3.513  10.513  0.00  0.00    -0.422 OA
BRANCH  13  15
ATOM     15  C   UNL     1       1.176  -4.390  12.694  0.00  0.00    +0.021 C 
BRANCH  15  16
ATOM     16  N   UNL     1       1.215  -3.290  13.666  0.00  0.00    +0.386 N 
ATOM     17  C   UNL     1       2.478  -3.343  14.413  0.00  0.00    -0.078 C 
ATOM     18  C   UNL     1       2.559  -2.153  15.371  0.00  0.00    -0.019 C 
ATOM     19  C   UNL     1       1.383  -2.211  16.349  0.00  0.00    -0.004 C 
ATOM     20  C   UNL     1       0.073  -2.229  15.557  0.00  0.00    -0.019 C 
ATOM     21  C   UNL     1       0.084  -3.417  14.592  0.00  0.00    -0.078 C 
ATOM     22  H   UNL     1       1.152  -2.409  13.179  0.00  0.00    -0.081 HD
ENDBRANCH  15  16
ENDBRANCH  13  15
ENDBRANCH   3  10
BRANCH   1  23
ATOM     23  C   UNL     1       3.061  -1.099   5.580  0.00  0.00    +0.217 C 
BRANCH  23  25
ATOM     24  N   UNL     1       2.017  -1.504   3.375  0.00  0.00    -0.281 N 
ATOM     25  C   UNL     1       2.567  -2.018   4.493  0.00  0.00    +0.237 C 
ATOM     26  O   UNL     1       2.665  -3.220   4.623  0.00  0.00    -0.274 OA
ATOM     27  H   UNL     1       2.012  -0.544   3.234  0.00  0.00    +0.155 HD
BRANCH  24  33
ATOM     28  C   UNL     1       1.353  -1.944   1.089  0.00  0.00    +0.142 A 
ATOM     29  C   UNL     1       0.799  -2.793   0.144  0.00  0.00    +0.047 A 
ATOM     30  C   UNL     1       0.342  -4.042   0.520  0.00  0.00    +0.004 A 
ATOM     31  C   UNL     1       0.437  -4.449   1.838  0.00  0.00    +0.002 A 
ATOM     32  C   UNL     1       0.988  -3.609   2.787  0.00  0.00    +0.027 A 
ATOM     33  C   UNL     1       1.453  -2.356   2.416  0.00  0.00    +0.076 A 
BRANCH  28  34
ATOM     34  O   UNL     1       1.802  -0.715   0.721  0.00  0.00    -0.490 OA
BRANCH  34  36
ATOM     35  C   UNL     1       2.223   1.048  -0.878  0.00  0.00    +0.048 C 
ATOM     36  C   UNL     1       1.667  -0.360  -0.657  0.00  0.00    +0.226 C 
ENDBRANCH  34  36
ENDBRANCH  28  34
ENDBRANCH  24  33
ENDBRANCH  23  25
ENDBRANCH   1  23
TORSDOF 8
