REMARK  Name = ZINC45193497
REMARK  10 active torsions:
REMARK  status: ('A' for Active; 'I' for Inactive)
REMARK    1  A    between atoms: C_1  and  C_2
REMARK    2  A    between atoms: C_2  and  C_4
REMARK    3  A    between atoms: C_2  and  N_11
REMARK    4  A    between atoms: N_11  and  C_12
REMARK    5  A    between atoms: C_13  and  C_15
REMARK    6  A    between atoms: C_15  and  C_16
REMARK    7  A    between atoms: C_16  and  C_17
REMARK    8  A    between atoms: C_16  and  C_23
REMARK    9  A    between atoms: C_16  and  O_27
REMARK   10  A    between atoms: N_21  and  C_22
REMARK                            x       y       z     vdW  Elec       q    Type
REMARK                         _______ _______ _______ _____ _____    ______ ____
ROOT
ATOM      1  C   UNL     1       0.853  -1.419   3.214  0.00  0.00    +0.148 C 
ENDROOT
BRANCH   1   4
ATOM      2  N   UNL     1      -0.230  -0.380   1.247  0.00  0.00    -0.298 N 
ATOM      3  C   UNL     1       0.832   0.629   1.254  0.00  0.00    +0.132 C 
ATOM      4  C   UNL     1      -0.234  -1.360   2.172  0.00  0.00    +0.219 C 
ATOM      5  O   UNL     1      -1.114  -2.196   2.166  0.00  0.00    -0.275 OA
BRANCH   2   7
ATOM      6  C   UNL     1      -1.970   1.045   0.286  0.00  0.00    +0.033 C 
ATOM      7  C   UNL     1      -1.287  -0.323   0.234  0.00  0.00    +0.106 C 
BRANCH   7   8
ATOM      8  C   UNL     1      -0.686  -0.534  -1.131  0.00  0.00    +0.008 A 
ATOM      9  C   UNL     1      -0.508   0.542  -1.981  0.00  0.00    +0.008 A 
ATOM     10  C   UNL     1       0.044   0.349  -3.234  0.00  0.00    +0.000 A 
ATOM     11  C   UNL     1       0.417  -0.919  -3.639  0.00  0.00    +0.003 A 
ATOM     12  C   UNL     1       0.240  -1.996  -2.791  0.00  0.00    +0.039 A 
ATOM     13  C   UNL     1      -0.307  -1.803  -1.533  0.00  0.00    +0.128 A 
ATOM     14  F   UNL     1      -0.476  -2.854  -0.702  0.00  0.00    -0.205 F 
ENDBRANCH   7   8
ENDBRANCH   2   7
ENDBRANCH   1   4
BRANCH   1  15
ATOM     15  C   UNL     1       0.541  -2.533   4.214  0.00  0.00    +0.227 C 
BRANCH  15  16
ATOM     16  C   UNL     1       0.463  -3.852   3.489  0.00  0.00    +0.151 A 
ATOM     17  N   UNL     1       1.081  -4.147   2.378  0.00  0.00    -0.237 NA
ATOM     18  C   UNL     1       0.779  -5.405   2.025  0.00  0.00    +0.130 A 
ATOM     19  C   UNL     1      -0.058  -5.909   2.952  0.00  0.00    +0.106 A 
ATOM     20  N   UNL     1      -0.255  -4.926   3.884  0.00  0.00    -0.335 N 
ATOM     21  C   UNL     1      -1.091  -5.019   5.083  0.00  0.00    +0.150 C 
ENDBRANCH  15  16
BRANCH  15  22
ATOM     22  C   UNL     1       1.649  -2.597   5.268  0.00  0.00    +0.426 C 
ATOM     23  F   UNL     1       1.682  -1.394   5.982  0.00  0.00    -0.167 F 
ATOM     24  F   UNL     1       1.395  -3.654   6.148  0.00  0.00    -0.167 F 
ATOM     25  F   UNL     1       2.881  -2.800   4.638  0.00  0.00    -0.167 F 
ENDBRANCH  15  22
BRANCH  15  26
ATOM     26  O   UNL     1      -0.709  -2.265   4.852  0.00  0.00    -0.373 OA
ATOM     27  H   UNL     1      -1.458  -2.211   4.243  0.00  0.00    +0.211 HD
ENDBRANCH  15  26
ENDBRANCH   1  15
TORSDOF 7
