REMARK  Name = ZINC15827372
REMARK  8 active torsions:
REMARK  status: ('A' for Active; 'I' for Inactive)
REMARK    1  A    between atoms: C_1  and  C_2
REMARK    2  A    between atoms: C_2  and  C_3
REMARK    3  A    between atoms: C_2  and  C_4
REMARK    4  A    between atoms: C_7  and  N_10
REMARK    5  A    between atoms: N_13  and  C_23
REMARK    6  A    between atoms: C_23  and  C_24
REMARK    7  A    between atoms: N_26  and  C_27
REMARK    8  A    between atoms: C_27  and  C_28
REMARK                            x       y       z     vdW  Elec       q    Type
REMARK                         _______ _______ _______ _____ _____    ______ ____
ROOT
ATOM      1  N   UNL     1       4.903   3.216   1.444  0.00  0.00    -0.123 N 
ATOM      2  C   UNL     1       3.921   2.325   1.175  0.00  0.00    +0.333 C 
ATOM      3  O   UNL     1       3.307   1.883   2.127  0.00  0.00    -0.250 OA
ATOM      4  N   UNL     1       3.562   1.887  -0.022  0.00  0.00    -0.243 N 
ATOM      5  C   UNL     1       4.062   2.190  -1.279  0.00  0.00    +0.065 A 
ATOM      6  C   UNL     1       3.533   1.612  -2.427  0.00  0.00    +0.025 A 
ATOM      7  C   UNL     1       4.051   1.940  -3.664  0.00  0.00    +0.002 A 
ATOM      8  C   UNL     1       5.091   2.843  -3.783  0.00  0.00    +0.002 A 
ATOM      9  C   UNL     1       5.626   3.430  -2.644  0.00  0.00    +0.031 A 
ATOM     10  C   UNL     1       5.110   3.103  -1.423  0.00  0.00    +0.131 A 
ATOM     11  S   UNL     1       5.720   3.795   0.093  0.00  0.00    +0.084 S 
ATOM     12  O   UNL     1       5.423   5.183   0.030  0.00  0.00    -0.149 OA
ATOM     13  O   UNL     1       7.054   3.324   0.220  0.00  0.00    -0.149 OA
ENDROOT
BRANCH   1  17
ATOM     14  C   UNL     1       5.831   4.433   5.319  0.00  0.00    -0.045 A 
ATOM     15  C   UNL     1       5.229   3.206   5.106  0.00  0.00    +0.006 A 
ATOM     16  C   UNL     1       4.921   2.800   3.823  0.00  0.00    +0.025 A 
ATOM     17  C   UNL     1       5.215   3.625   2.745  0.00  0.00    +0.061 A 
ATOM     18  C   UNL     1       5.824   4.854   2.962  0.00  0.00    +0.025 A 
ATOM     19  C   UNL     1       6.125   5.257   4.248  0.00  0.00    +0.006 A 
BRANCH  14  21
ATOM     20  C   UNL     1       7.675   5.106   6.834  0.00  0.00    +0.012 C 
ATOM     21  C   UNL     1       6.167   4.873   6.720  0.00  0.00    +0.013 C 
ATOM     22  C   UNL     1       5.425   6.173   7.038  0.00  0.00    +0.012 C 
ENDBRANCH  14  21
ENDBRANCH   1  17
BRANCH   4  23
ATOM     23  C   UNL     1       2.462   0.920  -0.017  0.00  0.00    +0.211 C 
BRANCH  23  24
ATOM     24  C   UNL     1       3.022  -0.479  -0.039  0.00  0.00    +0.231 C 
ATOM     25  O   UNL     1       4.223  -0.651  -0.058  0.00  0.00    -0.274 OA
ATOM     26  N   UNL     1       2.189  -1.539  -0.038  0.00  0.00    -0.310 N 
ATOM     27  H   UNL     1       1.229  -1.401  -0.024  0.00  0.00    +0.149 HD
BRANCH  26  28
ATOM     28  C   UNL     1       2.734  -2.898  -0.054  0.00  0.00    +0.141 C 
BRANCH  28  29
ATOM     29  C   UNL     1       1.602  -3.893  -0.043  0.00  0.00    -0.012 A 
ATOM     30  C   UNL     1       1.241  -4.517   1.137  0.00  0.00    +0.006 A 
ATOM     31  C   UNL     1       0.200  -5.426   1.148  0.00  0.00    +0.000 A 
ATOM     32  C   UNL     1      -0.474  -5.720  -0.023  0.00  0.00    +0.001 A 
ATOM     33  C   UNL     1      -0.111  -5.101  -1.204  0.00  0.00    +0.020 A 
ATOM     34  C   UNL     1       0.928  -4.187  -1.215  0.00  0.00    +0.046 A 
ATOM     35 CL   UNL     1       1.386  -3.410  -2.698  0.00  0.00    -0.083 Cl
ENDBRANCH  28  29
ENDBRANCH  26  28
ENDBRANCH  23  24
ENDBRANCH   4  23
TORSDOF 6
