REMARK  Name = ZINC02111360
REMARK  5 active torsions:
REMARK  status: ('A' for Active; 'I' for Inactive)
REMARK    1  A    between atoms: C_1  and  C_2
REMARK    2  A    between atoms: C_7  and  C_8
REMARK    3  A    between atoms: N_27  and  C_30
REMARK    4  A    between atoms: N_33  and  C_36
REMARK    5  A    between atoms: C_36  and  C_37
REMARK                            x       y       z     vdW  Elec       q    Type
REMARK                         _______ _______ _______ _____ _____    ______ ____
ROOT
ATOM      1  C   UNL     1       0.025   0.045   2.504  0.00  0.00    +0.154 C 
ATOM      2  C   UNL     1       1.442   0.405   2.888  0.00  0.00    +0.046 A 
ATOM      3  C   UNL     1       2.121  -0.201   3.887  0.00  0.00    -0.015 A 
ATOM      4  C   UNL     1       3.432   0.412   3.940  0.00  0.00    +0.003 A 
ATOM      5  C   UNL     1       4.547   0.197   4.756  0.00  0.00    +0.010 A 
ATOM      6  C   UNL     1       5.648   0.983   4.524  0.00  0.00    +0.001 A 
ATOM      7  C   UNL     1       5.666   1.948   3.530  0.00  0.00    +0.002 A 
ATOM      8  C   UNL     1       4.578   2.182   2.708  0.00  0.00    +0.026 A 
ATOM      9  C   UNL     1       3.446   1.399   2.921  0.00  0.00    +0.047 A 
ATOM     10  N   UNL     1       2.228   1.364   2.305  0.00  0.00    -0.356 N 
ATOM     11  H   UNL     1       1.959   1.932   1.566  0.00  0.00    +0.166 HD
ATOM     12  C   UNL     1       1.567  -1.299   4.758  0.00  0.00    +0.069 C 
ATOM     13  C   UNL     1       0.330  -1.900   4.075  0.00  0.00    +0.167 C 
ATOM     14  N   UNL     1      -0.519  -0.817   3.575  0.00  0.00    -0.276 N 
ATOM     15  C   UNL     1      -1.745  -0.574   4.042  0.00  0.00    +0.234 C 
ATOM     16  O   UNL     1      -2.335   0.392   3.606  0.00  0.00    -0.274 OA
ATOM     17  C   UNL     1      -2.441  -1.411   5.065  0.00  0.00    +0.204 C 
ATOM     18  N   UNL     1      -1.637  -2.550   5.476  0.00  0.00    -0.288 N 
ATOM     19  C   UNL     1      -0.406  -2.768   5.044  0.00  0.00    +0.237 C 
ATOM     20  O   UNL     1       0.160  -3.754   5.466  0.00  0.00    -0.274 OA
ENDROOT
BRANCH   1  27
ATOM     21  C   UNL     1      -1.711   0.898   0.358  0.00  0.00    +0.044 C 
ATOM     22  C   UNL     1      -0.808  -0.293   0.169  0.00  0.00    -0.045 A 
ATOM     23  C   UNL     1      -0.806  -0.975  -1.034  0.00  0.00    +0.004 A 
ATOM     24  C   UNL     1       0.023  -2.067  -1.209  0.00  0.00    +0.000 A 
ATOM     25  C   UNL     1       0.850  -2.478  -0.180  0.00  0.00    +0.000 A 
ATOM     26  C   UNL     1       0.849  -1.797   1.022  0.00  0.00    +0.006 A 
ATOM     27  C   UNL     1       0.023  -0.702   1.195  0.00  0.00    -0.018 A 
ENDBRANCH   1  27
BRANCH  18  28
ATOM     28  C   UNL     1      -2.221  -3.500   6.427  0.00  0.00    +0.073 C 
ATOM     29  C   UNL     1      -2.579  -2.769   7.725  0.00  0.00    +0.004 C 
ATOM     30  C   UNL     1      -3.261  -3.749   8.683  0.00  0.00    -0.077 C 
ATOM     31  N   UNL     1      -4.482  -4.275   8.063  0.00  0.00    +0.382 N 
ATOM     32  C   UNL     1      -4.140  -5.037   6.857  0.00  0.00    -0.077 C 
ATOM     33  C   UNL     1      -3.493  -4.108   5.828  0.00  0.00    +0.004 C 
ATOM     34  H   UNL     1      -5.090  -3.508   7.814  0.00  0.00    -0.081 HD
BRANCH  31  35
ATOM     35  C   UNL     1      -5.174  -5.154   9.016  0.00  0.00    -0.043 C 
BRANCH  35  36
ATOM     36  C   UNL     1      -6.489  -5.597   8.428  0.00  0.00    -0.064 A 
ATOM     37  C   UNL     1      -7.629  -4.846   8.640  0.00  0.00    +0.002 A 
ATOM     38  C   UNL     1      -8.835  -5.253   8.101  0.00  0.00    +0.000 A 
ATOM     39  C   UNL     1      -8.900  -6.411   7.348  0.00  0.00    +0.000 A 
ATOM     40  C   UNL     1      -7.759  -7.162   7.135  0.00  0.00    +0.000 A 
ATOM     41  C   UNL     1      -6.553  -6.752   7.671  0.00  0.00    +0.002 A 
ENDBRANCH  35  36
ENDBRANCH  31  35
ENDBRANCH  18  28
TORSDOF 4
