REMARK  Name = ZINC39631385
REMARK  11 active torsions:
REMARK  status: ('A' for Active; 'I' for Inactive)
REMARK    1  A    between atoms: C_1  and  C_2
REMARK    2  A    between atoms: C_2  and  C_4
REMARK    3  A    between atoms: C_2  and  N_11
REMARK    4  A    between atoms: C_4  and  C_5
REMARK    5  A    between atoms: C_5  and  C_6
REMARK    6  A    between atoms: C_6  and  C_7
REMARK    7  A    between atoms: C_7  and  C_8
REMARK    8  A    between atoms: C_7  and  C_9
REMARK    9  A    between atoms: C_7  and  O_10
REMARK   10  A    between atoms: C_12  and  C_14
REMARK   11  A    between atoms: C_25  and  C_27
REMARK                            x       y       z     vdW  Elec       q    Type
REMARK                         _______ _______ _______ _____ _____    ______ ____
ROOT
ATOM      1  C   UNL     1       2.807  -1.319  -3.096  0.00  0.00    +0.100 C 
ATOM      2  C   UNL     1       2.380  -0.172  -4.038  0.00  0.00    +0.121 C 
ATOM      3  N   UNL     1       3.510   0.786  -3.997  0.00  0.00    -0.296 N 
ATOM      4  C   UNL     1       4.720  -0.071  -3.979  0.00  0.00    +0.115 C 
ATOM      5  C   UNL     1       4.343  -1.252  -3.062  0.00  0.00    -0.004 C 
ATOM      6  C   UNL     1       4.830  -0.991  -1.640  0.00  0.00    -0.010 C 
ATOM      7  C   UNL     1       6.361  -0.985  -1.623  0.00  0.00    -0.082 C 
ATOM      8  N   UNL     1       6.863  -2.278  -2.103  0.00  0.00    +0.379 N 
ATOM      9  C   UNL     1       6.468  -2.480  -3.502  0.00  0.00    -0.082 C 
ATOM     10  C   UNL     1       4.941  -2.549  -3.599  0.00  0.00    -0.010 C 
ATOM     11  C   UNL     1       3.452   2.133  -3.981  0.00  0.00    +0.247 C 
ATOM     12  O   UNL     1       2.378   2.693  -3.873  0.00  0.00    -0.270 OA
ATOM     13  H   UNL     1       7.869  -2.294  -2.034  0.00  0.00    -0.086 HD
ATOM     14  H   UNL     1       6.478  -3.018  -1.536  0.00  0.00    -0.086 HD
ENDROOT
BRANCH  11  15
ATOM     15  C   UNL     1       4.693   2.928  -4.093  0.00  0.00    +0.042 A 
ATOM     16  C   UNL     1       5.843   2.357  -4.639  0.00  0.00    +0.051 A 
ATOM     17  C   UNL     1       7.001   3.106  -4.742  0.00  0.00    +0.127 A 
ATOM     18  C   UNL     1       7.021   4.419  -4.303  0.00  0.00    +0.076 A 
ATOM     19  C   UNL     1       5.882   4.991  -3.759  0.00  0.00    +0.127 A 
ATOM     20  C   UNL     1       4.717   4.254  -3.657  0.00  0.00    +0.051 A 
ATOM     21  F   UNL     1       5.908   6.272  -3.333  0.00  0.00    -0.205 F 
ATOM     22  F   UNL     1       8.115   2.554  -5.271  0.00  0.00    -0.205 F 
ENDBRANCH  11  15
BRANCH   1  24
ATOM     23  N   UNL     1       2.045  -2.155  -0.895  0.00  0.00    -0.312 N 
ATOM     24  C   UNL     1       2.242  -1.103  -1.715  0.00  0.00    +0.218 C 
ATOM     25  O   UNL     1       1.966   0.017  -1.342  0.00  0.00    -0.275 OA
ATOM     26  H   UNL     1       2.266  -3.050  -1.194  0.00  0.00    +0.149 HD
BRANCH  23  28
ATOM     27  C   UNL     1      -0.032  -1.903   0.371  0.00  0.00    +0.028 C 
ATOM     28  C   UNL     1       1.496  -1.944   0.446  0.00  0.00    +0.070 C 
BRANCH  28  29
ATOM     29  C   UNL     1       1.931  -3.091   1.361  0.00  0.00    +0.022 C 
BRANCH  29  30
ATOM     30  C   UNL     1       3.450  -3.056   1.535  0.00  0.00    +0.005 C 
BRANCH  30  31
ATOM     31  C   UNL     1       3.885  -4.202   2.450  0.00  0.00    +0.034 C 
BRANCH  31  32
ATOM     32  C   UNL     1       5.405  -4.167   2.624  0.00  0.00    +0.061 C 
ATOM     33  C   UNL     1       5.854  -5.384   3.436  0.00  0.00    +0.041 C 
ATOM     34  C   UNL     1       6.077  -4.195   1.250  0.00  0.00    +0.041 C 
BRANCH  32  35
ATOM     35  O   UNL     1       5.778  -2.972   3.313  0.00  0.00    -0.389 OA
ATOM     36  H   UNL     1       5.388  -2.888   4.194  0.00  0.00    +0.210 HD
ENDBRANCH  32  35
ENDBRANCH  31  32
ENDBRANCH  30  31
ENDBRANCH  29  30
ENDBRANCH  28  29
ENDBRANCH  23  28
ENDBRANCH   1  24
TORSDOF 8
