REMARK  Name = ZINC01069570
REMARK  4 active torsions:
REMARK  status: ('A' for Active; 'I' for Inactive)
REMARK    1  A    between atoms: C_1  and  C_2
REMARK    2  A    between atoms: C_12  and  C_22
REMARK    3  A    between atoms: C_25  and  O_29
REMARK    4  A    between atoms: C_26  and  O_28
REMARK                            x       y       z     vdW  Elec       q    Type
REMARK                         _______ _______ _______ _____ _____    ______ ____
ROOT
ATOM      1  C   UNL     1      -3.885   2.296   6.287  0.00  0.00    +0.065 C 
ATOM      2  C   UNL     1      -3.537   1.727   4.936  0.00  0.00    +0.039 A 
ATOM      3  C   UNL     1      -3.503   2.576   3.832  0.00  0.00    +0.023 A 
ATOM      4  C   UNL     1      -3.189   2.078   2.599  0.00  0.00    +0.012 A 
ATOM      5  C   UNL     1      -2.906   0.703   2.490  0.00  0.00    +0.006 A 
ATOM      6  C   UNL     1      -2.960  -0.104   3.654  0.00  0.00    +0.072 A 
ATOM      7  N   UNL     1      -3.274   0.447   4.831  0.00  0.00    -0.252 NA
ATOM      8  C   UNL     1      -2.682  -1.479   3.551  0.00  0.00    +0.030 A 
ATOM      9  C   UNL     1      -2.365  -2.016   2.348  0.00  0.00    +0.025 A 
ATOM     10  C   UNL     1      -2.307  -1.224   1.194  0.00  0.00    +0.036 A 
ATOM     11  C   UNL     1      -2.574   0.124   1.254  0.00  0.00    -0.005 A 
ATOM     12  C   UNL     1      -2.513   0.975   0.019  0.00  0.00    +0.086 C 
ATOM     13  C   UNL     1      -2.586   0.135  -1.231  0.00  0.00    +0.024 C 
ATOM     14  C   UNL     1      -2.309  -1.187  -1.202  0.00  0.00    +0.016 C 
ATOM     15  N   UNL     1      -1.976  -1.804  -0.031  0.00  0.00    -0.317 N 
ATOM     16  C   UNL     1      -2.364  -2.021  -2.458  0.00  0.00    +0.051 C 
ATOM     17  C   UNL     1      -3.420  -1.451  -3.408  0.00  0.00    +0.014 C 
ATOM     18  C   UNL     1      -3.056   0.005  -3.719  0.00  0.00    +0.080 C 
ATOM     19  C   UNL     1      -2.953   0.770  -2.429  0.00  0.00    +0.162 C 
ATOM     20  O   UNL     1      -3.193   1.962  -2.422  0.00  0.00    -0.292 OA
ATOM     21  H   UNL     1      -1.506  -2.653  -0.051  0.00  0.00    +0.152 HD
ENDROOT
BRANCH  12  22
ATOM     22  C   UNL     1      -1.220   1.749   0.017  0.00  0.00    -0.032 A 
ATOM     23  C   UNL     1      -0.013   1.076   0.008  0.00  0.00    +0.008 A 
ATOM     24  C   UNL     1       1.176   1.782   0.000  0.00  0.00    +0.049 A 
ATOM     25  C   UNL     1       1.159   3.167   0.008  0.00  0.00    +0.158 A 
ATOM     26  C   UNL     1      -0.056   3.845   0.023  0.00  0.00    +0.159 A 
ATOM     27  C   UNL     1      -1.244   3.131   0.031  0.00  0.00    +0.053 A 
BRANCH  26  28
ATOM     28  O   UNL     1      -0.078   5.205   0.030  0.00  0.00    -0.503 OA
ATOM     29  H   UNL     1      -0.093   5.602  -0.851  0.00  0.00    +0.292 HD
ENDBRANCH  26  28
BRANCH  25  30
ATOM     30  O   UNL     1       2.327   3.863   0.000  0.00  0.00    -0.503 OA
ATOM     31  H   UNL     1       2.656   4.069  -0.885  0.00  0.00    +0.292 HD
ENDBRANCH  25  30
ENDBRANCH  12  22
TORSDOF 3
