REMARK  Name = ZINC08636002
REMARK  11 active torsions:
REMARK  status: ('A' for Active; 'I' for Inactive)
REMARK    1  A    between atoms: C_1  and  C_2
REMARK    2  A    between atoms: N_4  and  C_5
REMARK    3  A    between atoms: C_5  and  C_6
REMARK    4  A    between atoms: C_6  and  N_68
REMARK    5  A    between atoms: C_7  and  N_68
REMARK    6  A    between atoms: C_10  and  C_32
REMARK    7  A    between atoms: C_12  and  C_28
REMARK    8  A    between atoms: C_28  and  O_30
REMARK    9  A    between atoms: O_30  and  C_31
REMARK   10  A    between atoms: C_35  and  O_38
REMARK   11  A    between atoms: O_38  and  C_39
REMARK                            x       y       z     vdW  Elec       q    Type
REMARK                         _______ _______ _______ _____ _____    ______ ____
ROOT
ATOM      1  C   UNL     1       3.655  -0.995   2.005  0.00  0.00    -0.074 C 
ATOM      2  C   UNL     1       2.334  -1.596   2.491  0.00  0.00    -0.027 C 
ATOM      3  C   UNL     1       1.302  -1.533   1.371  0.00  0.00    -0.037 C 
ATOM      4  C   UNL     1       0.002  -0.004   0.002  0.00  0.00    +0.049 C 
ATOM      5  C   UNL     1      -0.412   1.471  -0.096  0.00  0.00    +0.033 C 
ATOM      6  C   UNL     1       0.834   2.298  -0.287  0.00  0.00    -0.022 A 
ATOM      7  C   UNL     1       0.965   3.667  -0.733  0.00  0.00    +0.003 A 
ATOM      8  C   UNL     1       0.032   4.635  -1.118  0.00  0.00    +0.010 A 
ATOM      9  C   UNL     1       0.527   5.860  -1.493  0.00  0.00    +0.001 A 
ATOM     10  C   UNL     1       1.884   6.137  -1.494  0.00  0.00    +0.002 A 
ATOM     11  C   UNL     1       2.829   5.199  -1.118  0.00  0.00    +0.026 A 
ATOM     12  C   UNL     1       2.357   3.946  -0.733  0.00  0.00    +0.047 A 
ATOM     13  N   UNL     1       2.999   2.816  -0.314  0.00  0.00    -0.359 N 
ATOM     14  H   UNL     1       3.959   2.723  -0.216  0.00  0.00    +0.166 HD
ATOM     15  C   UNL     1       2.083   1.833  -0.053  0.00  0.00    +0.007 A 
ATOM     16  C   UNL     1       2.357   0.428   0.424  0.00  0.00    -0.020 C 
ATOM     17  C   UNL     1       3.415   0.441   1.528  0.00  0.00    -0.025 C 
ATOM     18  N   UNL     1       1.104  -0.120   0.988  0.00  0.00    +0.399 N 
ATOM     19  H   UNL     1       0.855   0.419   1.826  0.00  0.00    -0.079 HD
ENDROOT
BRANCH   3  20
ATOM     20  C   UNL     1      -0.007  -2.099   1.858  0.00  0.00    -0.061 A 
ATOM     21  C   UNL     1      -0.851  -1.321   2.630  0.00  0.00    +0.005 A 
ATOM     22  C   UNL     1      -2.054  -1.835   3.073  0.00  0.00    +0.046 A 
ATOM     23  C   UNL     1      -2.410  -3.138   2.753  0.00  0.00    +0.130 A 
ATOM     24  C   UNL     1      -1.559  -3.918   1.984  0.00  0.00    +0.046 A 
ATOM     25  C   UNL     1      -0.360  -3.397   1.538  0.00  0.00    +0.005 A 
BRANCH  23  26
ATOM     26  O   UNL     1      -3.590  -3.648   3.193  0.00  0.00    -0.406 OA
BRANCH  26  27
ATOM     27  C   UNL     1      -4.416  -2.788   3.980  0.00  0.00    +0.575 C 
ATOM     28  F   UNL     1      -4.752  -1.653   3.234  0.00  0.00    -0.133 F 
ATOM     29  F   UNL     1      -5.582  -3.467   4.346  0.00  0.00    -0.133 F 
ATOM     30  F   UNL     1      -3.721  -2.400   5.131  0.00  0.00    -0.133 F 
ENDBRANCH  26  27
ENDBRANCH  23  26
ENDBRANCH   3  20
BRANCH   1  31
ATOM     31  N   UNL     1       4.628  -0.981   3.114  0.00  0.00    +0.382 N 
ATOM     32  H   UNL     1       5.317  -0.237   2.950  0.00  0.00    -0.085 HD
ATOM     33  H   UNL     1       4.134  -0.801   3.996  0.00  0.00    -0.085 HD
BRANCH  31  34
ATOM     34  C   UNL     1       5.324  -2.278   3.202  0.00  0.00    -0.063 C 
BRANCH  34  35
ATOM     35  C   UNL     1       6.324  -2.234   4.359  0.00  0.00    +0.085 C 
BRANCH  35  39
ATOM     36  C   UNL     1       8.669  -5.036   5.502  0.00  0.00    +0.109 C 
ATOM     37  C   UNL     1       7.954  -3.713   5.405  0.00  0.00    +0.210 C 
ATOM     38  O   UNL     1       8.218  -2.822   6.185  0.00  0.00    -0.276 OA
ATOM     39  N   UNL     1       7.020  -3.520   4.452  0.00  0.00    -0.317 N 
ATOM     40  H   UNL     1       6.809  -4.232   3.829  0.00  0.00    +0.149 HD
ENDBRANCH  35  39
ENDBRANCH  34  35
ENDBRANCH  31  34
ENDBRANCH   1  31
BRANCH   4  41
ATOM     41  C   UNL     1       0.444  -0.493  -1.353  0.00  0.00    +0.294 C 
ATOM     42  O   UNL     1       1.484  -1.097  -1.468  0.00  0.00    -0.253 OA
BRANCH  41  43
ATOM     43  O   UNL     1      -0.318  -0.258  -2.433  0.00  0.00    -0.469 OA
ATOM     44  C   UNL     1       0.170  -0.758  -3.706  0.00  0.00    +0.280 C 
ENDBRANCH  41  43
ENDBRANCH   4  41
TORSDOF 9
