REMARK  Name = ZINC15946875
REMARK  10 active torsions:
REMARK  status: ('A' for Active; 'I' for Inactive)
REMARK    1  A    between atoms: C_1  and  C_2
REMARK    2  A    between atoms: C_2  and  C_4
REMARK    3  A    between atoms: C_2  and  N_10
REMARK    4  A    between atoms: N_10  and  C_11
REMARK    5  A    between atoms: C_11  and  C_12
REMARK    6  A    between atoms: N_14  and  C_15
REMARK    7  A    between atoms: C_16  and  C_24
REMARK    8  A    between atoms: N_26  and  C_27
REMARK    9  A    between atoms: C_32  and  O_33
REMARK   10  A    between atoms: O_33  and  C_34
REMARK                            x       y       z     vdW  Elec       q    Type
REMARK                         _______ _______ _______ _____ _____    ______ ____
ROOT
ATOM      1  C   UNL     1       0.657  -1.702   5.852  0.00  0.00    +0.084 A 
ATOM      2  C   UNL     1       0.169  -1.922   7.131  0.00  0.00    +0.069 A 
ATOM      3  C   UNL     1       1.108  -2.410   8.126  0.00  0.00    -0.023 A 
ATOM      4  C   UNL     1       2.363  -2.590   7.660  0.00  0.00    -0.004 A 
ATOM      5  S   UNL     1       2.278  -2.128   5.954  0.00  0.00    -0.077 S 
ATOM      6  C   UNL     1       3.548  -3.077   8.433  0.00  0.00    +0.043 C 
ATOM      7  C   UNL     1       3.218  -2.987   9.930  0.00  0.00    +0.005 C 
ATOM      8  C   UNL     1       1.838  -3.607  10.171  0.00  0.00    +0.005 C 
ATOM      9  C   UNL     1       0.752  -2.708   9.575  0.00  0.00    +0.037 C 
ENDROOT
BRANCH   1  12
ATOM     10  C   UNL     1       0.602  -1.092   3.565  0.00  0.00    +0.231 C 
ATOM     11  O   UNL     1       1.782  -1.359   3.476  0.00  0.00    -0.274 OA
ATOM     12  N   UNL     1      -0.036  -1.243   4.743  0.00  0.00    -0.278 N 
ATOM     13  H   UNL     1      -0.979  -1.029   4.814  0.00  0.00    +0.155 HD
BRANCH  10  14
ATOM     14  C   UNL     1      -0.150  -0.592   2.359  0.00  0.00    +0.178 C 
BRANCH  14  15
ATOM     15  N   UNL     1       0.761  -0.516   1.209  0.00  0.00    -0.302 NA
ATOM     16  H   UNL     1       1.199  -1.409   1.036  0.00  0.00    +0.123 HD
BRANCH  15  18
ATOM     17  C   UNL     1       0.043   1.498   0.016  0.00  0.00    +0.029 C 
ATOM     18  C   UNL     1       0.060  -0.032   0.013  0.00  0.00    +0.081 C 
BRANCH  18  19
ATOM     19  C   UNL     1       0.774  -0.523  -1.220  0.00  0.00    -0.031 A 
ATOM     20  C   UNL     1       2.155  -0.547  -1.256  0.00  0.00    +0.005 A 
ATOM     21  C   UNL     1       2.810  -0.998  -2.388  0.00  0.00    +0.000 A 
ATOM     22  C   UNL     1       2.083  -1.425  -3.483  0.00  0.00    +0.000 A 
ATOM     23  C   UNL     1       0.701  -1.402  -3.446  0.00  0.00    +0.000 A 
ATOM     24  C   UNL     1       0.046  -0.956  -2.314  0.00  0.00    +0.005 A 
ENDBRANCH  18  19
ENDBRANCH  15  18
ENDBRANCH  14  15
ENDBRANCH  10  14
ENDBRANCH   1  12
BRANCH   2  25
ATOM     25  C   UNL     1      -1.236  -1.671   7.465  0.00  0.00    +0.251 C 
ATOM     26  O   UNL     1      -2.059  -2.560   7.343  0.00  0.00    -0.270 OA
ATOM     27  N   UNL     1      -1.617  -0.457   7.909  0.00  0.00    -0.278 N 
ATOM     28  H   UNL     1      -0.953   0.232   8.068  0.00  0.00    +0.155 HD
BRANCH  27  29
ATOM     29  C   UNL     1      -2.973  -0.189   8.139  0.00  0.00    +0.076 A 
ATOM     30  C   UNL     1      -3.808  -1.188   8.617  0.00  0.00    +0.027 A 
ATOM     31  C   UNL     1      -5.145  -0.921   8.844  0.00  0.00    +0.002 A 
ATOM     32  C   UNL     1      -5.653   0.341   8.596  0.00  0.00    +0.004 A 
ATOM     33  C   UNL     1      -4.827   1.342   8.119  0.00  0.00    +0.047 A 
ATOM     34  C   UNL     1      -3.484   1.084   7.894  0.00  0.00    +0.141 A 
BRANCH  34  35
ATOM     35  O   UNL     1      -2.669   2.069   7.431  0.00  0.00    -0.493 OA
ATOM     36  C   UNL     1      -3.263   3.349   7.203  0.00  0.00    +0.277 C 
ENDBRANCH  34  35
ENDBRANCH  27  29
ENDBRANCH   2  25
TORSDOF 8
