REMARK  Name = ZINC22371947
REMARK  11 active torsions:
REMARK  status: ('A' for Active; 'I' for Inactive)
REMARK    1  A    between atoms: C_1  and  C_2
REMARK    2  A    between atoms: C_5  and  N_8
REMARK    3  A    between atoms: N_8  and  C_9
REMARK    4  A    between atoms: N_8  and  S_24
REMARK    5  A    between atoms: C_9  and  C_10
REMARK    6  A    between atoms: N_12  and  C_13
REMARK    7  A    between atoms: C_13  and  C_15
REMARK    8  A    between atoms: C_13  and  C_16
REMARK    9  A    between atoms: C_19  and  C_23
REMARK   10  A    between atoms: C_21  and  C_22
REMARK   11  A    between atoms: S_24  and  C_27
REMARK                            x       y       z     vdW  Elec       q    Type
REMARK                         _______ _______ _______ _____ _____    ______ ____
ROOT
ATOM      1  N   UNL     1       4.308  -0.068   2.043  0.00  0.00    -0.194 N 
ENDROOT
BRANCH   1   6
ATOM      2  C   UNL     1       4.173   2.005   7.320  0.00  0.00    +0.044 C 
ATOM      3  C   UNL     1       4.209   1.454   5.918  0.00  0.00    -0.050 A 
ATOM      4  C   UNL     1       3.396   2.000   4.941  0.00  0.00    +0.005 A 
ATOM      5  C   UNL     1       3.427   1.497   3.655  0.00  0.00    +0.025 A 
ATOM      6  C   UNL     1       4.275   0.443   3.343  0.00  0.00    +0.052 A 
ATOM      7  C   UNL     1       5.086  -0.107   4.328  0.00  0.00    +0.025 A 
ATOM      8  C   UNL     1       5.054   0.404   5.611  0.00  0.00    +0.005 A 
ENDBRANCH   1   6
BRANCH   1   9
ATOM      9  S   UNL     1       4.776  -1.635   1.781  0.00  0.00    +0.075 S 
ATOM     10  O   UNL     1       4.564  -2.332   3.002  0.00  0.00    -0.150 OA
ATOM     11  O   UNL     1       4.174  -2.039   0.559  0.00  0.00    -0.150 OA
BRANCH   9  12
ATOM     12  C   UNL     1       6.516  -1.620   1.506  0.00  0.00    +0.109 A 
ATOM     13  C   UNL     1       7.013  -1.351   0.244  0.00  0.00    +0.030 A 
ATOM     14  C   UNL     1       8.378  -1.333   0.029  0.00  0.00    +0.022 A 
ATOM     15  C   UNL     1       9.247  -1.597   1.073  0.00  0.00    +0.041 A 
ATOM     16  C   UNL     1       8.748  -1.873   2.334  0.00  0.00    +0.022 A 
ATOM     17  C   UNL     1       7.383  -1.884   2.549  0.00  0.00    +0.030 A 
ATOM     18 CL   UNL     1      10.961  -1.582   0.801  0.00  0.00    -0.084 Cl
ENDBRANCH   9  12
ENDBRANCH   1   9
BRANCH   1  19
ATOM     19  C   UNL     1       3.929   0.782   0.912  0.00  0.00    +0.227 C 
BRANCH  19  20
ATOM     20  C   UNL     1       2.433   0.744   0.734  0.00  0.00    +0.233 C 
ATOM     21  O   UNL     1       1.751   0.073   1.479  0.00  0.00    -0.274 OA
ATOM     22  N   UNL     1       1.854   1.456  -0.253  0.00  0.00    -0.307 N 
ATOM     23  H   UNL     1       2.473   2.065  -0.928  0.00  0.00    +0.149 HD
BRANCH  22  24
ATOM     24  C   UNL     1       0.400   1.419  -0.426  0.00  0.00    +0.100 C 
ATOM     25  C   UNL     1      -0.253   2.419   0.531  0.00  0.00    +0.033 C 
BRANCH  24  26
ATOM     26  C   UNL     1       0.053   1.784  -1.846  0.00  0.00    -0.025 A 
ATOM     27  C   UNL     1       0.915   2.572  -2.587  0.00  0.00    +0.006 A 
ATOM     28  C   UNL     1       0.597   2.907  -3.890  0.00  0.00    +0.004 A 
ATOM     29  C   UNL     1      -0.582   2.453  -4.452  0.00  0.00    -0.050 A 
ATOM     30  C   UNL     1      -1.442   1.665  -3.712  0.00  0.00    +0.007 A 
ATOM     31  C   UNL     1      -1.122   1.327  -2.410  0.00  0.00    -0.045 A 
ATOM     32  C   UNL     1      -2.058   0.463  -1.605  0.00  0.00    +0.044 C 
ATOM     33  C   UNL     1      -0.928   2.819  -5.873  0.00  0.00    +0.044 C 
ENDBRANCH  24  26
ENDBRANCH  22  24
ENDBRANCH  19  20
ENDBRANCH   1  19
TORSDOF 7
