REMARK  Name = ZINC13037848
REMARK  4 active torsions:
REMARK  status: ('A' for Active; 'I' for Inactive)
REMARK    1  A    between atoms: C_2  and  C_26
REMARK    2  A    between atoms: N_4  and  C_9
REMARK    3  A    between atoms: C_9  and  C_10
REMARK    4  A    between atoms: N_12  and  C_13
REMARK                            x       y       z     vdW  Elec       q    Type
REMARK                         _______ _______ _______ _____ _____    ______ ____
ROOT
ATOM      1  C   UNL     1       2.423  -0.240   0.078  0.00  0.00    +0.237 C 
ATOM      2  O   UNL     1       1.384  -0.865   0.085  0.00  0.00    -0.274 OA
ATOM      3  N   UNL     1       2.401   1.104  -0.015  0.00  0.00    -0.283 N 
ATOM      4  H   UNL     1       3.231   1.598  -0.102  0.00  0.00    +0.155 HD
ENDROOT
BRANCH   3   5
ATOM      5  C   UNL     1       1.179   1.788   0.011  0.00  0.00    +0.050 A 
ATOM      6  C   UNL     1       0.077   1.213   0.627  0.00  0.00    +0.052 A 
ATOM      7  C   UNL     1      -1.133   1.889   0.647  0.00  0.00    +0.069 A 
ATOM      8  C   UNL     1      -1.235   3.151   0.057  0.00  0.00    +0.068 A 
ATOM      9  C   UNL     1      -0.131   3.721  -0.557  0.00  0.00    +0.045 A 
ATOM     10  C   UNL     1       1.072   3.042  -0.580  0.00  0.00    +0.041 A 
ATOM     11 BR   UNL     1       2.578   3.821  -1.417  0.00  0.00    -0.048 Br
ATOM     12  N   UNL     1      -2.551   3.575   0.241  0.00  0.00    -0.306 N 
ATOM     13  H   UNL     1      -2.925   4.416  -0.065  0.00  0.00    +0.170 HD
ATOM     14  C   UNL     1      -3.219   2.610   0.901  0.00  0.00    +0.325 A 
ATOM     15  O   UNL     1      -4.392   2.662   1.220  0.00  0.00    -0.247 OA
ATOM     16  N   UNL     1      -2.389   1.584   1.167  0.00  0.00    -0.306 N 
ATOM     17  H   UNL     1      -2.625   0.771   1.639  0.00  0.00    +0.170 HD
ENDBRANCH   3   5
BRANCH   1  18
ATOM     18  C   UNL     1       3.740  -0.967   0.175  0.00  0.00    +0.220 C 
BRANCH  18  22
ATOM     19  C   UNL     1       3.040  -5.113   0.432  0.00  0.00    +0.039 A 
ATOM     20  C   UNL     1       3.202  -4.484  -0.811  0.00  0.00    +0.073 A 
ATOM     21  C   UNL     1       3.425  -3.151  -0.869  0.00  0.00    +0.102 A 
ATOM     22  N   UNL     1       3.496  -2.409   0.266  0.00  0.00    -0.305 N 
ATOM     23  C   UNL     1       3.350  -2.984   1.475  0.00  0.00    +0.270 A 
ATOM     24  O   UNL     1       3.420  -2.304   2.486  0.00  0.00    -0.266 OA
ATOM     25  C   UNL     1       3.111  -4.367   1.572  0.00  0.00    +0.106 A 
ATOM     26 CL   UNL     1       2.915  -5.116   3.125  0.00  0.00    -0.078 Cl
BRANCH  20  27
ATOM     27  C   UNL     1       3.126  -5.292  -2.080  0.00  0.00    +0.419 C 
ATOM     28  F   UNL     1       4.379  -5.852  -2.352  0.00  0.00    -0.166 F 
ATOM     29  F   UNL     1       2.182  -6.313  -1.928  0.00  0.00    -0.166 F 
ATOM     30  F   UNL     1       2.747  -4.461  -3.140  0.00  0.00    -0.166 F 
ENDBRANCH  20  27
ENDBRANCH  18  22
ENDBRANCH   1  18
TORSDOF 4
