REMARK  Name = ZINC09584370
REMARK  5 active torsions:
REMARK  status: ('A' for Active; 'I' for Inactive)
REMARK    1  A    between atoms: C_1  and  C_2
REMARK    2  A    between atoms: C_5  and  C_7
REMARK    3  A    between atoms: N_14  and  C_17
REMARK    4  A    between atoms: C_17  and  C_18
REMARK    5  A    between atoms: N_23  and  C_24
REMARK                            x       y       z     vdW  Elec       q    Type
REMARK                         _______ _______ _______ _____ _____    ______ ____
ROOT
ATOM      1  C   UNL     1       8.306  -3.049   4.777  0.00  0.00    +0.222 C 
ENDROOT
BRANCH   1   9
ATOM      2  C   UNL     1       7.882  -6.376   8.534  0.00  0.00    +0.010 A 
ATOM      3  C   UNL     1       8.150  -7.666   8.855  0.00  0.00    +0.057 A 
ATOM      4  S   UNL     1       8.908  -8.311   7.377  0.00  0.00    -0.076 S 
ATOM      5  C   UNL     1       8.849  -6.851   6.371  0.00  0.00    +0.116 A 
ATOM      6  C   UNL     1       8.243  -5.896   7.204  0.00  0.00    +0.080 A 
ATOM      7  C   UNL     1       8.072  -4.595   6.634  0.00  0.00    +0.263 A 
ATOM      8  O   UNL     1       7.560  -3.698   7.281  0.00  0.00    -0.267 OA
ATOM      9  N   UNL     1       8.481  -4.377   5.370  0.00  0.00    -0.290 N 
ATOM     10  C   UNL     1       9.059  -5.363   4.636  0.00  0.00    +0.203 A 
ATOM     11  N   UNL     1       9.232  -6.559   5.131  0.00  0.00    -0.230 NA
BRANCH   2  16
ATOM     12  C   UNL     1       6.157  -2.310  12.036  0.00  0.00    +0.051 C 
ATOM     13  C   UNL     1       6.408  -3.530  11.188  0.00  0.00    -0.013 A 
ATOM     14  C   UNL     1       5.691  -4.679  11.113  0.00  0.00    +0.011 A 
ATOM     15  C   UNL     1       6.105  -5.675  10.255  0.00  0.00    +0.016 A 
ATOM     16  C   UNL     1       7.237  -5.474   9.511  0.00  0.00    +0.021 A 
ATOM     17  S   UNL     1       7.726  -3.835  10.023  0.00  0.00    -0.093 S 
ENDBRANCH   2  16
ENDBRANCH   1   9
BRANCH   1  18
ATOM     18  C   UNL     1       6.968  -2.980   4.087  0.00  0.00    +0.240 C 
ATOM     19  O   UNL     1       6.234  -3.945   4.090  0.00  0.00    -0.273 OA
ATOM     20  N   UNL     1       6.588  -1.846   3.466  0.00  0.00    -0.238 N 
ATOM     21  C   UNL     1       5.392  -1.784   2.849  0.00  0.00    +0.310 C 
ATOM     22  O   UNL     1       4.655  -2.751   2.853  0.00  0.00    -0.252 OA
ATOM     23  N   UNL     1       5.011  -0.649   2.228  0.00  0.00    -0.269 N 
ATOM     24  H   UNL     1       7.176  -1.074   3.464  0.00  0.00    +0.159 HD
ATOM     25  H   UNL     1       5.629   0.096   2.159  0.00  0.00    +0.156 HD
BRANCH  23  26
ATOM     26  C   UNL     1       3.725  -0.546   1.683  0.00  0.00    +0.038 A 
ATOM     27  C   UNL     1       2.658  -1.190   2.296  0.00  0.00    +0.027 A 
ATOM     28  C   UNL     1       1.388  -1.090   1.759  0.00  0.00    +0.051 A 
ATOM     29  C   UNL     1       1.176  -0.346   0.610  0.00  0.00    +0.166 A 
ATOM     30  C   UNL     1       2.244   0.302  -0.006  0.00  0.00    +0.168 A 
ATOM     31  C   UNL     1       3.516   0.200   0.532  0.00  0.00    +0.073 A 
ATOM     32  O   UNL     1       1.779   0.960  -1.108  0.00  0.00    -0.453 OA
ATOM     33  C   UNL     1       0.353   1.045  -0.931  0.00  0.00    +0.466 C 
ATOM     34  O   UNL     1       0.041  -0.093  -0.107  0.00  0.00    -0.453 OA
ENDBRANCH  23  26
ENDBRANCH   1  18
TORSDOF 4
