REMARK  Name = ZINC09300506
REMARK  11 active torsions:
REMARK  status: ('A' for Active; 'I' for Inactive)
REMARK    1  A    between atoms: C_1  and  C_2
REMARK    2  A    between atoms: C_2  and  C_3
REMARK    3  A    between atoms: C_6  and  C_9
REMARK    4  A    between atoms: C_11  and  C_15
REMARK    5  A    between atoms: C_12  and  C_14
REMARK    6  A    between atoms: C_15  and  N_65
REMARK    7  A    between atoms: C_18  and  C_21
REMARK    8  A    between atoms: N_23  and  C_24
REMARK    9  A    between atoms: C_24  and  C_26
REMARK   10  A    between atoms: C_24  and  C_27
REMARK   11  A    between atoms: C_27  and  C_28
REMARK                            x       y       z     vdW  Elec       q    Type
REMARK                         _______ _______ _______ _____ _____    ______ ____
ROOT
ATOM      1  C   UNL     1      -2.152   1.364   1.107  0.00  0.00    -0.078 C 
ATOM      2  C   UNL     1      -2.845   1.998   2.315  0.00  0.00    -0.006 C 
ATOM      3  C   UNL     1      -2.320   1.350   3.598  0.00  0.00    +0.071 C 
ATOM      4  C   UNL     1      -0.800   1.525   3.664  0.00  0.00    -0.006 C 
ATOM      5  C   UNL     1      -0.165   0.905   2.417  0.00  0.00    -0.078 C 
ATOM      6  N   UNL     1      -0.695   1.589   1.218  0.00  0.00    +0.383 N 
ATOM      7  H   UNL     1      -0.519   2.597   1.305  0.00  0.00    -0.081 HD
ENDROOT
BRANCH   3   8
ATOM      8  C   UNL     1      -2.955   2.011   4.794  0.00  0.00    +0.216 C 
ATOM      9  O   UNL     1      -2.262   2.569   5.618  0.00  0.00    -0.276 OA
ATOM     10  N   UNL     1      -4.294   1.984   4.947  0.00  0.00    -0.312 N 
ATOM     11  H   UNL     1      -4.848   1.538   4.288  0.00  0.00    +0.149 HD
BRANCH  10  12
ATOM     12  C   UNL     1      -4.912   2.627   6.109  0.00  0.00    +0.077 C 
ATOM     13  C   UNL     1      -5.123   4.114   5.817  0.00  0.00    +0.028 C 
BRANCH  12  14
ATOM     14  C   UNL     1      -6.261   1.967   6.400  0.00  0.00    +0.096 C 
BRANCH  14  15
ATOM     15  C   UNL     1      -6.042   0.533   6.807  0.00  0.00    +0.107 A 
ATOM     16  C   UNL     1      -5.848   0.093   8.064  0.00  0.00    +0.045 A 
ATOM     17  C   UNL     1      -5.690  -1.310   7.987  0.00  0.00    +0.041 A 
ATOM     18  C   UNL     1      -5.788  -1.642   6.687  0.00  0.00    +0.195 A 
ATOM     19  O   UNL     1      -6.002  -0.522   5.977  0.00  0.00    -0.468 OA
ENDBRANCH  14  15
ENDBRANCH  12  14
ENDBRANCH  10  12
ENDBRANCH   3   8
BRANCH   6  20
ATOM     20  C   UNL     1      -0.013   1.086   0.008  0.00  0.00    -0.019 C 
BRANCH  20  23
ATOM     21  C   UNL     1      -1.338   2.831  -2.868  0.00  0.00    +0.228 A 
ATOM     22  N   UNL     1      -0.509   2.740  -1.854  0.00  0.00    -0.216 NA
ATOM     23  C   UNL     1      -0.742   1.585  -1.213  0.00  0.00    +0.066 A 
ATOM     24  C   UNL     1      -1.737   0.949  -1.857  0.00  0.00    +0.124 A 
ATOM     25  O   UNL     1      -2.112   1.732  -2.888  0.00  0.00    -0.440 OA
ATOM     26  C   UNL     1      -2.326  -0.389  -1.491  0.00  0.00    +0.088 C 
BRANCH  21  30
ATOM     27  C   UNL     1      -1.541   6.057  -5.623  0.00  0.00    -0.048 A 
ATOM     28  C   UNL     1      -2.400   4.981  -5.759  0.00  0.00    +0.004 A 
ATOM     29  C   UNL     1      -2.339   3.929  -4.867  0.00  0.00    +0.013 A 
ATOM     30  C   UNL     1      -1.408   3.954  -3.827  0.00  0.00    +0.037 A 
ATOM     31  C   UNL     1      -0.549   5.045  -3.693  0.00  0.00    +0.013 A 
ATOM     32  C   UNL     1      -0.616   6.087  -4.595  0.00  0.00    +0.004 A 
BRANCH  27  34
ATOM     33  C   UNL     1      -2.601   8.251  -6.085  0.00  0.00    +0.009 C 
ATOM     34  C   UNL     1      -1.613   7.202  -6.601  0.00  0.00    +0.032 C 
ENDBRANCH  27  34
ENDBRANCH  21  30
ENDBRANCH  20  23
ENDBRANCH   6  20
TORSDOF 8
