REMARK  Name = ZINC00930985
REMARK  6 active torsions:
REMARK  status: ('A' for Active; 'I' for Inactive)
REMARK    1  A    between atoms: C_9  and  C_12
REMARK    2  A    between atoms: N_14  and  C_15
REMARK    3  A    between atoms: N_14  and  C_24
REMARK    4  A    between atoms: C_24  and  C_26
REMARK    5  A    between atoms: C_24  and  C_31
REMARK    6  A    between atoms: N_33  and  C_34
REMARK                            x       y       z     vdW  Elec       q    Type
REMARK                         _______ _______ _______ _____ _____    ______ ____
ROOT
ATOM      1  C   UNL     1      -4.318   0.743   1.264  0.00  0.00    +0.265 C 
ATOM      2  O   UNL     1      -3.563   0.027   1.888  0.00  0.00    -0.271 OA
ATOM      3  N   UNL     1      -3.857   1.461   0.221  0.00  0.00    -0.252 N 
ENDROOT
BRANCH   1  12
ATOM      4  C   UNL     1     -10.001  -0.894   3.569  0.00  0.00    +0.004 A 
ATOM      5  C   UNL     1      -9.535  -1.883   2.722  0.00  0.00    +0.004 A 
ATOM      6  C   UNL     1      -8.310  -1.742   2.099  0.00  0.00    +0.049 A 
ATOM      7  C   UNL     1      -7.543  -0.607   2.322  0.00  0.00    +0.163 A 
ATOM      8  C   UNL     1      -8.013   0.388   3.171  0.00  0.00    +0.162 A 
ATOM      9  C   UNL     1      -9.243   0.239   3.794  0.00  0.00    +0.049 A 
ATOM     10  O   UNL     1      -7.281   1.513   3.398  0.00  0.00    -0.484 OA
ATOM     11  C   UNL     1      -5.892   1.457   3.052  0.00  0.00    +0.283 C 
ATOM     12  C   UNL     1      -5.770   0.831   1.657  0.00  0.00    +0.296 C 
ATOM     13  O   UNL     1      -6.337  -0.483   1.703  0.00  0.00    -0.472 OA
ENDBRANCH   1  12
BRANCH   3  14
ATOM     14  C   UNL     1      -4.750   2.184  -0.581  0.00  0.00    +0.041 A 
ATOM     15  C   UNL     1      -4.785   1.968  -1.952  0.00  0.00    +0.027 A 
ATOM     16  C   UNL     1      -5.665   2.680  -2.743  0.00  0.00    +0.051 A 
ATOM     17  C   UNL     1      -6.517   3.612  -2.171  0.00  0.00    +0.166 A 
ATOM     18  C   UNL     1      -6.484   3.832  -0.796  0.00  0.00    +0.168 A 
ATOM     19  C   UNL     1      -5.604   3.113  -0.003  0.00  0.00    +0.073 A 
ATOM     20  O   UNL     1      -7.408   4.787  -0.484  0.00  0.00    -0.453 OA
ATOM     21  C   UNL     1      -8.289   4.855  -1.621  0.00  0.00    +0.466 C 
ATOM     22  O   UNL     1      -7.462   4.430  -2.720  0.00  0.00    -0.453 OA
ENDBRANCH   3  14
BRANCH   3  23
ATOM     23  C   UNL     1      -2.423   1.484  -0.076  0.00  0.00    +0.204 C 
BRANCH  23  24
ATOM     24  C   UNL     1      -1.994   2.898  -0.373  0.00  0.00    +0.019 A 
ATOM     25  C   UNL     1      -0.937   3.591   0.117  0.00  0.00    +0.013 A 
ATOM     26  C   UNL     1      -0.733   4.890  -0.306  0.00  0.00    +0.008 A 
ATOM     27  C   UNL     1      -1.598   5.436  -1.196  0.00  0.00    +0.045 A 
ATOM     28  S   UNL     1      -2.748   4.096  -1.461  0.00  0.00    -0.099 S 
ENDBRANCH  23  24
BRANCH  23  29
ATOM     29  C   UNL     1      -2.143   0.613  -1.274  0.00  0.00    +0.239 C 
ATOM     30  O   UNL     1      -3.053   0.029  -1.825  0.00  0.00    -0.273 OA
ATOM     31  N   UNL     1      -0.883   0.481  -1.732  0.00  0.00    -0.311 N 
ATOM     32  H   UNL     1      -0.155   0.948  -1.291  0.00  0.00    +0.149 HD
BRANCH  31  33
ATOM     33  C   UNL     1      -0.611  -0.366  -2.896  0.00  0.00    +0.073 C 
ATOM     34  C   UNL     1      -0.441  -1.817  -2.442  0.00  0.00    +0.022 C 
ATOM     35  C   UNL     1      -0.157  -2.702  -3.657  0.00  0.00    +0.002 C 
ATOM     36  C   UNL     1       1.126  -2.229  -4.344  0.00  0.00    +0.000 C 
ATOM     37  C   UNL     1       0.955  -0.778  -4.798  0.00  0.00    +0.002 C 
ATOM     38  C   UNL     1       0.672   0.107  -3.583  0.00  0.00    +0.022 C 
ENDBRANCH  31  33
ENDBRANCH  23  29
ENDBRANCH   3  23
TORSDOF 6
