REMARK  Name = ZINC08472208
REMARK  17 active torsions:
REMARK  status: ('A' for Active; 'I' for Inactive)
REMARK    1  A    between atoms: C_1  and  C_2
REMARK    2  A    between atoms: C_2  and  C_3
REMARK    3  A    between atoms: C_3  and  C_4
REMARK    4  A    between atoms: C_4  and  N_68
REMARK    5  A    between atoms: C_5  and  C_6
REMARK    6  A    between atoms: C_5  and  N_68
REMARK    7  A    between atoms: C_6  and  C_7
REMARK    8  A    between atoms: C_7  and  C_8
REMARK    9  A    between atoms: C_9  and  C_10
REMARK   10  A    between atoms: C_9  and  N_68
REMARK   11  A    between atoms: N_12  and  C_13
REMARK   12  A    between atoms: C_14  and  C_28
REMARK   13  A    between atoms: C_19  and  C_23
REMARK   14  A    between atoms: C_23  and  C_24
REMARK   15  A    between atoms: C_23  and  C_25
REMARK   16  A    between atoms: C_23  and  C_26
REMARK   17  A    between atoms: C_26  and  C_27
REMARK                            x       y       z     vdW  Elec       q    Type
REMARK                         _______ _______ _______ _____ _____    ______ ____
ROOT
ATOM      1  C   UNL     1      -4.909   0.732  -0.275  0.00  0.00    +0.090 A 
ATOM      2  C   UNL     1      -6.175   0.173  -0.359  0.00  0.00    +0.084 A 
ATOM      3  C   UNL     1      -7.033   0.614  -1.445  0.00  0.00    -0.018 A 
ATOM      4  C   UNL     1      -6.485   1.529  -2.276  0.00  0.00    -0.004 A 
ATOM      5  S   UNL     1      -4.862   1.813  -1.628  0.00  0.00    -0.077 S 
ATOM      6  C   UNL     1      -7.124   2.156  -3.476  0.00  0.00    +0.047 C 
ATOM      7  C   UNL     1      -8.363   1.329  -3.852  0.00  0.00    -0.000 C 
ATOM      8  C   UNL     1      -9.188   1.076  -2.587  0.00  0.00    +0.009 C 
ATOM      9  C   UNL     1      -8.449   0.100  -1.670  0.00  0.00    +0.037 C 
ENDROOT
BRANCH   1  12
ATOM     10  C   UNL     1      -2.734   1.122   0.581  0.00  0.00    +0.201 C 
ATOM     11  O   UNL     1      -2.536   1.917  -0.313  0.00  0.00    -0.278 OA
ATOM     12  N   UNL     1      -3.917   0.481   0.663  0.00  0.00    -0.281 N 
ATOM     13  H   UNL     1      -4.074  -0.156   1.378  0.00  0.00    +0.155 HD
BRANCH  10  14
ATOM     14  C   UNL     1      -1.657   0.850   1.599  0.00  0.00    +0.019 C 
BRANCH  14  15
ATOM     15  N   UNL     1      -0.469   1.663   1.262  0.00  0.00    +0.385 N 
ATOM     16  H   UNL     1      -0.774   2.613   1.020  0.00  0.00    -0.081 HD
BRANCH  15  17
ATOM     17  C   UNL     1       0.235   1.074   0.104  0.00  0.00    -0.078 C 
BRANCH  17  18
ATOM     18  C   UNL     1       0.782  -0.311   0.456  0.00  0.00    -0.019 C 
BRANCH  18  20
ATOM     19  C   UNL     1       2.075  -2.271  -0.398  0.00  0.00    +0.004 C 
ATOM     20  C   UNL     1       1.527  -0.887  -0.750  0.00  0.00    -0.005 C 
ENDBRANCH  18  20
ENDBRANCH  17  18
ENDBRANCH  15  17
BRANCH  15  21
ATOM     21  C   UNL     1       0.441   1.733   2.425  0.00  0.00    -0.078 C 
BRANCH  21  22
ATOM     22  C   UNL     1       1.542   2.754   2.129  0.00  0.00    -0.019 C 
BRANCH  22  23
ATOM     23  C   UNL     1       2.481   2.854   3.332  0.00  0.00    -0.005 C 
ATOM     24  C   UNL     1       3.581   3.876   3.037  0.00  0.00    +0.004 C 
ENDBRANCH  22  23
ENDBRANCH  21  22
ENDBRANCH  15  21
ENDBRANCH  14  15
ENDBRANCH  10  14
ENDBRANCH   1  12
BRANCH   7  25
ATOM     25  C   UNL     1      -9.206   2.101  -4.868  0.00  0.00    -0.032 C 
ATOM     26  C   UNL     1     -10.448   1.284  -5.226  0.00  0.00    +0.011 C 
ATOM     27  C   UNL     1      -9.633   3.440  -4.264  0.00  0.00    +0.011 C 
BRANCH  25  28
ATOM     28  C   UNL     1      -8.379   2.353  -6.131  0.00  0.00    +0.003 C 
ATOM     29  C   UNL     1      -9.222   3.125  -7.147  0.00  0.00    +0.004 C 
ENDBRANCH  25  28
ENDBRANCH   7  25
BRANCH   2  30
ATOM     30  C   UNL     1      -6.622  -0.800   0.592  0.00  0.00    +0.102 C 
ATOM     31  N   UNL     1      -6.977  -1.571   1.346  0.00  0.00    -0.191 NA
ENDBRANCH   2  30
TORSDOF 12
