REMARK  Name = ZINC22200383
REMARK  11 active torsions:
REMARK  status: ('A' for Active; 'I' for Inactive)
REMARK    1  A    between atoms: C_1  and  C_2
REMARK    2  A    between atoms: C_6  and  N_9
REMARK    3  A    between atoms: C_7  and  C_8
REMARK    4  A    between atoms: C_10  and  S_14
REMARK    5  A    between atoms: S_14  and  C_15
REMARK    6  A    between atoms: C_15  and  C_16
REMARK    7  A    between atoms: C_16  and  C_17
REMARK    8  A    between atoms: N_19  and  C_20
REMARK    9  A    between atoms: C_21  and  C_33
REMARK   10  A    between atoms: N_22  and  C_32
REMARK   11  A    between atoms: N_23  and  C_26
REMARK                            x       y       z     vdW  Elec       q    Type
REMARK                         _______ _______ _______ _____ _____    ______ ____
ROOT
ATOM      1  C   UNL     1      -0.019  -1.181   4.700  0.00  0.00    +0.218 C 
ATOM      2  O   UNL     1      -0.335  -0.559   5.693  0.00  0.00    -0.275 OA
ATOM      3  N   UNL     1       0.345  -0.524   3.581  0.00  0.00    -0.280 N 
ATOM      4  H   UNL     1       0.546  -1.084   2.656  0.00  0.00    +0.155 HD
ENDROOT
BRANCH   3   5
ATOM      5  C   UNL     1       0.467   0.879   3.596  0.00  0.00    +0.121 A 
ATOM      6  C   UNL     1       1.560   1.593   3.243  0.00  0.00    +0.059 A 
ATOM      7  N   UNL     1       1.283   2.925   3.402  0.00  0.00    -0.282 N 
ATOM      8  N   UNL     1      -0.031   3.068   3.862  0.00  0.00    -0.216 N 
ATOM      9  C   UNL     1      -0.564   1.837   3.997  0.00  0.00    +0.293 A 
ATOM     10  O   UNL     1      -1.690   1.572   4.380  0.00  0.00    -0.264 OA
ATOM     11  C   UNL     1       2.212   4.024   3.129  0.00  0.00    +0.171 C 
ATOM     12  C   UNL     1       2.868   1.018   2.762  0.00  0.00    +0.067 C 
BRANCH   8  13
ATOM     13  C   UNL     1      -0.677   4.278   4.140  0.00  0.00    +0.067 A 
ATOM     14  C   UNL     1      -1.352   4.446   5.342  0.00  0.00    +0.028 A 
ATOM     15  C   UNL     1      -1.982   5.644   5.615  0.00  0.00    +0.002 A 
ATOM     16  C   UNL     1      -1.953   6.670   4.689  0.00  0.00    +0.000 A 
ATOM     17  C   UNL     1      -1.287   6.503   3.489  0.00  0.00    +0.002 A 
ATOM     18  C   UNL     1      -0.649   5.310   3.211  0.00  0.00    +0.028 A 
ENDBRANCH   8  13
ENDBRANCH   3   5
BRANCH   1  19
ATOM     19  C   UNL     1      -0.034  -2.688   4.718  0.00  0.00    +0.107 C 
BRANCH  19  20
ATOM     20  C   UNL     1      -0.481  -3.177   6.098  0.00  0.00    +0.086 C 
BRANCH  20  21
ATOM     21  S   UNL     1      -0.498  -4.987   6.120  0.00  0.00    -0.084 S 
BRANCH  21  23
ATOM     22  N   UNL     1      -1.230  -6.473   8.366  0.00  0.00    -0.187 N 
ATOM     23  C   UNL     1      -1.033  -5.267   7.775  0.00  0.00    +0.214 A 
ATOM     24  N   UNL     1      -1.311  -4.347   8.674  0.00  0.00    -0.101 NA
ATOM     25  N   UNL     1      -1.675  -4.893   9.778  0.00  0.00    -0.022 NA
ATOM     26  N   UNL     1      -1.649  -6.177   9.675  0.00  0.00    -0.038 NA
BRANCH  22  32
ATOM     27  C   UNL     1       0.668 -11.004   8.614  0.00  0.00    +0.044 C 
ATOM     28  C   UNL     1      -0.138  -9.954   7.893  0.00  0.00    -0.046 A 
ATOM     29  C   UNL     1      -0.704 -10.242   6.664  0.00  0.00    +0.004 A 
ATOM     30  C   UNL     1      -1.444  -9.282   6.000  0.00  0.00    +0.002 A 
ATOM     31  C   UNL     1      -1.625  -8.034   6.564  0.00  0.00    +0.028 A 
ATOM     32  C   UNL     1      -1.053  -7.741   7.794  0.00  0.00    +0.073 A 
ATOM     33  C   UNL     1      -0.310  -8.707   8.459  0.00  0.00    -0.022 A 
ATOM     34  C   UNL     1       0.308  -8.394   9.797  0.00  0.00    +0.046 C 
ENDBRANCH  22  32
ENDBRANCH  21  23
ENDBRANCH  20  21
ENDBRANCH  19  20
ENDBRANCH   1  19
TORSDOF 7
