REMARK  Name = ZINC49506521
REMARK  9 active torsions:
REMARK  status: ('A' for Active; 'I' for Inactive)
REMARK    1  A    between atoms: C_1  and  C_2
REMARK    2  A    between atoms: C_2  and  C_4
REMARK    3  A    between atoms: C_8  and  S_10
REMARK    4  A    between atoms: S_10  and  N_13
REMARK    5  A    between atoms: N_13  and  C_14
REMARK    6  A    between atoms: N_23  and  S_24
REMARK    7  A    between atoms: S_24  and  C_27
REMARK    8  A    between atoms: C_30  and  O_33
REMARK    9  A    between atoms: O_33  and  C_34
REMARK                            x       y       z     vdW  Elec       q    Type
REMARK                         _______ _______ _______ _____ _____    ______ ____
ROOT
ATOM      1  C   UNL     1      -2.401  -6.468  -1.884  0.00  0.00    +0.075 A 
ATOM      2  C   UNL     1      -2.391  -7.412  -0.865  0.00  0.00    +0.028 A 
ATOM      3  C   UNL     1      -2.384  -8.756  -1.175  0.00  0.00    +0.027 A 
ATOM      4  C   UNL     1      -2.388  -9.167  -2.503  0.00  0.00    +0.055 A 
ATOM      5  C   UNL     1      -2.401  -8.227  -3.522  0.00  0.00    -0.023 A 
ATOM      6  C   UNL     1      -2.412  -6.878  -3.209  0.00  0.00    +0.032 A 
ATOM      7  C   UNL     1      -2.417  -8.638  -4.971  0.00  0.00    +0.039 C 
ATOM      8  C   UNL     1      -1.909 -10.071  -5.127  0.00  0.00    +0.025 C 
ATOM      9  C   UNL     1      -2.680 -10.979  -4.161  0.00  0.00    +0.132 C 
ATOM     10  N   UNL     1      -2.377 -10.539  -2.793  0.00  0.00    -0.203 N 
ENDROOT
BRANCH  10  11
ATOM     11  S   UNL     1      -2.025 -11.646  -1.611  0.00  0.00    +0.075 S 
ATOM     12  O   UNL     1      -1.655 -12.845  -2.276  0.00  0.00    -0.150 OA
ATOM     13  O   UNL     1      -1.168 -10.992  -0.685  0.00  0.00    -0.150 OA
BRANCH  11  14
ATOM     14  C   UNL     1      -3.526 -11.987  -0.755  0.00  0.00    +0.109 A 
ATOM     15  C   UNL     1      -3.883 -11.226   0.343  0.00  0.00    +0.032 A 
ATOM     16  C   UNL     1      -5.059 -11.492   1.017  0.00  0.00    +0.047 A 
ATOM     17  C   UNL     1      -5.883 -12.524   0.591  0.00  0.00    +0.120 A 
ATOM     18  C   UNL     1      -5.523 -13.286  -0.511  0.00  0.00    +0.047 A 
ATOM     19  C   UNL     1      -4.348 -13.013  -1.184  0.00  0.00    +0.032 A 
BRANCH  17  20
ATOM     20  O   UNL     1      -7.040 -12.789   1.252  0.00  0.00    -0.495 OA
ATOM     21  C   UNL     1      -7.839 -13.866   0.758  0.00  0.00    +0.277 C 
ENDBRANCH  17  20
ENDBRANCH  11  14
ENDBRANCH  10  11
BRANCH   1  22
ATOM     22  N   UNL     1      -2.406  -5.103  -1.574  0.00  0.00    -0.098 NA
BRANCH  22  23
ATOM     23  S   UNL     1      -2.393  -4.613   0.008  0.00  0.00    +0.092 S 
ATOM     24  O   UNL     1      -1.140  -5.012   0.546  0.00  0.00    -0.148 OA
ATOM     25  O   UNL     1      -3.630  -5.026   0.571  0.00  0.00    -0.148 OA
BRANCH  23  30
ATOM     26  C   UNL     1      -1.222  -0.758  -0.003  0.00  0.00    +0.019 A 
ATOM     27  C   UNL     1      -2.442  -0.075   0.010  0.00  0.00    +0.011 A 
ATOM     28  C   UNL     1      -3.625  -0.784   0.021  0.00  0.00    +0.003 A 
ATOM     29  C   UNL     1      -3.606  -2.168   0.020  0.00  0.00    +0.029 A 
ATOM     30  C   UNL     1      -2.403  -2.851   0.008  0.00  0.00    +0.111 A 
ATOM     31  C   UNL     1      -1.212  -2.156  -0.009  0.00  0.00    +0.040 A 
BRANCH  26  33
ATOM     32  C   UNL     1       0.029   1.498  -0.009  0.00  0.00    +0.091 C 
ATOM     33  C   UNL     1       0.045  -0.009  -0.015  0.00  0.00    +0.160 C 
ATOM     34  O   UNL     1       1.101  -0.605  -0.032  0.00  0.00    -0.292 OA
ENDBRANCH  26  33
ENDBRANCH  23  30
ENDBRANCH  22  23
ENDBRANCH   1  22
TORSDOF 7
