REMARK  Name = ZINC09971813
REMARK  8 active torsions:
REMARK  status: ('A' for Active; 'I' for Inactive)
REMARK    1  A    between atoms: C_1  and  N_2
REMARK    2  A    between atoms: N_2  and  C_3
REMARK    3  A    between atoms: N_2  and  S_4
REMARK    4  A    between atoms: S_4  and  N_7
REMARK    5  A    between atoms: N_10  and  C_13
REMARK    6  A    between atoms: C_16  and  N_30
REMARK    7  A    between atoms: C_17  and  N_19
REMARK    8  A    between atoms: N_19  and  C_20
REMARK                            x       y       z     vdW  Elec       q    Type
REMARK                         _______ _______ _______ _____ _____    ______ ____
ROOT
ATOM      1  C   UNL     1       5.610   1.147  -0.013  0.00  0.00    +0.032 A 
ATOM      2  C   UNL     1       6.283   0.764   1.140  0.00  0.00    +0.025 A 
ATOM      3  C   UNL     1       5.579   0.519   2.304  0.00  0.00    +0.036 A 
ATOM      4  C   UNL     1       4.205   0.655   2.324  0.00  0.00    +0.147 A 
ATOM      5  C   UNL     1       3.525   1.038   1.174  0.00  0.00    +0.060 A 
ATOM      6  C   UNL     1       4.229   1.278   0.002  0.00  0.00    +0.048 A 
ENDROOT
BRANCH   1  10
ATOM      7  N   UNL     1       7.955   0.949  -3.403  0.00  0.00    -0.163 NA
ATOM      8  C   UNL     1       8.522   1.642  -2.236  0.00  0.00    +0.129 C 
ATOM      9  C   UNL     1       7.763   1.190  -0.985  0.00  0.00    +0.122 C 
ATOM     10  N   UNL     1       6.322   1.394  -1.189  0.00  0.00    -0.327 N 
ATOM     11  C   UNL     1       5.818   0.567  -2.293  0.00  0.00    +0.122 C 
ATOM     12  C   UNL     1       6.498   0.994  -3.599  0.00  0.00    +0.129 C 
BRANCH   7  13
ATOM     13  S   UNL     1       8.931   0.139  -4.468  0.00  0.00    +0.099 S 
ATOM     14  O   UNL     1       8.226   0.080  -5.701  0.00  0.00    -0.141 OA
ATOM     15  O   UNL     1      10.223   0.719  -4.356  0.00  0.00    -0.141 OA
BRANCH  13  17
ATOM     16  C   UNL     1       8.104  -2.434  -4.367  0.00  0.00    +0.132 C 
ATOM     17  N   UNL     1       9.063  -1.419  -3.923  0.00  0.00    -0.172 NA
ATOM     18  C   UNL     1      10.139  -1.783  -2.998  0.00  0.00    +0.132 C 
ENDBRANCH  13  17
ENDBRANCH   7  13
ENDBRANCH   1  10
BRANCH   4  19
ATOM     19  N   UNL     1       3.454   0.393   3.573  0.00  0.00    +0.058 N 
ATOM     20  O   UNL     1       4.055   0.166   4.608  0.00  0.00    -0.126 OA
ATOM     21  O   UNL     1       2.237   0.403   3.566  0.00  0.00    -0.126 OA
ENDBRANCH   4  19
BRANCH   5  22
ATOM     22  N   UNL     1       2.135   1.175   1.196  0.00  0.00    -0.339 N 
ATOM     23  H   UNL     1       1.636   0.931   1.991  0.00  0.00    +0.146 HD
BRANCH  22  24
ATOM     24  C   UNL     1       1.431   1.686   0.017  0.00  0.00    +0.077 C 
ATOM     25  C   UNL     1      -0.013   1.179   0.026  0.00  0.00    +0.010 C 
ATOM     26  C   UNL     1      -0.717   1.669   1.294  0.00  0.00    +0.009 C 
ATOM     27  C   UNL     1      -0.713   3.198   1.321  0.00  0.00    -0.010 C 
ATOM     28  C   UNL     1      -1.448   3.732   0.090  0.00  0.00    +0.007 C 
ATOM     29  C   UNL     1      -0.744   3.243  -1.177  0.00  0.00    -0.010 C 
ATOM     30  C   UNL     1      -0.748   1.714  -1.204  0.00  0.00    +0.009 C 
ATOM     31  C   UNL     1       0.700   3.750  -1.186  0.00  0.00    +0.009 C 
ATOM     32  C   UNL     1       1.435   3.216   0.045  0.00  0.00    +0.010 C 
ATOM     33  C   UNL     1       0.731   3.705   1.312  0.00  0.00    +0.009 C 
ENDBRANCH  22  24
ENDBRANCH   5  22
TORSDOF 6
