REMARK  Name = ZINC35530498
REMARK  5 active torsions:
REMARK  status: ('A' for Active; 'I' for Inactive)
REMARK    1  A    between atoms: C_1  and  C_2
REMARK    2  A    between atoms: C_7  and  N_14
REMARK    3  A    between atoms: C_10  and  C_12
REMARK    4  A    between atoms: C_10  and  C_13
REMARK    5  A    between atoms: N_17  and  C_18
REMARK                            x       y       z     vdW  Elec       q    Type
REMARK                         _______ _______ _______ _____ _____    ______ ____
ROOT
ATOM      1  N   UNL     1      -0.689   0.613   2.880  0.00  0.00    -0.292 N 
ATOM      2  C   UNL     1      -0.397   1.507   3.845  0.00  0.00    +0.304 C 
ATOM      3  O   UNL     1       0.689   1.478   4.393  0.00  0.00    -0.252 OA
ATOM      4  N   UNL     1      -1.307   2.434   4.204  0.00  0.00    -0.269 N 
ATOM      5  H   UNL     1      -1.525   0.681   2.393  0.00  0.00    +0.151 HD
ATOM      6  H   UNL     1      -2.147   2.499   3.723  0.00  0.00    +0.156 HD
ENDROOT
BRANCH   1  13
ATOM      7  C   UNL     1      -0.002   1.512   0.009  0.00  0.00    +0.047 C 
ATOM      8  C   UNL     1       0.014   0.005  -0.002  0.00  0.00    -0.008 A 
ATOM      9  C   UNL     1      -0.072  -0.793  -1.085  0.00  0.00    +0.198 A 
ATOM     10  O   UNL     1      -0.022  -2.073  -0.676  0.00  0.00    -0.467 OA
ATOM     11  C   UNL     1       0.096  -2.111   0.656  0.00  0.00    +0.111 A 
ATOM     12  C   UNL     1       0.127  -0.843   1.115  0.00  0.00    +0.017 A 
ATOM     13  C   UNL     1       0.256  -0.462   2.566  0.00  0.00    +0.109 C 
ATOM     14  C   UNL     1      -0.062  -1.696   3.420  0.00  0.00    +0.034 C 
ATOM     15  C   UNL     1       0.745  -2.892   2.907  0.00  0.00    -0.026 C 
ATOM     16  C   UNL     1       0.192  -3.329   1.542  0.00  0.00    +0.081 C 
ATOM     17  C   UNL     1       0.625  -4.051   3.898  0.00  0.00    +0.011 C 
ATOM     18  C   UNL     1       2.215  -2.492   2.765  0.00  0.00    +0.011 C 
ENDBRANCH   1  13
BRANCH   4  19
ATOM     19  C   UNL     1      -1.041   3.301   5.269  0.00  0.00    +0.035 A 
ATOM     20  C   UNL     1      -2.069   3.706   6.111  0.00  0.00    +0.025 A 
ATOM     21  C   UNL     1      -1.803   4.562   7.162  0.00  0.00    +0.022 A 
ATOM     22  C   UNL     1      -0.514   5.017   7.376  0.00  0.00    +0.041 A 
ATOM     23  C   UNL     1       0.512   4.616   6.539  0.00  0.00    +0.022 A 
ATOM     24  C   UNL     1       0.253   3.755   5.490  0.00  0.00    +0.025 A 
ATOM     25 CL   UNL     1      -0.184   6.093   8.698  0.00  0.00    -0.084 Cl
ENDBRANCH   4  19
TORSDOF 2
