REMARK  Name = ZINC36157521
REMARK  10 active torsions:
REMARK  status: ('A' for Active; 'I' for Inactive)
REMARK    1  A    between atoms: C_1  and  C_2
REMARK    2  A    between atoms: C_2  and  C_3
REMARK    3  A    between atoms: C_2  and  C_4
REMARK    4  A    between atoms: C_14  and  C_40
REMARK    5  A    between atoms: C_18  and  C_19
REMARK    6  A    between atoms: C_18  and  C_20
REMARK    7  A    between atoms: C_20  and  N_21
REMARK    8  A    between atoms: N_21  and  C_22
REMARK    9  A    between atoms: N_32  and  C_33
REMARK   10  A    between atoms: C_33  and  C_34
REMARK                            x       y       z     vdW  Elec       q    Type
REMARK                         _______ _______ _______ _____ _____    ______ ____
ROOT
ATOM      1  C   UNL     1       4.654  -1.510  -6.958  0.00  0.00    -0.073 C 
ENDROOT
BRANCH   1  15
ATOM      2  C   UNL     1      -0.843  -0.673  -2.592  0.00  0.00    -0.045 A 
ATOM      3  C   UNL     1      -1.030  -0.380  -3.930  0.00  0.00    +0.004 A 
ATOM      4  C   UNL     1      -0.075  -0.754  -4.853  0.00  0.00    +0.005 A 
ATOM      5  C   UNL     1       1.073  -1.421  -4.446  0.00  0.00    -0.038 A 
ATOM      6  C   UNL     1       1.264  -1.708  -3.113  0.00  0.00    -0.043 A 
ATOM      7  C   UNL     1       0.299  -1.330  -2.187  0.00  0.00    +0.007 A 
ATOM      8  C   UNL     1       2.492  -2.410  -2.595  0.00  0.00    +0.036 C 
ATOM      9  C   UNL     1       3.249  -3.091  -3.735  0.00  0.00    +0.009 C 
ATOM     10  C   UNL     1       3.430  -2.075  -4.864  0.00  0.00    +0.004 C 
ATOM     11  C   UNL     1       2.072  -1.812  -5.508  0.00  0.00    -0.004 C 
ATOM     12  C   UNL     1       1.568  -3.081  -6.203  0.00  0.00    +0.011 C 
ATOM     13  C   UNL     1       2.583  -3.537  -7.252  0.00  0.00    +0.001 C 
ATOM     14  C   UNL     1       3.912  -3.851  -6.561  0.00  0.00    +0.005 C 
ATOM     15  C   UNL     1       4.424  -2.588  -5.897  0.00  0.00    -0.044 C 
ATOM     16  C   UNL     1       5.752  -2.908  -5.207  0.00  0.00    +0.009 C 
ATOM     17  C   UNL     1       2.202  -0.681  -6.530  0.00  0.00    +0.016 C 
BRANCH   2  19
ATOM     18  C   UNL     1      -2.062   1.249  -1.607  0.00  0.00    +0.012 C 
ATOM     19  C   UNL     1      -1.883  -0.270  -1.578  0.00  0.00    +0.013 C 
ATOM     20  C   UNL     1      -3.213  -0.946  -1.916  0.00  0.00    +0.012 C 
ENDBRANCH   2  19
ENDBRANCH   1  15
BRANCH   1  21
ATOM     21  N   UNL     1       5.739  -1.931  -7.856  0.00  0.00    +0.394 N 
ATOM     22  H   UNL     1       6.558  -2.155  -7.311  0.00  0.00    -0.083 HD
ATOM     23  H   UNL     1       5.448  -2.744  -8.377  0.00  0.00    -0.083 HD
BRANCH  21  24
ATOM     24  C   UNL     1       6.054  -0.839  -8.787  0.00  0.00    +0.051 C 
ATOM     25  C   UNL     1       4.906  -0.625  -9.742  0.00  0.00    -0.032 A 
ATOM     26  C   UNL     1       3.587  -0.277  -9.566  0.00  0.00    +0.004 A 
ATOM     27  C   UNL     1       2.752  -0.154 -10.664  0.00  0.00    +0.000 A 
ATOM     28  C   UNL     1       3.241  -0.381 -11.939  0.00  0.00    +0.001 A 
ATOM     29  C   UNL     1       4.562  -0.730 -12.126  0.00  0.00    +0.013 A 
ATOM     30  C   UNL     1       5.410  -0.856 -11.024  0.00  0.00    +0.040 A 
ATOM     31  C   UNL     1       6.838  -1.208 -10.903  0.00  0.00    +0.246 C 
ATOM     32  O   UNL     1       7.570  -1.468 -11.838  0.00  0.00    -0.270 OA
ATOM     33  N   UNL     1       7.213  -1.199  -9.611  0.00  0.00    -0.305 N 
BRANCH  33  34
ATOM     34  C   UNL     1       8.557  -1.498  -9.110  0.00  0.00    +0.138 C 
BRANCH  34  35
ATOM     35  C   UNL     1       8.713  -3.011  -8.942  0.00  0.00    +0.136 C 
ATOM     36  C   UNL     1      10.114  -3.333  -8.379  0.00  0.00    +0.035 C 
ATOM     37  C   UNL     1      10.499  -4.614  -9.168  0.00  0.00    +0.031 C 
ATOM     38  C   UNL     1       9.827  -4.331 -10.535  0.00  0.00    +0.160 C 
ATOM     39  O   UNL     1       8.598  -3.655 -10.216  0.00  0.00    -0.375 OA
ENDBRANCH  34  35
ENDBRANCH  33  34
ENDBRANCH  21  24
ENDBRANCH   1  21
TORSDOF 6
