REMARK  Name = ZINC16508889
REMARK  11 active torsions:
REMARK  status: ('A' for Active; 'I' for Inactive)
REMARK    1  A    between atoms: C_1  and  C_2
REMARK    2  A    between atoms: C_5  and  C_8
REMARK    3  A    between atoms: C_18  and  C_20
REMARK    4  A    between atoms: C_20  and  N_21
REMARK    5  A    between atoms: N_21  and  C_22
REMARK    6  A    between atoms: N_21  and  S_25
REMARK    7  A    between atoms: C_22  and  C_23
REMARK    8  A    between atoms: C_22  and  C_24
REMARK    9  A    between atoms: S_25  and  C_28
REMARK   10  A    between atoms: C_31  and  N_34
REMARK   11  A    between atoms: C_35  and  C_37
REMARK                            x       y       z     vdW  Elec       q    Type
REMARK                         _______ _______ _______ _____ _____    ______ ____
ROOT
ATOM      1  C   UNL     1      -1.866  -0.238   1.148  0.00  0.00    +0.205 C 
ENDROOT
BRANCH   1  11
ATOM      2  C   UNL     1      -3.840   3.007   1.681  0.00  0.00    +0.137 C 
ATOM      3  C   UNL     1      -3.526   3.876   2.898  0.00  0.00    -0.012 A 
ATOM      4  C   UNL     1      -3.733   5.254   2.926  0.00  0.00    +0.013 A 
ATOM      5  C   UNL     1      -3.436   5.960   4.041  0.00  0.00    +0.046 A 
ATOM      6  S   UNL     1      -2.834   4.684   5.136  0.00  0.00    -0.101 S 
ATOM      7  C   UNL     1      -3.021   3.311   4.029  0.00  0.00    -0.003 A 
ATOM      8  C   UNL     1      -2.698   1.873   4.271  0.00  0.00    +0.062 C 
ATOM      9  C   UNL     1      -3.397   1.022   3.192  0.00  0.00    +0.114 C 
ATOM     10  N   UNL     1      -3.218   1.693   1.896  0.00  0.00    -0.289 N 
ATOM     11  C   UNL     1      -2.499   1.109   0.917  0.00  0.00    +0.232 C 
ATOM     12  O   UNL     1      -2.361   1.669  -0.150  0.00  0.00    -0.274 OA
BRANCH   2  17
ATOM     13  C   UNL     1      -9.559   2.398   1.130  0.00  0.00    +0.044 C 
ATOM     14  C   UNL     1      -8.068   2.557   1.274  0.00  0.00    -0.050 A 
ATOM     15  C   UNL     1      -7.316   3.021   0.210  0.00  0.00    +0.004 A 
ATOM     16  C   UNL     1      -5.948   3.167   0.342  0.00  0.00    +0.006 A 
ATOM     17  C   UNL     1      -5.331   2.849   1.538  0.00  0.00    -0.023 A 
ATOM     18  C   UNL     1      -6.082   2.380   2.599  0.00  0.00    +0.006 A 
ATOM     19  C   UNL     1      -7.451   2.240   2.469  0.00  0.00    +0.004 A 
ENDBRANCH   2  17
ENDBRANCH   1  11
BRANCH   1  20
ATOM     20  N   UNL     1      -1.145  -0.653  -0.058  0.00  0.00    -0.165 NA
BRANCH  20  21
ATOM     21  C   UNL     1       0.231  -0.201  -0.280  0.00  0.00    +0.074 C 
ATOM     22  C   UNL     1       0.263   1.327  -0.337  0.00  0.00    +0.025 C 
ATOM     23  C   UNL     1       1.119  -0.688   0.867  0.00  0.00    +0.025 C 
ENDBRANCH  20  21
BRANCH  20  24
ATOM     24  S   UNL     1      -1.885  -1.632  -1.170  0.00  0.00    +0.061 S 
ATOM     25  O   UNL     1      -3.284  -1.446  -1.007  0.00  0.00    -0.153 OA
ATOM     26  O   UNL     1      -1.226  -1.409  -2.409  0.00  0.00    -0.153 OA
BRANCH  24  27
ATOM     27  C   UNL     1      -1.541  -3.297  -0.708  0.00  0.00    +0.106 A 
ATOM     28  C   UNL     1      -0.419  -3.933  -1.207  0.00  0.00    +0.030 A 
ATOM     29  C   UNL     1      -0.144  -5.237  -0.843  0.00  0.00    +0.025 A 
ATOM     30  C   UNL     1      -1.002  -5.912   0.015  0.00  0.00    +0.033 A 
ATOM     31  C   UNL     1      -2.131  -5.272   0.510  0.00  0.00    +0.025 A 
ATOM     32  C   UNL     1      -2.397  -3.967   0.147  0.00  0.00    +0.030 A 
BRANCH  30  33
ATOM     33  N   UNL     1      -0.730  -7.235   0.381  0.00  0.00    -0.286 N 
ATOM     34  C   UNL     1      -1.743  -8.094   0.608  0.00  0.00    +0.214 C 
ATOM     35  O   UNL     1      -2.888  -7.748   0.406  0.00  0.00    -0.276 OA
ATOM     36  C   UNL     1      -1.454  -9.484   1.113  0.00  0.00    +0.109 C 
ATOM     37  H   UNL     1       0.189  -7.534   0.471  0.00  0.00    +0.155 HD
ENDBRANCH  30  33
ENDBRANCH  24  27
ENDBRANCH  20  24
ENDBRANCH   1  20
TORSDOF 7
