REMARK  Name = ZINC40899374
REMARK  6 active torsions:
REMARK  status: ('A' for Active; 'I' for Inactive)
REMARK    1  A    between atoms: C_6  and  C_7
REMARK    2  A    between atoms: C_9  and  C_12
REMARK    3  A    between atoms: C_15  and  N_19
REMARK    4  A    between atoms: C_23  and  C_26
REMARK    5  A    between atoms: N_28  and  C_29
REMARK    6  A    between atoms: C_29  and  C_30
REMARK                            x       y       z     vdW  Elec       q    Type
REMARK                         _______ _______ _______ _____ _____    ______ ____
ROOT
ATOM      1  C   UNL     1      -3.200  -3.805   0.021  0.00  0.00    +0.025 A 
ATOM      2  C   UNL     1      -2.316  -4.883   0.018  0.00  0.00    +0.013 A 
ATOM      3  C   UNL     1      -2.803  -6.173   0.019  0.00  0.00    +0.027 A 
ATOM      4  C   UNL     1      -4.174  -6.400   0.023  0.00  0.00    +0.065 A 
ATOM      5  C   UNL     1      -5.059  -5.325   0.026  0.00  0.00    +0.145 A 
ATOM      6  C   UNL     1      -4.575  -4.033   0.031  0.00  0.00    +0.052 A 
ATOM      7  F   UNL     1      -6.392  -5.547   0.030  0.00  0.00    -0.204 F 
ENDROOT
BRANCH   4   8
ATOM      8  N   UNL     1      -4.665  -7.707   0.024  0.00  0.00    -0.327 N 
ATOM      9  C   UNL     1      -4.926  -8.409  -1.239  0.00  0.00    +0.105 C 
ATOM     10  C   UNL     1      -4.182  -9.748  -1.222  0.00  0.00    +0.020 C 
ATOM     11  C   UNL     1      -4.582 -10.534   0.028  0.00  0.00    +0.016 C 
ATOM     12  C   UNL     1      -4.185  -9.745   1.278  0.00  0.00    +0.092 C 
ATOM     13  C   UNL     1      -4.924  -8.408   1.289  0.00  0.00    +0.118 C 
BRANCH  12  14
ATOM     14  C   UNL     1      -4.550 -10.534   2.508  0.00  0.00    +0.218 C 
ATOM     15  O   UNL     1      -5.327 -10.072   3.317  0.00  0.00    -0.275 OA
ATOM     16  N   UNL     1      -4.013 -11.754   2.710  0.00  0.00    -0.313 N 
ATOM     17  H   UNL     1      -3.392 -12.124   2.063  0.00  0.00    +0.149 HD
BRANCH  16  18
ATOM     18  C   UNL     1      -4.368 -12.522   3.906  0.00  0.00    +0.135 C 
BRANCH  18  19
ATOM     19  C   UNL     1      -3.627 -13.860   3.892  0.00  0.00    +0.135 C 
ATOM     20  C   UNL     1      -4.085 -14.726   5.085  0.00  0.00    +0.035 C 
ATOM     21  C   UNL     1      -2.757 -15.389   5.541  0.00  0.00    +0.031 C 
ATOM     22  C   UNL     1      -1.744 -14.255   5.242  0.00  0.00    +0.160 C 
ATOM     23  O   UNL     1      -2.219 -13.637   4.032  0.00  0.00    -0.375 OA
ENDBRANCH  18  19
ENDBRANCH  16  18
ENDBRANCH  12  14
ENDBRANCH   4   8
BRANCH   1  26
ATOM     24  C   UNL     1      -1.266  -0.763   0.011  0.00  0.00    +0.259 A 
ATOM     25  N   UNL     1      -1.380  -2.071   0.010  0.00  0.00    -0.187 NA
ATOM     26  C   UNL     1      -2.677  -2.417   0.019  0.00  0.00    +0.202 A 
ATOM     27  N   UNL     1      -3.406  -1.327   0.026  0.00  0.00    -0.056 NA
ATOM     28  O   UNL     1      -2.501  -0.233   0.026  0.00  0.00    -0.332 OA
BRANCH  24  34
ATOM     29  C   UNL     1      -0.017   1.392   0.010  0.00  0.00    +0.016 A 
ATOM     30  C   UNL     1       1.169   2.095   0.002  0.00  0.00    +0.039 A 
ATOM     31  C   UNL     1       2.379   1.418  -0.013  0.00  0.00    +0.123 A 
ATOM     32  C   UNL     1       2.403   0.032  -0.021  0.00  0.00    +0.039 A 
ATOM     33  C   UNL     1       1.223  -0.681  -0.014  0.00  0.00    +0.016 A 
ATOM     34  C   UNL     1       0.002  -0.004   0.002  0.00  0.00    +0.040 A 
ATOM     35  F   UNL     1       3.538   2.112  -0.021  0.00  0.00    -0.205 F 
ENDBRANCH  24  34
ENDBRANCH   1  26
TORSDOF 6
