REMARK  Name = ZINC06178076
REMARK  8 active torsions:
REMARK  status: ('A' for Active; 'I' for Inactive)
REMARK    1  A    between atoms: C_1  and  C_2
REMARK    2  A    between atoms: C_4  and  C_40
REMARK    3  A    between atoms: C_9  and  C_14
REMARK    4  A    between atoms: C_14  and  C_16
REMARK    5  A    between atoms: C_14  and  N_70
REMARK    6  A    between atoms: N_20  and  C_21
REMARK    7  A    between atoms: C_21  and  C_22
REMARK    8  A    between atoms: N_30  and  C_33
REMARK                            x       y       z     vdW  Elec       q    Type
REMARK                         _______ _______ _______ _____ _____    ______ ____
ROOT
ATOM      1  C   UNL     1      -1.237   2.190   0.020  0.00  0.00    +0.039 C 
ENDROOT
BRANCH   1  10
ATOM      2  C   UNL     1      -3.238   5.635  -6.284  0.00  0.00    +0.044 C 
ATOM      3  C   UNL     1      -3.167   4.396  -5.429  0.00  0.00    -0.050 A 
ATOM      4  C   UNL     1      -3.697   3.203  -5.901  0.00  0.00    +0.008 A 
ATOM      5  C   UNL     1      -3.644   2.058  -5.136  0.00  0.00    -0.026 A 
ATOM      6  C   UNL     1      -3.054   2.097  -3.876  0.00  0.00    +0.052 A 
ATOM      7  C   UNL     1      -2.519   3.308  -3.401  0.00  0.00    -0.001 A 
ATOM      8  C   UNL     1      -2.584   4.458  -4.195  0.00  0.00    +0.013 A 
ATOM      9  C   UNL     1      -1.900   3.339  -2.074  0.00  0.00    +0.017 A 
ATOM     10  C   UNL     1      -1.866   2.193  -1.349  0.00  0.00    +0.011 A 
ATOM     11  C   UNL     1      -2.413   1.003  -1.874  0.00  0.00    +0.251 A 
ATOM     12  O   UNL     1      -2.368  -0.017  -1.208  0.00  0.00    -0.268 OA
ATOM     13  N   UNL     1      -2.988   0.967  -3.089  0.00  0.00    -0.322 N 
ATOM     14  H   UNL     1      -3.358   0.133  -3.419  0.00  0.00    +0.169 HD
ATOM     15  C   UNL     1      -4.223   0.770  -5.661  0.00  0.00    +0.046 C 
ENDBRANCH   1  10
BRANCH   1  21
ATOM     16  C   UNL     1      -3.445   2.463   0.977  0.00  0.00    -0.058 C 
ATOM     17  C   UNL     1      -4.451   1.851   1.954  0.00  0.00    +0.086 C 
ATOM     18  N   UNL     1      -3.870   1.833   3.304  0.00  0.00    -0.333 N 
ATOM     19  C   UNL     1      -2.628   1.049   3.329  0.00  0.00    +0.086 C 
ATOM     20  C   UNL     1      -1.622   1.661   2.352  0.00  0.00    -0.058 C 
ATOM     21  N   UNL     1      -2.209   1.652   0.995  0.00  0.00    +0.391 N 
ATOM     22  H   UNL     1      -2.440   0.685   0.738  0.00  0.00    -0.080 HD
BRANCH  18  23
ATOM     23  C   UNL     1      -4.790   1.346   4.238  0.00  0.00    +0.030 A 
ATOM     24  C   UNL     1      -4.464   0.253   5.030  0.00  0.00    +0.026 A 
ATOM     25  C   UNL     1      -5.371  -0.224   5.955  0.00  0.00    +0.040 A 
ATOM     26  C   UNL     1      -6.609   0.382   6.087  0.00  0.00    +0.124 A 
ATOM     27  C   UNL     1      -6.939   1.469   5.296  0.00  0.00    +0.040 A 
ATOM     28  C   UNL     1      -6.032   1.952   4.372  0.00  0.00    +0.026 A 
ATOM     29  F   UNL     1      -7.497  -0.088   6.990  0.00  0.00    -0.205 F 
ENDBRANCH  18  23
ENDBRANCH   1  21
BRANCH   1  30
ATOM     30  C   UNL     1      -0.016   1.306   0.009  0.00  0.00    +0.143 A 
ATOM     31  N   UNL     1       0.002  -0.004   0.002  0.00  0.00    -0.115 NA
ATOM     32  N   UNL     1       1.233  -0.385  -0.012  0.00  0.00    -0.023 NA
ATOM     33  N   UNL     1       2.000   0.648  -0.014  0.00  0.00    -0.044 NA
ATOM     34  N   UNL     1       1.268   1.710  -0.001  0.00  0.00    -0.228 N 
BRANCH  34  35
ATOM     35  C   UNL     1       1.745   3.096   0.002  0.00  0.00    +0.178 C 
BRANCH  35  36
ATOM     36  C   UNL     1       1.924   3.571   1.445  0.00  0.00    +0.140 C 
ATOM     37  C   UNL     1       2.315   5.064   1.460  0.00  0.00    +0.035 C 
ATOM     38  C   UNL     1       3.364   5.119   2.604  0.00  0.00    +0.031 C 
ATOM     39  C   UNL     1       4.043   3.735   2.447  0.00  0.00    +0.160 C 
ATOM     40  O   UNL     1       2.986   2.839   2.069  0.00  0.00    -0.375 OA
ENDBRANCH  35  36
ENDBRANCH  34  35
ENDBRANCH   1  30
TORSDOF 6
