REMARK  Name = ZINC04638151
REMARK  4 active torsions:
REMARK  status: ('A' for Active; 'I' for Inactive)
REMARK    1  A    between atoms: C_6  and  C_7
REMARK    2  A    between atoms: C_16  and  C_24
REMARK    3  A    between atoms: C_18  and  C_19
REMARK    4  A    between atoms: C_18  and  C_21
REMARK                            x       y       z     vdW  Elec       q    Type
REMARK                         _______ _______ _______ _____ _____    ______ ____
ROOT
ATOM      1  C   UNL     1      -0.080   6.003   0.032  0.00  0.00    +0.066 C 
ATOM      2  C   UNL     1      -0.713   6.513  -1.263  0.00  0.00    +0.027 C 
ATOM      3  C   UNL     1      -0.116   5.859  -2.486  0.00  0.00    +0.009 C 
ATOM      4  C   UNL     1       0.908   6.760  -3.173  0.00  0.00    +0.005 C 
ATOM      5  C   UNL     1       0.214   8.073  -3.562  0.00  0.00    +0.027 C 
ATOM      6  C   UNL     1      -0.266   8.732  -2.292  0.00  0.00    -0.026 C 
ATOM      7  C   UNL     1      -0.654   8.012  -1.259  0.00  0.00    -0.047 C 
ATOM      8  C   UNL     1      -1.057   8.696  -0.002  0.00  0.00    +0.164 C 
ATOM      9  C   UNL     1      -1.157   7.975   1.143  0.00  0.00    +0.065 C 
ATOM     10  C   UNL     1      -0.907   6.499   1.219  0.00  0.00    +0.188 C 
ATOM     11  N   UNL     1      -1.506   8.630   2.290  0.00  0.00    -0.304 NA
ATOM     12  H   UNL     1      -1.585   8.140   3.124  0.00  0.00    +0.186 HD
ENDROOT
BRANCH   1  18
ATOM     13  C   UNL     1       1.076   3.818   0.426  0.00  0.00    +0.005 A 
ATOM     14  C   UNL     1       1.095   2.436   0.419  0.00  0.00    +0.020 A 
ATOM     15  C   UNL     1      -0.023   1.732   0.011  0.00  0.00    +0.041 A 
ATOM     16  C   UNL     1      -1.158   2.410  -0.395  0.00  0.00    +0.020 A 
ATOM     17  C   UNL     1      -1.178   3.792  -0.383  0.00  0.00    +0.005 A 
ATOM     18  C   UNL     1      -0.060   4.496   0.025  0.00  0.00    -0.041 A 
ATOM     19 CL   UNL     1       0.000  -0.004   0.002  0.00  0.00    -0.084 Cl
ENDBRANCH   1  18
BRANCH  10  20
ATOM     20  C   UNL     1      -2.199   5.793   1.231  0.00  0.00    +0.091 C 
ATOM     21  N   UNL     1      -3.195   5.249   1.241  0.00  0.00    -0.195 NA
ENDBRANCH  10  20
BRANCH  10  22
ATOM     22  C   UNL     1      -0.185   6.200   2.466  0.00  0.00    +0.091 C 
ATOM     23  N   UNL     1       0.373   5.969   3.428  0.00  0.00    -0.195 NA
ENDBRANCH  10  22
BRANCH   8  24
ATOM     24  C   UNL     1      -1.335  10.101   0.000  0.00  0.00    +0.076 C 
ATOM     25  N   UNL     1      -1.556  11.216   0.002  0.00  0.00    -0.196 NA
ENDBRANCH   8  24
TORSDOF 4
