REMARK  Name = ZINC49488675
REMARK  12 active torsions:
REMARK  status: ('A' for Active; 'I' for Inactive)
REMARK    1  A    between atoms: C_1  and  C_2
REMARK    2  A    between atoms: C_5  and  C_8
REMARK    3  A    between atoms: C_8  and  C_10
REMARK    4  A    between atoms: C_8  and  N_32
REMARK    5  A    between atoms: C_10  and  N_11
REMARK    6  A    between atoms: C_12  and  C_14
REMARK    7  A    between atoms: N_16  and  C_17
REMARK    8  A    between atoms: C_27  and  C_29
REMARK    9  A    between atoms: C_29  and  C_30
REMARK   10  A    between atoms: C_29  and  C_31
REMARK   11  A    between atoms: N_32  and  C_33
REMARK   12  A    between atoms: N_32  and  C_34
REMARK                            x       y       z     vdW  Elec       q    Type
REMARK                         _______ _______ _______ _____ _____    ______ ____
ROOT
ATOM      1  C   UNL     1       2.662  -8.052   1.190  0.00  0.00    +0.303 C 
ATOM      2  O   UNL     1       1.575  -8.579   1.317  0.00  0.00    -0.265 OA
ATOM      3  N   UNL     1       3.781  -8.729   1.513  0.00  0.00    -0.278 N 
ATOM      4  H   UNL     1       4.652  -8.338   1.340  0.00  0.00    +0.155 HD
ENDROOT
BRANCH   3   5
ATOM      5  C   UNL     1       3.688  -9.994   2.099  0.00  0.00    +0.036 A 
ATOM      6  C   UNL     1       2.670 -10.864   1.723  0.00  0.00    +0.024 A 
ATOM      7  C   UNL     1       2.578 -12.112   2.303  0.00  0.00    +0.007 A 
ATOM      8  C   UNL     1       3.497 -12.510   3.261  0.00  0.00    -0.026 A 
ATOM      9  C   UNL     1       4.515 -11.647   3.636  0.00  0.00    +0.041 A 
ATOM     10  C   UNL     1       4.613 -10.390   3.053  0.00  0.00    +0.047 A 
ATOM     11  N   UNL     1       5.463 -12.029   4.596  0.00  0.00    -0.271 N 
ATOM     12  C   UNL     1       5.202 -13.219   5.417  0.00  0.00    +0.114 C 
ATOM     13  C   UNL     1       4.687 -14.326   4.488  0.00  0.00    +0.024 C 
ATOM     14  C   UNL     1       3.360 -13.879   3.874  0.00  0.00    +0.038 C 
ATOM     15  C   UNL     1       6.594 -11.316   4.763  0.00  0.00    +0.222 C 
ATOM     16  O   UNL     1       6.775 -10.305   4.117  0.00  0.00    -0.275 OA
BRANCH  15  17
ATOM     17  C   UNL     1       7.635 -11.775   5.751  0.00  0.00    +0.069 C 
ATOM     18  C   UNL     1       8.399 -12.967   5.171  0.00  0.00    +0.017 C 
ATOM     19  C   UNL     1       8.612 -10.631   6.031  0.00  0.00    +0.017 C 
ENDBRANCH  15  17
ENDBRANCH   3   5
BRANCH   1  21
ATOM     20  N   UNL     1       1.638  -5.976   0.350  0.00  0.00    -0.309 N 
ATOM     21  C   UNL     1       2.757  -6.653   0.674  0.00  0.00    +0.299 C 
ATOM     22  O   UNL     1       3.844  -6.127   0.547  0.00  0.00    -0.265 OA
ATOM     23  H   UNL     1       0.770  -6.397   0.452  0.00  0.00    +0.149 HD
BRANCH  20  24
ATOM     24  C   UNL     1       1.732  -4.604  -0.155  0.00  0.00    +0.094 C 
BRANCH  24  25
ATOM     25  C   UNL     1       0.326  -4.028  -0.330  0.00  0.00    -0.021 C 
BRANCH  25  30
ATOM     26  C   UNL     1      -2.521  -7.064  -4.338  0.00  0.00    +0.044 C 
ATOM     27  C   UNL     1      -1.779  -6.272  -3.293  0.00  0.00    -0.050 A 
ATOM     28  C   UNL     1      -2.006  -6.515  -1.951  0.00  0.00    +0.003 A 
ATOM     29  C   UNL     1      -1.325  -5.789  -0.992  0.00  0.00    +0.002 A 
ATOM     30  C   UNL     1      -0.416  -4.820  -1.375  0.00  0.00    -0.059 A 
ATOM     31  C   UNL     1      -0.188  -4.578  -2.717  0.00  0.00    +0.002 A 
ATOM     32  C   UNL     1      -0.866  -5.307  -3.676  0.00  0.00    +0.003 A 
ENDBRANCH  25  30
BRANCH  25  33
ATOM     33  N   UNL     1       0.421  -2.625  -0.754  0.00  0.00    +0.382 N 
ATOM     34  C   UNL     1      -0.927  -2.048  -0.845  0.00  0.00    -0.096 C 
ATOM     35  C   UNL     1       1.213  -1.869   0.225  0.00  0.00    -0.096 C 
ATOM     36  H   UNL     1       0.869  -2.577  -1.657  0.00  0.00    -0.082 HD
ENDBRANCH  25  33
ENDBRANCH  24  25
ENDBRANCH  20  24
ENDBRANCH   1  21
TORSDOF 7
