REMARK  Name = ZINC35585415
REMARK  6 active torsions:
REMARK  status: ('A' for Active; 'I' for Inactive)
REMARK    1  A    between atoms: C_1  and  C_2
REMARK    2  A    between atoms: C_2  and  C_3
REMARK    3  A    between atoms: C_3  and  N_4
REMARK    4  A    between atoms: N_4  and  C_5
REMARK    5  A    between atoms: C_5  and  C_7
REMARK    6  A    between atoms: C_5  and  C_14
REMARK                            x       y       z     vdW  Elec       q    Type
REMARK                         _______ _______ _______ _____ _____    ______ ____
ROOT
ATOM      1  C   UNL     1      -2.792  -2.511   0.015  0.00  0.00    -0.007 C 
ENDROOT
BRANCH   1   2
ATOM      2  C   UNL     1      -2.831  -4.007   0.189  0.00  0.00    -0.044 A 
ATOM      3  C   UNL     1      -3.261  -4.813  -0.849  0.00  0.00    +0.003 A 
ATOM      4  C   UNL     1      -3.297  -6.185  -0.690  0.00  0.00    +0.000 A 
ATOM      5  C   UNL     1      -2.904  -6.753   0.508  0.00  0.00    +0.001 A 
ATOM      6  C   UNL     1      -2.474  -5.949   1.546  0.00  0.00    +0.014 A 
ATOM      7  C   UNL     1      -2.432  -4.575   1.385  0.00  0.00    +0.015 A 
ATOM      8  I   UNL     1      -1.773  -3.356   2.956  0.00  0.00    -0.044 I 
ENDBRANCH   1   2
BRANCH   1   9
ATOM      9  C   UNL     1      -3.643  -2.120  -1.165  0.00  0.00    -0.030 A 
ATOM     10  C   UNL     1      -3.081  -1.979  -2.421  0.00  0.00    +0.031 A 
ATOM     11  C   UNL     1      -3.876  -1.626  -3.461  0.00  0.00    +0.080 A 
ATOM     12  S   UNL     1      -5.472  -1.481  -2.674  0.00  0.00    -0.065 S 
ATOM     13  C   UNL     1      -4.974  -1.905  -1.013  0.00  0.00    +0.081 A 
ATOM     14 CL   UNL     1      -5.941  -2.014   0.424  0.00  0.00    -0.076 Cl
ATOM     15 CL   UNL     1      -3.452  -1.379  -5.126  0.00  0.00    -0.076 Cl
ENDBRANCH   1   9
BRANCH   1  16
ATOM     16  N   UNL     1      -1.406  -2.081  -0.217  0.00  0.00    +0.386 N 
ATOM     17  H   UNL     1      -1.079  -2.461  -1.093  0.00  0.00    -0.085 HD
ATOM     18  H   UNL     1      -0.820  -2.415   0.534  0.00  0.00    -0.085 HD
BRANCH  16  19
ATOM     19  C   UNL     1      -1.350  -0.614  -0.267  0.00  0.00    -0.082 C 
BRANCH  19  21
ATOM     20  C   UNL     1       0.151   1.361  -0.561  0.00  0.00    +0.002 C 
ATOM     21  C   UNL     1       0.093  -0.167  -0.509  0.00  0.00    -0.022 C 
ENDBRANCH  19  21
ENDBRANCH  16  19
ENDBRANCH   1  16
TORSDOF 5
