REMARK  Name = ZINC03188384
REMARK  7 active torsions:
REMARK  status: ('A' for Active; 'I' for Inactive)
REMARK    1  A    between atoms: C_4  and  C_7
REMARK    2  A    between atoms: C_8  and  C_22
REMARK    3  A    between atoms: N_15  and  C_16
REMARK    4  A    between atoms: N_23  and  N_24
REMARK    5  A    between atoms: C_25  and  C_27
REMARK    6  A    between atoms: C_27  and  N_28
REMARK    7  A    between atoms: C_30  and  C_35
REMARK                            x       y       z     vdW  Elec       q    Type
REMARK                         _______ _______ _______ _____ _____    ______ ____
ROOT
ATOM      1  C   UNL     1       8.332  -3.259  -5.117  0.00  0.00    +0.064 A 
ATOM      2  C   UNL     1       7.179  -2.622  -4.691  0.00  0.00    +0.028 A 
ATOM      3  C   UNL     1       6.448  -2.225  -5.906  0.00  0.00    +0.009 A 
ATOM      4  C   UNL     1       5.246  -1.555  -6.130  0.00  0.00    +0.010 A 
ATOM      5  C   UNL     1       4.824  -1.323  -7.420  0.00  0.00    +0.001 A 
ATOM      6  C   UNL     1       5.592  -1.748  -8.495  0.00  0.00    +0.002 A 
ATOM      7  C   UNL     1       6.785  -2.406  -8.289  0.00  0.00    +0.027 A 
ATOM      8  C   UNL     1       7.230  -2.651  -6.994  0.00  0.00    +0.055 A 
ATOM      9  N   UNL     1       8.356  -3.272  -6.491  0.00  0.00    -0.308 N 
ENDROOT
BRANCH   1  13
ATOM     10  C   UNL     1      11.315  -4.907  -2.586  0.00  0.00    +0.000 A 
ATOM     11  C   UNL     1      10.799  -3.651  -2.316  0.00  0.00    +0.001 A 
ATOM     12  C   UNL     1       9.830  -3.110  -3.134  0.00  0.00    +0.010 A 
ATOM     13  C   UNL     1       9.369  -3.832  -4.238  0.00  0.00    -0.001 A 
ATOM     14  C   UNL     1       9.890  -5.101  -4.501  0.00  0.00    +0.010 A 
ATOM     15  C   UNL     1      10.863  -5.628  -3.678  0.00  0.00    +0.001 A 
ENDBRANCH   1  13
BRANCH   9  16
ATOM     16  C   UNL     1       9.374  -3.836  -7.268  0.00  0.00    +0.047 A 
ATOM     17  C   UNL     1      10.653  -3.296  -7.237  0.00  0.00    +0.026 A 
ATOM     18  C   UNL     1      11.657  -3.857  -8.002  0.00  0.00    +0.002 A 
ATOM     19  C   UNL     1      11.387  -4.949  -8.806  0.00  0.00    +0.000 A 
ATOM     20  C   UNL     1      10.113  -5.486  -8.843  0.00  0.00    +0.002 A 
ATOM     21  C   UNL     1       9.106  -4.933  -8.077  0.00  0.00    +0.026 A 
ENDBRANCH   9  16
BRANCH   2  22
ATOM     22  C   UNL     1       6.764  -2.392  -3.301  0.00  0.00    +0.141 C 
ATOM     23  N   UNL     1       5.647  -1.775  -3.050  0.00  0.00    -0.188 NA
BRANCH  23  24
ATOM     24  N   UNL     1       5.251  -1.556  -1.724  0.00  0.00    -0.206 N 
ATOM     25  C   UNL     1       4.094  -0.917  -1.463  0.00  0.00    +0.252 C 
ATOM     26  O   UNL     1       3.395  -0.530  -2.376  0.00  0.00    -0.272 OA
ATOM     27  H   UNL     1       5.810  -1.865  -0.993  0.00  0.00    +0.177 HD
BRANCH  25  28
ATOM     28  C   UNL     1       3.668  -0.681  -0.037  0.00  0.00    +0.222 C 
BRANCH  28  29
ATOM     29  N   UNL     1       2.385   0.027  -0.021  0.00  0.00    -0.306 N 
ATOM     30  C   UNL     1       2.369   1.385  -0.013  0.00  0.00    +0.102 A 
ATOM     31  C   UNL     1       1.197   2.062   0.002  0.00  0.00    +0.071 A 
ATOM     32  C   UNL     1      -0.016   1.360   0.009  0.00  0.00    +0.019 A 
ATOM     33  C   UNL     1       0.002  -0.004   0.002  0.00  0.00    +0.071 A 
ATOM     34  C   UNL     1       1.237  -0.675  -0.013  0.00  0.00    +0.252 A 
ATOM     35  O   UNL     1       1.268  -1.895  -0.021  0.00  0.00    -0.268 OA
BRANCH  31  36
ATOM     36  C   UNL     1       1.197   3.569   0.010  0.00  0.00    +0.419 C 
ATOM     37  F   UNL     1       1.069   4.042  -1.300  0.00  0.00    -0.166 F 
ATOM     38  F   UNL     1       0.123   4.031   0.779  0.00  0.00    -0.166 F 
ATOM     39  F   UNL     1       2.397   4.032   0.558  0.00  0.00    -0.166 F 
ENDBRANCH  31  36
ENDBRANCH  28  29
ENDBRANCH  25  28
ENDBRANCH  23  24
ENDBRANCH   2  22
TORSDOF 7
