REMARK  Name = ZINC27522257
REMARK  12 active torsions:
REMARK  status: ('A' for Active; 'I' for Inactive)
REMARK    1  A    between atoms: C_1  and  C_2
REMARK    2  A    between atoms: C_4  and  C_35
REMARK    3  A    between atoms: C_6  and  N_8
REMARK    4  A    between atoms: C_9  and  C_11
REMARK    5  A    between atoms: C_11  and  N_22
REMARK    6  A    between atoms: C_12  and  C_13
REMARK    7  A    between atoms: C_16  and  N_19
REMARK    8  A    between atoms: C_23  and  C_25
REMARK    9  A    between atoms: C_28  and  C_31
REMARK   10  A    between atoms: C_31  and  C_32
REMARK   11  A    between atoms: C_31  and  C_33
REMARK   12  A    between atoms: C_31  and  C_34
REMARK                            x       y       z     vdW  Elec       q    Type
REMARK                         _______ _______ _______ _____ _____    ______ ____
ROOT
ATOM      1  C   UNL     1      -0.265   0.154  -0.320  0.00  0.00    +0.097 C 
ATOM      2  C   UNL     1       0.023   1.385   0.164  0.00  0.00    +0.036 C 
ENDROOT
BRANCH   2   3
ATOM      3  C   UNL     1      -1.061   2.344   0.424  0.00  0.00    -0.023 A 
ATOM      4  C   UNL     1      -2.301   2.192  -0.206  0.00  0.00    +0.010 A 
ATOM      5  C   UNL     1      -3.314   3.093   0.047  0.00  0.00    +0.033 A 
ATOM      6  C   UNL     1      -3.103   4.152   0.913  0.00  0.00    +0.126 A 
ATOM      7  C   UNL     1      -1.877   4.312   1.536  0.00  0.00    +0.033 A 
ATOM      8  C   UNL     1      -0.856   3.417   1.298  0.00  0.00    +0.010 A 
BRANCH   6   9
ATOM      9  N   UNL     1      -4.193   5.118   1.175  0.00  0.00    +0.056 N 
ATOM     10  O   UNL     1      -4.011   6.051   1.936  0.00  0.00    -0.126 OA
ATOM     11  O   UNL     1      -5.273   4.980   0.628  0.00  0.00    -0.126 OA
ENDBRANCH   6   9
ENDBRANCH   2   3
BRANCH   1  13
ATOM     12  N   UNL     1       2.106  -0.381  -0.545  0.00  0.00    -0.280 N 
ATOM     13  C   UNL     1       0.822  -0.749  -0.726  0.00  0.00    +0.262 C 
ATOM     14  O   UNL     1       0.563  -1.828  -1.224  0.00  0.00    -0.268 OA
ATOM     15  H   UNL     1       2.341   0.559  -0.025  0.00  0.00    +0.155 HD
BRANCH  12  21
ATOM     16  C   UNL     1       6.568  -0.812  -2.563  0.00  0.00    +0.044 C 
ATOM     17  C   UNL     1       5.314  -1.431  -2.002  0.00  0.00    -0.048 A 
ATOM     18  C   UNL     1       5.185  -2.807  -1.953  0.00  0.00    +0.006 A 
ATOM     19  C   UNL     1       4.036  -3.380  -1.438  0.00  0.00    -0.048 A 
ATOM     20  C   UNL     1       3.014  -2.578  -0.970  0.00  0.00    +0.026 A 
ATOM     21  C   UNL     1       3.140  -1.196  -1.018  0.00  0.00    +0.034 A 
ATOM     22  C   UNL     1       4.292  -0.624  -1.541  0.00  0.00    +0.026 A 
ATOM     23  C   UNL     1       3.901  -4.880  -1.387  0.00  0.00    +0.044 C 
ENDBRANCH  12  21
ENDBRANCH   1  13
BRANCH   1  24
ATOM     24  N   UNL     1      -1.595  -0.259  -0.434  0.00  0.00    -0.277 N 
ATOM     25  C   UNL     1      -2.075  -0.664  -1.627  0.00  0.00    +0.248 C 
ATOM     26  O   UNL     1      -1.330  -0.753  -2.583  0.00  0.00    -0.270 OA
ATOM     27  H   UNL     1      -2.251  -0.253   0.449  0.00  0.00    +0.155 HD
BRANCH  25  28
ATOM     28  C   UNL     1      -3.507  -1.002  -1.771  0.00  0.00    +0.037 A 
ATOM     29  C   UNL     1      -4.364  -0.907  -0.673  0.00  0.00    +0.013 A 
ATOM     30  C   UNL     1      -5.700  -1.218  -0.816  0.00  0.00    +0.005 A 
ATOM     31  C   UNL     1      -6.189  -1.634  -2.042  0.00  0.00    -0.042 A 
ATOM     32  C   UNL     1      -5.344  -1.736  -3.133  0.00  0.00    +0.005 A 
ATOM     33  C   UNL     1      -4.007  -1.422  -3.005  0.00  0.00    +0.013 A 
BRANCH  31  34
ATOM     34  C   UNL     1      -7.649  -1.978  -2.189  0.00  0.00    -0.013 C 
ATOM     35  C   UNL     1      -7.787  -3.436  -2.632  0.00  0.00    +0.015 C 
ATOM     36  C   UNL     1      -8.357  -1.784  -0.847  0.00  0.00    +0.015 C 
ATOM     37  C   UNL     1      -8.285  -1.064  -3.238  0.00  0.00    +0.015 C 
ENDBRANCH  31  34
ENDBRANCH  25  28
ENDBRANCH   1  24
TORSDOF 7
