REMARK  Name = ZINC36083708
REMARK  13 active torsions:
REMARK  status: ('A' for Active; 'I' for Inactive)
REMARK    1  A    between atoms: C_1  and  C_2
REMARK    2  A    between atoms: C_2  and  O_3
REMARK    3  A    between atoms: O_3  and  C_4
REMARK    4  A    between atoms: C_4  and  C_6
REMARK    5  A    between atoms: C_7  and  C_25
REMARK    6  A    between atoms: N_8  and  C_24
REMARK    7  A    between atoms: C_12  and  C_14
REMARK    8  A    between atoms: C_17  and  O_22
REMARK    9  A    between atoms: C_18  and  O_20
REMARK   10  A    between atoms: O_20  and  C_21
REMARK   11  A    between atoms: O_22  and  C_23
REMARK   12  A    between atoms: C_25  and  O_26
REMARK   13  A    between atoms: O_26  and  C_27
REMARK                            x       y       z     vdW  Elec       q    Type
REMARK                         _______ _______ _______ _____ _____    ______ ____
ROOT
ATOM      1  C   UNL     1       1.515  -2.547  -2.595  0.00  0.00    +0.082 C 
ATOM      2  C   UNL     1       1.757  -3.865  -2.760  0.00  0.00    +0.064 C 
ATOM      3  N   UNL     1       2.488  -4.320  -3.820  0.00  0.00    -0.258 N 
ATOM      4  C   UNL     1       3.012  -3.521  -4.758  0.00  0.00    +0.307 C 
ATOM      5  O   UNL     1       3.649  -4.018  -5.666  0.00  0.00    -0.252 OA
ATOM      6  N   UNL     1       2.857  -2.182  -4.729  0.00  0.00    -0.288 N 
ATOM      7  C   UNL     1       2.078  -1.591  -3.627  0.00  0.00    +0.144 C 
ATOM      8  C   UNL     1       2.712  -5.763  -3.938  0.00  0.00    +0.139 C 
ATOM      9  H   UNL     1       3.245  -1.622  -5.418  0.00  0.00    +0.151 HD
ENDROOT
BRANCH   7  10
ATOM     10  C   UNL     1       0.927  -0.824  -4.226  0.00  0.00    -0.019 A 
ATOM     11  C   UNL     1       0.071  -1.446  -5.116  0.00  0.00    +0.009 A 
ATOM     12  C   UNL     1      -0.986  -0.747  -5.667  0.00  0.00    +0.050 A 
ATOM     13  C   UNL     1      -1.190   0.581  -5.328  0.00  0.00    +0.162 A 
ATOM     14  C   UNL     1      -0.330   1.207  -4.432  0.00  0.00    +0.162 A 
ATOM     15  C   UNL     1       0.725   0.499  -3.879  0.00  0.00    +0.055 A 
BRANCH  14  16
ATOM     16  O   UNL     1      -0.526   2.510  -4.095  0.00  0.00    -0.491 OA
ATOM     17  C   UNL     1       0.451   3.116  -3.246  0.00  0.00    +0.277 C 
ENDBRANCH  14  16
BRANCH  13  18
ATOM     18  O   UNL     1      -2.229   1.271  -5.870  0.00  0.00    -0.491 OA
ATOM     19  C   UNL     1      -3.072   0.564  -6.782  0.00  0.00    +0.277 C 
ENDBRANCH  13  18
ENDBRANCH   7  10
BRANCH   1  20
ATOM     20  C   UNL     1       0.758  -2.074  -1.497  0.00  0.00    +0.339 C 
ATOM     21  O   UNL     1       1.320  -1.585  -0.535  0.00  0.00    -0.245 OA
BRANCH  20  22
ATOM     22  O   UNL     1      -0.588  -2.166  -1.517  0.00  0.00    -0.462 OA
BRANCH  22  24
ATOM     23  C   UNL     1      -2.790  -1.865  -0.567  0.00  0.00    +0.048 C 
ATOM     24  C   UNL     1      -1.296  -1.563  -0.432  0.00  0.00    +0.229 C 
ENDBRANCH  22  24
ENDBRANCH  20  22
ENDBRANCH   1  20
BRANCH   2  25
ATOM     25  C   UNL     1       1.212  -4.850  -1.759  0.00  0.00    +0.280 C 
BRANCH  25  26
ATOM     26  O   UNL     1       0.238  -5.683  -2.392  0.00  0.00    -0.486 OA
BRANCH  26  27
ATOM     27  C   UNL     1      -0.356  -6.633  -1.621  0.00  0.00    +0.121 A 
ATOM     28  C   UNL     1      -0.012  -6.757  -0.283  0.00  0.00    +0.048 A 
ATOM     29  C   UNL     1      -0.616  -7.723   0.498  0.00  0.00    +0.042 A 
ATOM     30  C   UNL     1      -1.564  -8.567  -0.054  0.00  0.00    +0.124 A 
ATOM     31  C   UNL     1      -1.908  -8.445  -1.389  0.00  0.00    +0.042 A 
ATOM     32  C   UNL     1      -1.310  -7.476  -2.172  0.00  0.00    +0.048 A 
ATOM     33  F   UNL     1      -2.153  -9.512   0.711  0.00  0.00    -0.205 F 
ENDBRANCH  26  27
ENDBRANCH  25  26
ENDBRANCH   2  25
TORSDOF 9
