REMARK  Name = ZINC39726532
REMARK  3 active torsions:
REMARK  status: ('A' for Active; 'I' for Inactive)
REMARK    1  A    between atoms: C_3  and  C_6
REMARK    2  A    between atoms: N_15  and  C_16
REMARK    3  A    between atoms: C_16  and  C_17
REMARK                            x       y       z     vdW  Elec       q    Type
REMARK                         _______ _______ _______ _____ _____    ______ ____
ROOT
ATOM      1  C   UNL     1       4.236   1.206   2.243  0.00  0.00    +0.020 C 
ENDROOT
BRANCH   1   2
ATOM      2  C   UNL     1       4.896   0.168   3.114  0.00  0.00    +0.201 C 
ATOM      3  O   UNL     1       5.662  -0.635   2.626  0.00  0.00    -0.278 OA
ATOM      4  N   UNL     1       4.634   0.133   4.436  0.00  0.00    -0.286 N 
ATOM      5  C   UNL     1       5.622   0.208   5.306  0.00  0.00    +0.050 C 
ATOM      6  C   UNL     1       7.000   0.467   4.839  0.00  0.00    +0.054 C 
ATOM      7  C   UNL     1       8.010   0.542   5.743  0.00  0.00    +0.097 C 
ATOM      8  N   UNL     1       9.354   0.761   5.662  0.00  0.00    -0.190 NA
ATOM      9  C   UNL     1       9.848   0.727   6.878  0.00  0.00    +0.369 C 
ATOM     10  O   UNL     1      11.157   0.905   7.174  0.00  0.00    -0.243 OA
ATOM     11  N   UNL     1       8.891   0.492   7.792  0.00  0.00    -0.190 NA
ATOM     12  C   UNL     1       7.728   0.366   7.181  0.00  0.00    +0.096 C 
ATOM     13  C   UNL     1       6.359   0.108   7.635  0.00  0.00    +0.047 C 
ATOM     14  C   UNL     1       5.352   0.039   6.741  0.00  0.00    +0.041 C 
ATOM     15 BR   UNL     1       3.587  -0.285   7.335  0.00  0.00    -0.048 Br
ATOM     16  H   UNL     1       3.719   0.053   4.747  0.00  0.00    +0.155 HD
ENDBRANCH   1   2
BRANCH   1  25
ATOM     17  C   UNL     1       3.947   1.967  -0.009  0.00  0.00    +0.002 C 
ATOM     18  C   UNL     1       4.489   1.856  -1.430  0.00  0.00    -0.046 A 
ATOM     19  C   UNL     1       3.799   2.283  -2.562  0.00  0.00    +0.010 A 
ATOM     20  C   UNL     1       4.357   2.142  -3.788  0.00  0.00    +0.045 A 
ATOM     21  S   UNL     1       5.925   1.379  -3.394  0.00  0.00    -0.101 S 
ATOM     22  C   UNL     1       5.719   1.308  -1.638  0.00  0.00    -0.010 A 
ATOM     23  C   UNL     1       6.646   0.785  -0.589  0.00  0.00    +0.024 C 
ATOM     24  C   UNL     1       6.129   1.279   0.773  0.00  0.00    -0.072 C 
ATOM     25  N   UNL     1       4.682   1.034   0.854  0.00  0.00    +0.393 N 
ATOM     26  H   UNL     1       4.490   0.088   0.559  0.00  0.00    -0.080 HD
BRANCH  17  29
ATOM     27  C   UNL     1       0.139   1.895   0.033  0.00  0.00    +0.008 A 
ATOM     28  C   UNL     1       1.407   2.444   0.026  0.00  0.00    +0.010 A 
ATOM     29  C   UNL     1       2.481   1.618   0.003  0.00  0.00    -0.019 A 
ATOM     30  S   UNL     1       1.709   0.009  -0.012  0.00  0.00    -0.103 S 
ATOM     31  C   UNL     1       0.006   0.546   0.015  0.00  0.00    +0.045 A 
ENDBRANCH  17  29
ENDBRANCH   1  25
TORSDOF 3
