REMARK  Name = ZINC35332273
REMARK  4 active torsions:
REMARK  status: ('A' for Active; 'I' for Inactive)
REMARK    1  A    between atoms: C_1  and  C_2
REMARK    2  A    between atoms: N_5  and  C_11
REMARK    3  A    between atoms: C_7  and  C_10
REMARK    4  A    between atoms: C_14  and  N_21
REMARK                            x       y       z     vdW  Elec       q    Type
REMARK                         _______ _______ _______ _____ _____    ______ ____
ROOT
ATOM      1  C   UNL     1       2.795   0.528  -2.199  0.00  0.00    +0.038 A 
ATOM      2  C   UNL     1       2.819   1.906  -2.239  0.00  0.00    +0.025 A 
ATOM      3  C   UNL     1       3.463   2.579  -3.272  0.00  0.00    +0.025 A 
ATOM      4  C   UNL     1       4.094   1.887  -4.284  0.00  0.00    +0.034 A 
ATOM      5  C   UNL     1       4.087   0.478  -4.271  0.00  0.00    +0.020 A 
ATOM      6  C   UNL     1       3.435  -0.207  -3.213  0.00  0.00    +0.008 A 
ATOM      7  C   UNL     1       3.448  -1.613  -3.223  0.00  0.00    +0.028 A 
ATOM      8  C   UNL     1       4.089  -2.254  -4.240  0.00  0.00    +0.083 A 
ATOM      9  N   UNL     1       4.696  -1.588  -5.214  0.00  0.00    -0.366 N 
ATOM     10  C   UNL     1       4.712  -0.277  -5.274  0.00  0.00    +0.093 A 
ATOM     11  H   UNL     1       5.138  -2.092  -5.915  0.00  0.00    +0.165 HD
ENDROOT
BRANCH   1  15
ATOM     12  C   UNL     1      -0.019   1.526   0.010  0.00  0.00    +0.039 C 
ATOM     13  C   UNL     1       0.002  -0.004   0.002  0.00  0.00    +0.133 C 
ATOM     14  C   UNL     1       0.722  -0.499  -1.258  0.00  0.00    +0.136 C 
ATOM     15  N   UNL     1       2.143  -0.135  -1.154  0.00  0.00    -0.325 N 
ATOM     16  C   UNL     1       2.860  -0.488   0.082  0.00  0.00    +0.136 C 
ATOM     17  C   UNL     1       2.036   0.007   1.277  0.00  0.00    +0.133 C 
ATOM     18  O   UNL     1       0.695  -0.479   1.159  0.00  0.00    -0.371 OA
ATOM     19  C   UNL     1       2.656  -0.513   2.575  0.00  0.00    +0.039 C 
ENDBRANCH   1  15
BRANCH   4  20
ATOM     20  N   UNL     1       4.735   2.577  -5.315  0.00  0.00    -0.357 N 
ATOM     21  H   UNL     1       4.738   3.547  -5.320  0.00  0.00    +0.142 HD
ATOM     22  H   UNL     1       5.178   2.087  -6.025  0.00  0.00    +0.142 HD
ENDBRANCH   4  20
TORSDOF 2
