REMARK  Name = ZINC39949063
REMARK  10 active torsions:
REMARK  status: ('A' for Active; 'I' for Inactive)
REMARK    1  A    between atoms: C_1  and  C_2
REMARK    2  A    between atoms: C_6  and  N_8
REMARK    3  A    between atoms: C_9  and  S_23
REMARK    4  A    between atoms: C_13  and  C_14
REMARK    5  A    between atoms: S_23  and  C_24
REMARK    6  A    between atoms: C_24  and  C_25
REMARK    7  A    between atoms: N_27  and  C_28
REMARK    8  A    between atoms: N_27  and  C_34
REMARK    9  A    between atoms: C_34  and  C_35
REMARK   10  A    between atoms: C_34  and  C_36
REMARK                            x       y       z     vdW  Elec       q    Type
REMARK                         _______ _______ _______ _____ _____    ______ ____
ROOT
ATOM      1  N   UNL     1      -0.232  -3.834   3.406  0.00  0.00    -0.254 N 
ATOM      2  C   UNL     1       0.206  -5.157   3.879  0.00  0.00    +0.241 C 
ATOM      3  N   UNL     1       0.760  -4.899   5.219  0.00  0.00    -0.237 N 
ATOM      4  N   UNL     1       0.626  -3.524   5.446  0.00  0.00    -0.169 NA
ATOM      5  C   UNL     1       0.074  -2.926   4.424  0.00  0.00    +0.151 C 
ATOM      6  H   UNL     1       1.143  -5.553   5.824  0.00  0.00    +0.171 HD
ENDROOT
BRANCH   5   7
ATOM      7  C   UNL     1      -0.183  -1.548   4.357  0.00  0.00    +0.022 C 
ATOM      8  C   UNL     1       0.133  -0.584   5.316  0.00  0.00    +0.006 A 
ATOM      9  C   UNL     1       0.768  -0.662   6.574  0.00  0.00    +0.010 A 
ATOM     10  C   UNL     1       0.948   0.465   7.309  0.00  0.00    +0.001 A 
ATOM     11  C   UNL     1       0.519   1.713   6.851  0.00  0.00    +0.002 A 
ATOM     12  C   UNL     1      -0.098   1.862   5.653  0.00  0.00    +0.026 A 
ATOM     13  C   UNL     1      -0.321   0.729   4.829  0.00  0.00    +0.043 A 
ATOM     14  N   UNL     1      -0.887   0.611   3.643  0.00  0.00    -0.380 N 
ATOM     15  C   UNL     1      -0.855  -0.795   3.230  0.00  0.00    +0.152 C 
ATOM     16  H   UNL     1      -1.262   1.340   3.125  0.00  0.00    +0.160 HD
ENDBRANCH   5   7
BRANCH   1  22
ATOM     17  C   UNL     1      -4.273  -3.608   0.618  0.00  0.00    +0.044 C 
ATOM     18  C   UNL     1      -2.788  -3.424   0.798  0.00  0.00    -0.049 A 
ATOM     19  C   UNL     1      -2.016  -2.965  -0.254  0.00  0.00    +0.003 A 
ATOM     20  C   UNL     1      -0.654  -2.794  -0.093  0.00  0.00    +0.002 A 
ATOM     21  C   UNL     1      -0.059  -3.081   1.120  0.00  0.00    +0.023 A 
ATOM     22  C   UNL     1      -0.831  -3.542   2.179  0.00  0.00    +0.038 A 
ATOM     23  C   UNL     1      -2.200  -3.707   2.015  0.00  0.00    +0.027 A 
ENDBRANCH   1  22
BRANCH   2  24
ATOM     24  S   UNL     1       1.482  -5.833   2.781  0.00  0.00    -0.108 S 
BRANCH  24  25
ATOM     25  C   UNL     1       2.822  -4.614   2.863  0.00  0.00    +0.168 C 
BRANCH  25  26
ATOM     26  C   UNL     1       3.962  -5.060   1.983  0.00  0.00    +0.230 C 
ATOM     27  O   UNL     1       3.877  -6.099   1.362  0.00  0.00    -0.274 OA
ATOM     28  N   UNL     1       5.074  -4.306   1.886  0.00  0.00    -0.268 N 
BRANCH  28  29
ATOM     29  C   UNL     1       6.088  -4.666   0.992  0.00  0.00    +0.037 A 
ATOM     30  C   UNL     1       6.037  -4.237  -0.328  0.00  0.00    +0.023 A 
ATOM     31  C   UNL     1       7.040  -4.595  -1.208  0.00  0.00    +0.002 A 
ATOM     32  C   UNL     1       8.094  -5.379  -0.776  0.00  0.00    +0.000 A 
ATOM     33  C   UNL     1       8.148  -5.808   0.538  0.00  0.00    +0.002 A 
ATOM     34  C   UNL     1       7.151  -5.448   1.424  0.00  0.00    +0.023 A 
ENDBRANCH  28  29
BRANCH  28  35
ATOM     35  C   UNL     1       5.221  -3.108   2.716  0.00  0.00    +0.075 C 
ATOM     36  C   UNL     1       6.497  -3.221   3.553  0.00  0.00    +0.028 C 
ATOM     37  C   UNL     1       5.308  -1.872   1.819  0.00  0.00    +0.028 C 
ENDBRANCH  28  35
ENDBRANCH  25  26
ENDBRANCH  24  25
ENDBRANCH   2  24
TORSDOF 7
