REMARK  Name = ZINC36342260
REMARK  10 active torsions:
REMARK  status: ('A' for Active; 'I' for Inactive)
REMARK    1  A    between atoms: C_1  and  C_2
REMARK    2  A    between atoms: C_2  and  O_3
REMARK    3  A    between atoms: O_3  and  C_4
REMARK    4  A    between atoms: C_4  and  C_6
REMARK    5  A    between atoms: N_12  and  C_13
REMARK    6  A    between atoms: C_13  and  C_14
REMARK    7  A    between atoms: C_17  and  C_30
REMARK    8  A    between atoms: C_20  and  C_22
REMARK    9  A    between atoms: C_25  and  C_29
REMARK   10  A    between atoms: C_26  and  C_28
REMARK                            x       y       z     vdW  Elec       q    Type
REMARK                         _______ _______ _______ _____ _____    ______ ____
ROOT
ATOM      1  C   UNL     1      -0.158  -5.714   2.452  0.00  0.00    +0.219 C 
ATOM      2  O   UNL     1       0.837  -6.408   2.464  0.00  0.00    -0.276 OA
ATOM      3  N   UNL     1      -1.378  -6.286   2.429  0.00  0.00    -0.187 N 
ATOM      4  C   UNL     1      -1.645  -7.733   2.421  0.00  0.00    +0.137 C 
ATOM      5  C   UNL     1      -3.184  -7.816   2.393  0.00  0.00    +0.087 C 
ATOM      6  C   UNL     1      -3.627  -6.370   2.388  0.00  0.00    +0.069 C 
ATOM      7  N   UNL     1      -2.592  -5.603   2.413  0.00  0.00    -0.181 NA
ENDROOT
BRANCH   6   8
ATOM      8  C   UNL     1      -5.028  -5.909   2.362  0.00  0.00    -0.002 A 
ATOM      9  C   UNL     1      -6.072  -6.838   2.347  0.00  0.00    +0.010 A 
ATOM     10  C   UNL     1      -7.379  -6.399   2.323  0.00  0.00    +0.004 A 
ATOM     11  C   UNL     1      -7.658  -5.044   2.314  0.00  0.00    -0.048 A 
ATOM     12  C   UNL     1      -6.629  -4.119   2.329  0.00  0.00    -0.047 A 
ATOM     13  C   UNL     1      -5.317  -4.543   2.360  0.00  0.00    +0.013 A 
ATOM     14  C   UNL     1      -6.943  -2.645   2.318  0.00  0.00    +0.044 C 
ATOM     15  C   UNL     1      -9.089  -4.573   2.288  0.00  0.00    +0.044 C 
ENDBRANCH   6   8
BRANCH   4  16
ATOM     16  C   UNL     1      -1.054  -8.375   1.193  0.00  0.00    -0.025 A 
ATOM     17  C   UNL     1      -1.095  -7.714  -0.020  0.00  0.00    +0.007 A 
ATOM     18  C   UNL     1      -0.552  -8.303  -1.147  0.00  0.00    +0.020 A 
ATOM     19  C   UNL     1       0.032  -9.554  -1.060  0.00  0.00    +0.041 A 
ATOM     20  C   UNL     1       0.072 -10.215   0.154  0.00  0.00    +0.020 A 
ATOM     21  C   UNL     1      -0.465  -9.623   1.282  0.00  0.00    +0.007 A 
ATOM     22 CL   UNL     1       0.713 -10.294  -2.475  0.00  0.00    -0.084 Cl
ENDBRANCH   4  16
BRANCH   1  23
ATOM     23  C   UNL     1      -0.029  -4.213   2.463  0.00  0.00    +0.022 C 
BRANCH  23  29
ATOM     24  C   UNL     1       1.522  -2.390   2.331  0.00  0.00    +0.043 C 
ATOM     25  C   UNL     1       3.003  -2.009   2.275  0.00  0.00    -0.004 C 
ATOM     26  C   UNL     1       3.685  -2.445   3.575  0.00  0.00    -0.003 C 
ATOM     27  C   UNL     1       3.480  -3.950   3.767  0.00  0.00    -0.019 C 
ATOM     28  C   UNL     1       1.981  -4.259   3.768  0.00  0.00    -0.077 C 
ATOM     29  N   UNL     1       1.393  -3.843   2.489  0.00  0.00    +0.394 N 
ATOM     30  H   UNL     1       1.872  -4.307   1.732  0.00  0.00    -0.080 HD
BRANCH  24  31
ATOM     31  C   UNL     1       0.845  -1.962   1.054  0.00  0.00    +0.293 C 
ATOM     32  O   UNL     1       0.774  -2.728   0.122  0.00  0.00    -0.253 OA
BRANCH  31  33
ATOM     33  O   UNL     1       0.322  -0.730   0.952  0.00  0.00    -0.466 OA
BRANCH  33  35
ATOM     34  C   UNL     1      -0.836   1.041  -0.216  0.00  0.00    +0.048 C 
ATOM     35  C   UNL     1      -0.304  -0.392  -0.288  0.00  0.00    +0.228 C 
ENDBRANCH  33  35
ENDBRANCH  31  33
ENDBRANCH  24  31
ENDBRANCH  23  29
ENDBRANCH   1  23
TORSDOF 7
