REMARK  Name = ZINC40399846
REMARK  8 active torsions:
REMARK  status: ('A' for Active; 'I' for Inactive)
REMARK    1  A    between atoms: C_1  and  C_2
REMARK    2  A    between atoms: C_2  and  C_3
REMARK    3  A    between atoms: C_2  and  C_4
REMARK    4  A    between atoms: C_4  and  C_5
REMARK    5  A    between atoms: N_9  and  C_28
REMARK    6  A    between atoms: N_14  and  S_17
REMARK    7  A    between atoms: S_17  and  C_20
REMARK    8  A    between atoms: C_28  and  C_29
REMARK                            x       y       z     vdW  Elec       q    Type
REMARK                         _______ _______ _______ _____ _____    ______ ____
ROOT
ATOM      1  C   UNL     1      -1.212  -1.989  -0.339  0.00  0.00    +0.019 C 
ATOM      2  C   UNL     1      -2.535  -2.696  -0.540  0.00  0.00    +0.201 C 
ATOM      3  O   UNL     1      -3.171  -2.727  -1.572  0.00  0.00    -0.277 OA
ATOM      4  N   UNL     1      -2.886  -3.287   0.621  0.00  0.00    -0.306 N 
ATOM      5  C   UNL     1      -1.864  -3.017   1.635  0.00  0.00    +0.006 C 
ATOM      6  N   UNL     1      -0.654  -2.573   0.905  0.00  0.00    +0.401 N 
ATOM      7  C   UNL     1      -1.553  -4.288   2.424  0.00  0.00    +0.023 C 
ATOM      8  C   UNL     1      -2.819  -4.761   3.145  0.00  0.00    +0.109 C 
ATOM      9  N   UNL     1      -3.345  -3.652   3.953  0.00  0.00    -0.177 NA
ATOM     10  C   UNL     1      -3.606  -2.362   3.300  0.00  0.00    +0.109 C 
ATOM     11  C   UNL     1      -2.333  -1.909   2.577  0.00  0.00    +0.023 C 
ATOM     12  H   UNL     1      -0.057  -3.359   0.693  0.00  0.00    -0.082 HD
ATOM     13  H   UNL     1      -0.153  -1.875   1.433  0.00  0.00    -0.082 HD
ENDROOT
BRANCH   9  14
ATOM     14  S   UNL     1      -3.638  -3.852   5.571  0.00  0.00    +0.061 S 
ATOM     15  O   UNL     1      -4.611  -2.882   5.931  0.00  0.00    -0.153 OA
ATOM     16  O   UNL     1      -3.837  -5.244   5.779  0.00  0.00    -0.153 OA
BRANCH  14  17
ATOM     17  C   UNL     1      -2.158  -3.422   6.425  0.00  0.00    +0.107 A 
ATOM     18  C   UNL     1      -1.202  -4.389   6.682  0.00  0.00    +0.030 A 
ATOM     19  C   UNL     1      -0.042  -4.053   7.353  0.00  0.00    +0.023 A 
ATOM     20  C   UNL     1       0.166  -2.749   7.767  0.00  0.00    +0.059 A 
ATOM     21  C   UNL     1      -0.791  -1.782   7.509  0.00  0.00    +0.061 A 
ATOM     22  C   UNL     1      -1.950  -2.118   6.833  0.00  0.00    +0.050 A 
ATOM     23 CL   UNL     1      -0.532  -0.145   8.029  0.00  0.00    -0.082 Cl
ATOM     24 CL   UNL     1       1.623  -2.327   8.610  0.00  0.00    -0.082 Cl
ENDBRANCH  14  17
ENDBRANCH   9  14
BRANCH   1  25
ATOM     25  C   UNL     1      -1.432  -0.485  -0.169  0.00  0.00    -0.004 C 
BRANCH  25  27
ATOM     26  C   UNL     1      -2.252   1.588  -1.297  0.00  0.00    +0.007 C 
ATOM     27  C   UNL     1      -1.874   0.120  -1.503  0.00  0.00    -0.018 C 
ATOM     28  C   UNL     1      -0.726   0.026  -2.510  0.00  0.00    +0.007 C 
ENDBRANCH  25  27
ENDBRANCH   1  25
BRANCH   4  29
ATOM     29  C   UNL     1      -4.102  -4.075   0.835  0.00  0.00    +0.180 C 
BRANCH  29  30
ATOM     30  C   UNL     1      -3.880  -5.484   0.346  0.00  0.00    +0.122 A 
ATOM     31  C   UNL     1      -3.525  -6.534   1.109  0.00  0.00    +0.046 A 
ATOM     32  C   UNL     1      -3.428  -7.651   0.248  0.00  0.00    +0.041 A 
ATOM     33  C   UNL     1      -3.729  -7.216  -0.989  0.00  0.00    +0.195 A 
ATOM     34  O   UNL     1      -4.008  -5.904  -0.922  0.00  0.00    -0.466 OA
ENDBRANCH  29  30
ENDBRANCH   4  29
TORSDOF 6
