REMARK  Name = ZINC27983985
REMARK  11 active torsions:
REMARK  status: ('A' for Active; 'I' for Inactive)
REMARK    1  A    between atoms: C_1  and  C_2
REMARK    2  A    between atoms: C_2  and  C_29
REMARK    3  A    between atoms: C_4  and  N_10
REMARK    4  A    between atoms: C_6  and  C_8
REMARK    5  A    between atoms: C_6  and  C_9
REMARK    6  A    between atoms: C_11  and  C_13
REMARK    7  A    between atoms: C_16  and  C_18
REMARK    8  A    between atoms: C_18  and  O_19
REMARK    9  A    between atoms: O_19  and  C_20
REMARK   10  A    between atoms: C_25  and  C_26
REMARK   11  A    between atoms: C_26  and  C_27
REMARK                            x       y       z     vdW  Elec       q    Type
REMARK                         _______ _______ _______ _____ _____    ______ ____
ROOT
ATOM      1  N   UNL     1       0.376   5.050  -1.216  0.00  0.00    -0.306 N 
ATOM      2  C   UNL     1       0.077   5.700  -2.358  0.00  0.00    +0.280 C 
ATOM      3  O   UNL     1      -0.186   5.071  -3.366  0.00  0.00    -0.267 OA
ATOM      4  H   UNL     1       0.615   5.618  -0.305  0.00  0.00    +0.149 HD
ENDROOT
BRANCH   1   8
ATOM      5  C   UNL     1      -0.958   0.983  -2.263  0.00  0.00    -0.010 C 
ATOM      6  C   UNL     1      -1.049   1.551  -0.842  0.00  0.00    -0.072 C 
ATOM      7  C   UNL     1      -1.030   3.077  -0.900  0.00  0.00    +0.009 C 
ATOM      8  C   UNL     1       0.383   3.582  -1.188  0.00  0.00    +0.071 C 
ATOM      9  C   UNL     1       1.307   3.104  -0.068  0.00  0.00    +0.009 C 
ATOM     10  C   UNL     1       1.318   1.579  -0.002  0.00  0.00    -0.072 C 
ATOM     11  N   UNL     1      -0.012   1.005   0.008  0.00  0.00    +0.386 N 
ATOM     12  C   UNL     1       2.027   1.175   1.309  0.00  0.00    -0.010 C 
ATOM     13  C   UNL     1       2.153   1.022  -1.161  0.00  0.00    -0.010 C 
ATOM     14  C   UNL     1      -2.418   1.125  -0.266  0.00  0.00    -0.010 C 
ATOM     15  H   UNL     1      -0.322   1.079   1.060  0.00  0.00    -0.084 HD
ATOM     16  H   UNL     1       0.156  -0.051  -0.252  0.00  0.00    -0.084 HD
ENDBRANCH   1   8
BRANCH   2  17
ATOM     17  C   UNL     1       0.070   7.167  -2.386  0.00  0.00    +0.190 A 
ATOM     18  C   UNL     1      -0.208   7.947  -3.472  0.00  0.00    +0.055 A 
ATOM     19  C   UNL     1      -0.102   9.281  -3.047  0.00  0.00    +0.049 A 
ATOM     20  C   UNL     1       0.240   9.256  -1.740  0.00  0.00    +0.143 A 
ATOM     21  O   UNL     1       0.344   7.981  -1.346  0.00  0.00    -0.452 OA
BRANCH  20  22
ATOM     22  C   UNL     1       0.468  10.466  -0.870  0.00  0.00    +0.303 C 
BRANCH  22  23
ATOM     23  O   UNL     1      -0.763  10.847  -0.254  0.00  0.00    -0.484 OA
BRANCH  23  24
ATOM     24  C   UNL     1      -0.732  11.928   0.569  0.00  0.00    +0.125 A 
ATOM     25  C   UNL     1       0.461  12.604   0.784  0.00  0.00    +0.046 A 
ATOM     26  C   UNL     1       0.489  13.706   1.617  0.00  0.00    +0.004 A 
ATOM     27  C   UNL     1      -0.668  14.129   2.245  0.00  0.00    +0.001 A 
ATOM     28  C   UNL     1      -1.857  13.454   2.037  0.00  0.00    +0.007 A 
ATOM     29  C   UNL     1      -1.891  12.354   1.201  0.00  0.00    -0.002 A 
BRANCH  29  30
ATOM     30  C   UNL     1      -3.187  11.619   0.976  0.00  0.00    +0.065 C 
BRANCH  30  31
ATOM     31  C   UNL     1      -3.272  10.450   1.923  0.00  0.00    -0.030 C 
ATOM     32  C   UNL     1      -4.307  10.325   2.717  0.00  0.00    +0.004 C 
ENDBRANCH  30  31
ENDBRANCH  29  30
ENDBRANCH  23  24
ENDBRANCH  22  23
ENDBRANCH  20  22
ENDBRANCH   2  17
TORSDOF 7
