REMARK  Name = ZINC33052255
REMARK  9 active torsions:
REMARK  status: ('A' for Active; 'I' for Inactive)
REMARK    1  A    between atoms: C_1  and  C_2
REMARK    2  A    between atoms: C_2  and  O_3
REMARK    3  A    between atoms: O_3  and  C_4
REMARK    4  A    between atoms: C_4  and  C_5
REMARK    5  A    between atoms: C_5  and  C_6
REMARK    6  A    between atoms: C_6  and  N_7
REMARK    7  A    between atoms: C_13  and  C_37
REMARK    8  A    between atoms: N_15  and  C_31
REMARK    9  A    between atoms: C_22  and  C_24
REMARK                            x       y       z     vdW  Elec       q    Type
REMARK                         _______ _______ _______ _____ _____    ______ ____
ROOT
ATOM      1  N   UNL     1       4.951   0.766   2.589  0.00  0.00    -0.299 N 
ATOM      2  C   UNL     1       4.218   0.647   1.464  0.00  0.00    +0.303 C 
ATOM      3  O   UNL     1       4.350  -0.330   0.753  0.00  0.00    -0.253 OA
ATOM      4  N   UNL     1       3.338   1.611   1.129  0.00  0.00    -0.269 N 
ATOM      5  C   UNL     1       3.142   2.820   1.965  0.00  0.00    +0.151 C 
ATOM      6  C   UNL     1       2.963   4.051   1.126  0.00  0.00    +0.035 A 
ATOM      7  C   UNL     1       3.824   5.130   0.954  0.00  0.00    +0.067 A 
ATOM      8  N   UNL     1       3.236   6.008   0.175  0.00  0.00    -0.169 NA
ATOM      9  N   UNL     1       1.968   5.514  -0.175  0.00  0.00    -0.215 N 
ATOM     10  C   UNL     1       1.839   4.298   0.390  0.00  0.00    +0.146 A 
ATOM     11  N   UNL     1       0.813   3.351   0.308  0.00  0.00    -0.303 N 
ATOM     12  C   UNL     1      -0.529   3.493   0.403  0.00  0.00    +0.093 A 
ATOM     13  C   UNL     1      -1.082   2.260   0.342  0.00  0.00    +0.020 A 
ATOM     14  C   UNL     1      -0.031   1.329   0.191  0.00  0.00    +0.025 A 
ATOM     15  C   UNL     1       1.117   2.024   0.142  0.00  0.00    +0.050 A 
ATOM     16  C   UNL     1       2.512   1.524  -0.097  0.00  0.00    +0.155 C 
ATOM     17  C   UNL     1       5.197   5.268   1.557  0.00  0.00    +0.068 C 
ATOM     18  H   UNL     1       4.831   1.649   3.233  0.00  0.00    +0.150 HD
ENDROOT
BRANCH  16  19
ATOM     19  C   UNL     1       3.152   2.352  -1.181  0.00  0.00    -0.020 A 
ATOM     20  C   UNL     1       2.402   2.768  -2.266  0.00  0.00    +0.006 A 
ATOM     21  C   UNL     1       2.988   3.528  -3.261  0.00  0.00    +0.002 A 
ATOM     22  C   UNL     1       4.324   3.871  -3.173  0.00  0.00    +0.020 A 
ATOM     23  C   UNL     1       5.075   3.455  -2.088  0.00  0.00    +0.041 A 
ATOM     24  C   UNL     1       4.486   2.700  -1.089  0.00  0.00    +0.025 A 
ATOM     25 CL   UNL     1       6.753   3.885  -1.976  0.00  0.00    -0.084 Cl
ENDBRANCH  16  19
BRANCH   9  26
ATOM     26  C   UNL     1       1.014   6.165  -0.968  0.00  0.00    +0.068 A 
ATOM     27  C   UNL     1       0.204   5.433  -1.825  0.00  0.00    +0.028 A 
ATOM     28  C   UNL     1      -0.740   6.078  -2.601  0.00  0.00    +0.002 A 
ATOM     29  C   UNL     1      -0.871   7.452  -2.533  0.00  0.00    +0.000 A 
ATOM     30  C   UNL     1      -0.062   8.185  -1.684  0.00  0.00    +0.002 A 
ATOM     31  C   UNL     1       0.880   7.546  -0.901  0.00  0.00    +0.028 A 
ENDBRANCH   9  26
BRANCH   1  32
ATOM     32  C   UNL     1       5.907  -0.282   2.954  0.00  0.00    +0.108 C 
BRANCH  32  33
ATOM     33  C   UNL     1       6.602   0.096   4.264  0.00  0.00    +0.047 C 
BRANCH  33  34
ATOM     34  C   UNL     1       7.601  -0.999   4.645  0.00  0.00    +0.161 C 
BRANCH  34  35
ATOM     35  O   UNL     1       8.250  -0.646   5.869  0.00  0.00    -0.380 OA
BRANCH  35  37
ATOM     36  C   UNL     1       9.837  -1.128   7.626  0.00  0.00    +0.034 C 
ATOM     37  C   UNL     1       9.208  -1.607   6.316  0.00  0.00    +0.156 C 
ENDBRANCH  35  37
ENDBRANCH  34  35
ENDBRANCH  33  34
ENDBRANCH  32  33
ENDBRANCH   1  32
TORSDOF 7
