REMARK  Name = ZINC23737750
REMARK  8 active torsions:
REMARK  status: ('A' for Active; 'I' for Inactive)
REMARK    1  A    between atoms: C_1  and  C_2
REMARK    2  A    between atoms: C_3  and  C_16
REMARK    3  A    between atoms: N_5  and  C_7
REMARK    4  A    between atoms: C_7  and  C_8
REMARK    5  A    between atoms: N_18  and  C_19
REMARK    6  A    between atoms: C_19  and  C_20
REMARK    7  A    between atoms: C_20  and  C_22
REMARK    8  A    between atoms: C_20  and  N_28
REMARK                            x       y       z     vdW  Elec       q    Type
REMARK                         _______ _______ _______ _____ _____    ______ ____
ROOT
ATOM      1  C   UNL     1       0.458   5.106   4.681  0.00  0.00    +0.249 C 
ATOM      2  O   UNL     1       0.004   6.229   4.794  0.00  0.00    -0.270 OA
ATOM      3  N   UNL     1       0.291   4.209   5.672  0.00  0.00    -0.312 N 
ATOM      4  H   UNL     1       0.701   3.193   5.570  0.00  0.00    +0.149 HD
ENDROOT
BRANCH   1   7
ATOM      5  C   UNL     1       3.583   5.410   4.219  0.00  0.00    +0.068 C 
ATOM      6  C   UNL     1       2.580   4.856   3.240  0.00  0.00    +0.074 A 
ATOM      7  C   UNL     1       1.190   4.728   3.460  0.00  0.00    +0.096 A 
ATOM      8  C   UNL     1       0.644   4.184   2.311  0.00  0.00    +0.140 A 
ATOM      9  N   UNL     1       1.652   3.986   1.444  0.00  0.00    -0.248 N 
ATOM     10  N   UNL     1       2.842   4.414   2.042  0.00  0.00    -0.174 NA
ATOM     11 CL   UNL     1      -1.032   3.821   2.040  0.00  0.00    -0.062 Cl
BRANCH   9  12
ATOM     12  C   UNL     1       1.524   3.422   0.098  0.00  0.00    +0.181 C 
BRANCH  12  13
ATOM     13  C   UNL     1       1.684   1.925   0.162  0.00  0.00    -0.008 A 
ATOM     14  C   UNL     1       0.568   1.109   0.146  0.00  0.00    +0.007 A 
ATOM     15  C   UNL     1       0.715  -0.264   0.204  0.00  0.00    +0.000 A 
ATOM     16  C   UNL     1       1.978  -0.822   0.280  0.00  0.00    +0.001 A 
ATOM     17  C   UNL     1       3.094  -0.007   0.296  0.00  0.00    +0.020 A 
ATOM     18  C   UNL     1       2.948   1.367   0.238  0.00  0.00    +0.046 A 
ATOM     19 CL   UNL     1       4.349   2.392   0.259  0.00  0.00    -0.083 Cl
ENDBRANCH  12  13
ENDBRANCH   9  12
ENDBRANCH   1   7
BRANCH   3  20
ATOM     20  C   UNL     1      -0.437   4.586   6.886  0.00  0.00    +0.094 C 
BRANCH  20  21
ATOM     21  C   UNL     1      -0.584   3.362   7.793  0.00  0.00    -0.020 C 
BRANCH  21  22
ATOM     22  C   UNL     1       0.776   2.926   8.273  0.00  0.00    -0.059 A 
ATOM     23  C   UNL     1       1.386   3.591   9.319  0.00  0.00    +0.002 A 
ATOM     24  C   UNL     1       2.632   3.188   9.762  0.00  0.00    +0.000 A 
ATOM     25  C   UNL     1       3.271   2.125   9.153  0.00  0.00    +0.000 A 
ATOM     26  C   UNL     1       2.663   1.462   8.103  0.00  0.00    +0.000 A 
ATOM     27  C   UNL     1       1.416   1.863   7.662  0.00  0.00    +0.002 A 
ENDBRANCH  21  22
BRANCH  21  28
ATOM     28  N   UNL     1      -1.424   3.707   8.948  0.00  0.00    +0.385 N 
ATOM     29  C   UNL     1      -2.766   4.170   8.512  0.00  0.00    -0.078 C 
ATOM     30  C   UNL     1      -3.637   3.975   9.778  0.00  0.00    -0.020 C 
ATOM     31  C   UNL     1      -3.084   2.663  10.380  0.00  0.00    -0.020 C 
ATOM     32  C   UNL     1      -1.663   2.523   9.802  0.00  0.00    -0.078 C 
ATOM     33  H   UNL     1      -0.877   4.492   9.492  0.00  0.00    -0.081 HD
ENDBRANCH  21  28
ENDBRANCH  20  21
ENDBRANCH   3  20
TORSDOF 7
