REMARK  Name = ZINC40052206
REMARK  5 active torsions:
REMARK  status: ('A' for Active; 'I' for Inactive)
REMARK    1  A    between atoms: C_5  and  C_7
REMARK    2  A    between atoms: C_7  and  C_8
REMARK    3  A    between atoms: C_13  and  C_17
REMARK    4  A    between atoms: N_19  and  C_20
REMARK    5  A    between atoms: C_24  and  N_26
REMARK                            x       y       z     vdW  Elec       q    Type
REMARK                         _______ _______ _______ _____ _____    ______ ____
ROOT
ATOM      1  C   UNL     1       1.405  -2.728   1.472  0.00  0.00    +0.136 C 
ATOM      2  C   UNL     1       1.526  -4.225   1.431  0.00  0.00    +0.227 C 
ATOM      3  O   UNL     1       2.205  -4.695   0.542  0.00  0.00    -0.275 OA
ATOM      4  N   UNL     1       0.967  -5.076   2.266  0.00  0.00    -0.302 N 
ATOM      5  C   UNL     1       0.007  -4.852   3.323  0.00  0.00    +0.169 C 
ATOM      6  C   UNL     1       0.048  -3.420   3.857  0.00  0.00    +0.101 C 
ATOM      7  S   UNL     1      -0.068  -2.280   2.441  0.00  0.00    -0.145 S 
ATOM      8  H   UNL     1       1.243  -6.000   2.154  0.00  0.00    +0.150 HD
ENDROOT
BRANCH   5   9
ATOM      9  C   UNL     1      -1.376  -5.133   2.793  0.00  0.00    +0.238 C 
ATOM     10  O   UNL     1      -1.580  -5.127   1.598  0.00  0.00    -0.273 OA
ATOM     11  N   UNL     1      -2.385  -5.390   3.648  0.00  0.00    -0.284 N 
ATOM     12  H   UNL     1      -2.209  -5.458   4.600  0.00  0.00    +0.155 HD
BRANCH  11  13
ATOM     13  C   UNL     1      -3.687  -5.559   3.163  0.00  0.00    +0.035 A 
ATOM     14  C   UNL     1      -3.897  -6.178   1.937  0.00  0.00    +0.023 A 
ATOM     15  C   UNL     1      -5.182  -6.345   1.458  0.00  0.00    +0.004 A 
ATOM     16  C   UNL     1      -6.262  -5.897   2.196  0.00  0.00    +0.023 A 
ATOM     17  C   UNL     1      -6.058  -5.277   3.422  0.00  0.00    +0.038 A 
ATOM     18  C   UNL     1      -4.769  -5.113   3.909  0.00  0.00    +0.046 A 
BRANCH  17  19
ATOM     19  N   UNL     1      -7.151  -4.824   4.168  0.00  0.00    -0.271 N 
ATOM     20  C   UNL     1      -8.554  -5.061   3.808  0.00  0.00    +0.114 C 
ATOM     21  C   UNL     1      -9.362  -4.782   5.095  0.00  0.00    +0.029 C 
ATOM     22  C   UNL     1      -8.430  -3.804   5.847  0.00  0.00    +0.098 C 
ATOM     23  C   UNL     1      -7.052  -4.120   5.309  0.00  0.00    +0.220 C 
ATOM     24  O   UNL     1      -6.009  -3.785   5.829  0.00  0.00    -0.275 OA
ENDBRANCH  17  19
ENDBRANCH  11  13
ENDBRANCH   5   9
BRANCH   1  25
ATOM     25  C   UNL     1       1.266  -2.186   0.048  0.00  0.00    +0.061 C 
BRANCH  25  30
ATOM     26  C   UNL     1       0.060   1.390   0.138  0.00  0.00    +0.000 A 
ATOM     27  C   UNL     1       1.255   2.086   0.144  0.00  0.00    +0.003 A 
ATOM     28  C   UNL     1       2.454   1.400   0.119  0.00  0.00    +0.038 A 
ATOM     29  C   UNL     1       2.459   0.016   0.088  0.00  0.00    +0.127 A 
ATOM     30  C   UNL     1       1.262  -0.680   0.082  0.00  0.00    -0.011 A 
ATOM     31  C   UNL     1       0.064   0.008   0.107  0.00  0.00    +0.006 A 
ATOM     32  F   UNL     1       3.631  -0.655   0.063  0.00  0.00    -0.205 F 
ENDBRANCH  25  30
ENDBRANCH   1  25
TORSDOF 5
