REMARK  Name = ZINC36076785
REMARK  6 active torsions:
REMARK  status: ('A' for Active; 'I' for Inactive)
REMARK    1  A    between atoms: C_1  and  O_2
REMARK    2  A    between atoms: O_2  and  C_3
REMARK    3  A    between atoms: C_6  and  C_9
REMARK    4  A    between atoms: C_20  and  C_22
REMARK    5  A    between atoms: C_25  and  O_28
REMARK    6  A    between atoms: O_28  and  C_29
REMARK                            x       y       z     vdW  Elec       q    Type
REMARK                         _______ _______ _______ _____ _____    ______ ____
ROOT
ATOM      1  C   UNL     1      -4.949  -2.612   0.036  0.00  0.00    +0.013 C 
ATOM      2  C   UNL     1      -4.953  -3.967  -0.056  0.00  0.00    -0.027 C 
ATOM      3  C   UNL     1      -3.637  -4.673  -0.048  0.00  0.00    +0.037 C 
ATOM      4  C   UNL     1      -3.775  -6.176  -0.224  0.00  0.00    +0.005 C 
ATOM      5  C   UNL     1      -5.024  -6.697   0.484  0.00  0.00    +0.012 C 
ATOM      6  C   UNL     1      -6.264  -6.119  -0.202  0.00  0.00    +0.063 C 
ATOM      7  C   UNL     1      -6.189  -4.614  -0.145  0.00  0.00    +0.027 C 
ATOM      8  N   UNL     1      -7.296  -3.903  -0.206  0.00  0.00    -0.339 N 
ATOM      9  C   UNL     1      -8.503  -4.480  -0.233  0.00  0.00    +0.152 C 
ATOM     10  S   UNL     1      -9.827  -3.578  -0.667  0.00  0.00    -0.013 SA
ATOM     11  N   UNL     1      -8.666  -5.802   0.090  0.00  0.00    -0.358 N 
ATOM     12  C   UNL     1      -7.520  -6.590   0.535  0.00  0.00    +0.120 C 
ATOM     13  H   UNL     1      -7.235  -2.935  -0.231  0.00  0.00    +0.167 HD
ATOM     14  H   UNL     1      -9.540  -6.216   0.017  0.00  0.00    +0.162 HD
ENDROOT
BRANCH   1  18
ATOM     15  C   UNL     1      -1.323  -0.550   0.790  0.00  0.00    +0.120 A 
ATOM     16  C   UNL     1      -1.646  -1.678   1.536  0.00  0.00    +0.046 A 
ATOM     17  C   UNL     1      -2.822  -2.352   1.295  0.00  0.00    +0.011 A 
ATOM     18  C   UNL     1      -3.694  -1.898   0.297  0.00  0.00    -0.024 A 
ATOM     19  C   UNL     1      -3.364  -0.761  -0.451  0.00  0.00    +0.011 A 
ATOM     20  C   UNL     1      -2.188  -0.092  -0.198  0.00  0.00    +0.046 A 
BRANCH  15  22
ATOM     21  C   UNL     1       0.680  -0.413   2.060  0.00  0.00    +0.277 C 
ATOM     22  O   UNL     1      -0.162   0.110   1.031  0.00  0.00    -0.495 OA
ENDBRANCH  15  22
ENDBRANCH   1  18
BRANCH  12  23
ATOM     23  C   UNL     1      -7.760  -8.049   0.242  0.00  0.00    -0.024 A 
ATOM     24  C   UNL     1      -8.354  -8.425  -0.949  0.00  0.00    +0.009 A 
ATOM     25  C   UNL     1      -8.576  -9.761  -1.220  0.00  0.00    +0.046 A 
ATOM     26  C   UNL     1      -8.202 -10.726  -0.297  0.00  0.00    +0.120 A 
ATOM     27  C   UNL     1      -7.606 -10.347   0.897  0.00  0.00    +0.046 A 
ATOM     28  C   UNL     1      -7.381  -9.009   1.161  0.00  0.00    +0.009 A 
BRANCH  26  29
ATOM     29  O   UNL     1      -8.419 -12.041  -0.561  0.00  0.00    -0.495 OA
ATOM     30  C   UNL     1      -8.008 -12.980   0.436  0.00  0.00    +0.277 C 
ENDBRANCH  26  29
ENDBRANCH  12  23
TORSDOF 4
