REMARK  Name = ZINC01937576
REMARK  5 active torsions:
REMARK  status: ('A' for Active; 'I' for Inactive)
REMARK    1  A    between atoms: C_1  and  C_2
REMARK    2  A    between atoms: C_9  and  N_14
REMARK    3  A    between atoms: C_10  and  C_11
REMARK    4  A    between atoms: C_15  and  C_17
REMARK    5  A    between atoms: C_21  and  N_23
REMARK                            x       y       z     vdW  Elec       q    Type
REMARK                         _______ _______ _______ _____ _____    ______ ____
ROOT
ATOM      1  N   UNL     1       1.941  -5.825   1.699  0.00  0.00    -0.275 N 
ATOM      2  C   UNL     1       2.251  -6.085   2.985  0.00  0.00    +0.249 C 
ATOM      3  O   UNL     1       2.231  -5.190   3.808  0.00  0.00    -0.270 OA
ATOM      4  H   UNL     1       1.958  -6.539   1.043  0.00  0.00    +0.156 HD
ENDROOT
BRANCH   1  12
ATOM      5  C   UNL     1      -0.019   1.526   0.010  0.00  0.00    +0.008 C 
ATOM      6  C   UNL     1       0.002  -0.004   0.002  0.00  0.00    -0.009 C 
ATOM      7  C   UNL     1       0.724  -0.500  -1.254  0.00  0.00    +0.008 C 
ATOM      8  C   UNL     1       0.537  -2.012  -1.399  0.00  0.00    +0.037 C 
ATOM      9  C   UNL     1       0.935  -2.680  -0.091  0.00  0.00    -0.023 A 
ATOM     10  C   UNL     1       1.019  -1.977   1.059  0.00  0.00    -0.004 A 
ATOM     11  S   UNL     1       1.508  -3.164   2.276  0.00  0.00    -0.077 S 
ATOM     12  C   UNL     1       1.599  -4.539   1.315  0.00  0.00    +0.085 A 
ATOM     13  C   UNL     1       1.254  -4.090   0.050  0.00  0.00    +0.068 A 
ATOM     14  C   UNL     1       0.750  -0.515   1.242  0.00  0.00    +0.046 C 
BRANCH  13  15
ATOM     15  C   UNL     1       1.213  -5.001  -1.099  0.00  0.00    +0.244 C 
ATOM     16  O   UNL     1       2.209  -5.170  -1.778  0.00  0.00    -0.270 OA
ATOM     17  N   UNL     1       0.072  -5.651  -1.402  0.00  0.00    -0.325 N 
ATOM     18  H   UNL     1      -0.722  -5.516  -0.861  0.00  0.00    +0.145 HD
ATOM     19  H   UNL     1       0.044  -6.254  -2.162  0.00  0.00    +0.145 HD
ENDBRANCH  13  15
ENDBRANCH   1  12
BRANCH   2  20
ATOM     20  C   UNL     1       2.616  -7.457   3.395  0.00  0.00    +0.039 A 
ATOM     21  C   UNL     1       2.646  -8.486   2.450  0.00  0.00    +0.013 A 
ATOM     22  C   UNL     1       2.987  -9.766   2.836  0.00  0.00    +0.003 A 
ATOM     23  C   UNL     1       3.300 -10.035   4.155  0.00  0.00    +0.024 A 
ATOM     24  C   UNL     1       3.273  -9.019   5.102  0.00  0.00    +0.045 A 
ATOM     25  C   UNL     1       2.937  -7.729   4.725  0.00  0.00    +0.037 A 
BRANCH  24  26
ATOM     26  N   UNL     1       3.591  -9.298   6.439  0.00  0.00    -0.202 N 
ATOM     27  C   UNL     1       3.587  -8.386   7.428  0.00  0.00    +0.258 C 
ATOM     28  O   UNL     1       3.313  -7.210   7.307  0.00  0.00    -0.269 OA
ATOM     29  C   UNL     1       3.974  -9.057   8.687  0.00  0.00    +0.050 A 
ATOM     30  C   UNL     1       4.137  -8.635   9.997  0.00  0.00    +0.014 A 
ATOM     31  C   UNL     1       4.520  -9.546  10.970  0.00  0.00    +0.001 A 
ATOM     32  C   UNL     1       4.738 -10.871  10.641  0.00  0.00    +0.001 A 
ATOM     33  C   UNL     1       4.579 -11.307   9.335  0.00  0.00    +0.014 A 
ATOM     34  C   UNL     1       4.197 -10.408   8.352  0.00  0.00    +0.050 A 
ATOM     35  C   UNL     1       3.933 -10.514   6.902  0.00  0.00    +0.258 C 
ATOM     36  O   UNL     1       4.015 -11.528   6.239  0.00  0.00    -0.269 OA
ENDBRANCH  24  26
ENDBRANCH   2  20
TORSDOF 4
