REMARK  Name = ZINC13214024
REMARK  7 active torsions:
REMARK  status: ('A' for Active; 'I' for Inactive)
REMARK    1  A    between atoms: C_3  and  C_32
REMARK    2  A    between atoms: C_5  and  N_7
REMARK    3  A    between atoms: C_8  and  C_22
REMARK    4  A    between atoms: C_10  and  C_15
REMARK    5  A    between atoms: C_15  and  C_17
REMARK    6  A    between atoms: C_25  and  O_28
REMARK    7  A    between atoms: O_28  and  C_29
REMARK                            x       y       z     vdW  Elec       q    Type
REMARK                         _______ _______ _______ _____ _____    ______ ____
ROOT
ATOM      1  N   UNL     1       1.235  -2.087  -0.023  0.00  0.00    -0.253 N 
ATOM      2  C   UNL     1       0.054  -2.958  -0.014  0.00  0.00    +0.150 C 
ATOM      3  C   UNL     1       0.577  -4.375  -0.028  0.00  0.00    +0.080 C 
ATOM      4  C   UNL     1       1.927  -4.293  -0.044  0.00  0.00    +0.250 C 
ATOM      5  C   UNL     1       2.327  -2.872  -0.047  0.00  0.00    +0.292 C 
ATOM      6  O   UNL     1       3.474  -2.471  -0.064  0.00  0.00    -0.266 OA
ATOM      7  O   UNL     1       2.777  -5.347  -0.060  0.00  0.00    -0.282 OA
ENDROOT
BRANCH   1  12
ATOM      8  C   UNL     1       0.004   1.381   0.017  0.00  0.00    +0.003 A 
ATOM      9  C   UNL     1       1.189   2.088   0.001  0.00  0.00    +0.015 A 
ATOM     10  C   UNL     1       2.409   1.407  -0.024  0.00  0.00    +0.065 A 
ATOM     11  C   UNL     1       2.423   0.011  -0.032  0.00  0.00    +0.038 A 
ATOM     12  C   UNL     1       1.227  -0.689  -0.015  0.00  0.00    +0.038 A 
ATOM     13  C   UNL     1       0.019  -0.001   0.009  0.00  0.00    +0.023 A 
BRANCH  10  14
ATOM     14  C   UNL     1       3.678   2.161  -0.042  0.00  0.00    +0.387 C 
ATOM     15  O   UNL     1       3.663   3.383  -0.035  0.00  0.00    -0.241 OA
ATOM     16  O   UNL     1       4.744   1.562  -0.063  0.00  0.00    -0.241 OA
ENDBRANCH  10  14
ENDBRANCH   1  12
BRANCH   2  17
ATOM     17  C   UNL     1      -0.759  -2.716   1.232  0.00  0.00    -0.022 A 
ATOM     18  C   UNL     1      -0.128  -2.613   2.458  0.00  0.00    +0.009 A 
ATOM     19  C   UNL     1      -0.870  -2.392   3.602  0.00  0.00    +0.046 A 
ATOM     20  C   UNL     1      -2.250  -2.273   3.520  0.00  0.00    +0.127 A 
ATOM     21  C   UNL     1      -2.881  -2.376   2.288  0.00  0.00    +0.046 A 
ATOM     22  C   UNL     1      -2.133  -2.592   1.147  0.00  0.00    +0.009 A 
BRANCH  20  23
ATOM     23  O   UNL     1      -2.983  -2.056   4.644  0.00  0.00    -0.434 OA
BRANCH  23  24
ATOM     24  C   UNL     1      -4.398  -1.944   4.484  0.00  0.00    +0.541 C 
ATOM     25  F   UNL     1      -4.688  -0.871   3.633  0.00  0.00    -0.166 F 
ATOM     26  F   UNL     1      -4.900  -3.126   3.930  0.00  0.00    -0.166 F 
ENDBRANCH  23  24
ENDBRANCH  20  23
ENDBRANCH   2  17
BRANCH   3  27
ATOM     27  C   UNL     1      -0.226  -5.604  -0.025  0.00  0.00    +0.230 C 
ATOM     28  O   UNL     1      -0.181  -6.359   0.930  0.00  0.00    -0.283 OA
BRANCH  27  29
ATOM     29  C   UNL     1      -1.081  -5.924  -1.172  0.00  0.00    +0.175 A 
ATOM     30  C   UNL     1      -1.956  -6.985  -1.261  0.00  0.00    +0.053 A 
ATOM     31  C   UNL     1      -2.558  -6.901  -2.525  0.00  0.00    +0.042 A 
ATOM     32  C   UNL     1      -2.038  -5.816  -3.144  0.00  0.00    +0.196 A 
ATOM     33  O   UNL     1      -1.155  -5.229  -2.326  0.00  0.00    -0.460 OA
ENDBRANCH  27  29
ENDBRANCH   3  27
TORSDOF 7
