REMARK  Name = ZINC65226570
REMARK  6 active torsions:
REMARK  status: ('A' for Active; 'I' for Inactive)
REMARK    1  A    between atoms: C_1  and  C_2
REMARK    2  A    between atoms: C_2  and  C_4
REMARK    3  A    between atoms: C_2  and  N_11
REMARK    4  A    between atoms: C_12  and  C_14
REMARK    5  A    between atoms: N_17  and  C_20
REMARK    6  A    between atoms: C_25  and  N_26
REMARK                            x       y       z     vdW  Elec       q    Type
REMARK                         _______ _______ _______ _____ _____    ______ ____
ROOT
ATOM      1  C   UNL     1       0.262  -1.363  -3.816  0.00  0.00    +0.078 C 
ATOM      2  C   UNL     1       1.333  -0.287  -4.008  0.00  0.00    +0.031 C 
ATOM      3  C   UNL     1       2.258  -0.693  -5.160  0.00  0.00    +0.106 C 
ATOM      4  N   UNL     1       1.441  -0.950  -6.354  0.00  0.00    -0.326 N 
ATOM      5  C   UNL     1       0.325  -1.901  -6.255  0.00  0.00    +0.106 C 
ATOM      6  C   UNL     1      -0.578  -1.482  -5.090  0.00  0.00    +0.031 C 
ENDROOT
BRANCH   4   7
ATOM      7  C   UNL     1       1.720  -0.301  -7.563  0.00  0.00    +0.089 A 
ATOM      8  C   UNL     1       1.137   0.919  -7.867  0.00  0.00    +0.139 A 
ATOM      9  N   UNL     1       1.426   1.503  -9.022  0.00  0.00    -0.242 NA
ATOM     10  C   UNL     1       2.255   0.941  -9.878  0.00  0.00    +0.223 A 
ATOM     11  N   UNL     1       2.833  -0.218  -9.633  0.00  0.00    -0.219 NA
ATOM     12  C   UNL     1       2.601  -0.866  -8.496  0.00  0.00    +0.146 A 
BRANCH  12  13
ATOM     13  N   UNL     1       3.217  -2.083  -8.239  0.00  0.00    -0.314 N 
ATOM     14  C   UNL     1       2.584  -3.344  -8.651  0.00  0.00    +0.106 C 
ATOM     15  C   UNL     1       3.584  -4.146  -9.490  0.00  0.00    +0.019 C 
ATOM     16  C   UNL     1       4.881  -4.323  -8.698  0.00  0.00    +0.003 C 
ATOM     17  C   UNL     1       5.492  -2.951  -8.402  0.00  0.00    +0.019 C 
ATOM     18  C   UNL     1       4.516  -2.135  -7.556  0.00  0.00    +0.106 C 
ENDBRANCH  12  13
ENDBRANCH   4   7
BRANCH   1  20
ATOM     19  N   UNL     1      -0.104  -0.822  -1.430  0.00  0.00    -0.309 N 
ATOM     20  C   UNL     1      -0.629  -0.984  -2.661  0.00  0.00    +0.217 C 
ATOM     21  O   UNL     1      -1.818  -0.825  -2.840  0.00  0.00    -0.275 OA
ATOM     22  H   UNL     1       0.847  -0.949  -1.288  0.00  0.00    +0.149 HD
BRANCH  19  24
ATOM     23  C   UNL     1      -1.143   1.067  -0.274  0.00  0.00    +0.033 C 
ATOM     24  C   UNL     1      -0.970  -0.453  -0.308  0.00  0.00    +0.100 C 
BRANCH  24  25
ATOM     25  C   UNL     1      -0.344  -0.916   0.983  0.00  0.00    -0.027 A 
ATOM     26  C   UNL     1       1.020  -0.794   1.171  0.00  0.00    +0.008 A 
ATOM     27  C   UNL     1       1.595  -1.218   2.354  0.00  0.00    +0.038 A 
ATOM     28  C   UNL     1       0.804  -1.765   3.351  0.00  0.00    +0.123 A 
ATOM     29  C   UNL     1      -0.562  -1.887   3.161  0.00  0.00    +0.038 A 
ATOM     30  C   UNL     1      -1.136  -1.457   1.979  0.00  0.00    +0.008 A 
ATOM     31  F   UNL     1       1.365  -2.180   4.508  0.00  0.00    -0.205 F 
ENDBRANCH  24  25
ENDBRANCH  19  24
ENDBRANCH   1  20
TORSDOF 5
