REMARK  Name = ZINC67495340
REMARK  14 active torsions:
REMARK  status: ('A' for Active; 'I' for Inactive)
REMARK    1  A    between atoms: C_1  and  C_2
REMARK    2  A    between atoms: C_2  and  C_3
REMARK    3  A    between atoms: C_3  and  N_4
REMARK    4  A    between atoms: C_10  and  N_13
REMARK    5  A    between atoms: C_14  and  C_16
REMARK    6  A    between atoms: N_18  and  C_19
REMARK    7  A    between atoms: C_19  and  C_20
REMARK    8  A    between atoms: C_20  and  C_22
REMARK    9  A    between atoms: C_20  and  N_26
REMARK   10  A    between atoms: C_22  and  C_23
REMARK   11  A    between atoms: C_23  and  C_24
REMARK   12  A    between atoms: C_23  and  C_25
REMARK   13  A    between atoms: N_26  and  C_27
REMARK   14  A    between atoms: N_26  and  C_28
REMARK                            x       y       z     vdW  Elec       q    Type
REMARK                         _______ _______ _______ _____ _____    ______ ____
ROOT
ATOM      1  N   UNL     1      -6.159  -5.624  -2.159  0.00  0.00    -0.278 N 
ATOM      2  C   UNL     1      -6.947  -6.636  -1.746  0.00  0.00    +0.303 C 
ATOM      3  O   UNL     1      -7.077  -7.625  -2.437  0.00  0.00    -0.265 OA
ATOM      4  H   UNL     1      -5.991  -4.869  -1.574  0.00  0.00    +0.155 HD
ENDROOT
BRANCH   1  11
ATOM      5  N   UNL     1      -2.324  -3.835  -3.540  0.00  0.00    +0.385 N 
ATOM      6  C   UNL     1      -2.663  -4.053  -4.965  0.00  0.00    -0.042 C 
ATOM      7  C   UNL     1      -3.876  -4.956  -4.963  0.00  0.00    -0.061 A 
ATOM      8  C   UNL     1      -4.441  -5.739  -5.952  0.00  0.00    +0.002 A 
ATOM      9  C   UNL     1      -5.575  -6.485  -5.685  0.00  0.00    +0.002 A 
ATOM     10  C   UNL     1      -6.147  -6.449  -4.428  0.00  0.00    +0.023 A 
ATOM     11  C   UNL     1      -5.582  -5.663  -3.432  0.00  0.00    +0.035 A 
ATOM     12  C   UNL     1      -4.444  -4.915  -3.703  0.00  0.00    -0.041 A 
ATOM     13  C   UNL     1      -3.620  -3.986  -2.841  0.00  0.00    -0.040 C 
ATOM     14  H   UNL     1      -1.666  -4.530  -3.220  0.00  0.00    -0.081 HD
BRANCH   5  15
ATOM     15  C   UNL     1      -1.784  -2.484  -3.340  0.00  0.00    -0.078 C 
BRANCH  15  17
ATOM     16  C   UNL     1       0.171  -0.985  -3.757  0.00  0.00    +0.002 C 
ATOM     17  C   UNL     1      -0.391  -2.393  -3.966  0.00  0.00    -0.022 C 
ENDBRANCH  15  17
ENDBRANCH   5  15
ENDBRANCH   1  11
BRANCH   2  18
ATOM     18  C   UNL     1      -7.661  -6.540  -0.438  0.00  0.00    +0.299 C 
ATOM     19  O   UNL     1      -7.531  -5.550   0.253  0.00  0.00    -0.265 OA
ATOM     20  N   UNL     1      -8.450  -7.551  -0.024  0.00  0.00    -0.309 N 
ATOM     21  H   UNL     1      -8.553  -8.342  -0.576  0.00  0.00    +0.149 HD
BRANCH  20  22
ATOM     22  C   UNL     1      -9.150  -7.457   1.259  0.00  0.00    +0.089 C 
BRANCH  22  23
ATOM     23  C   UNL     1      -9.824  -8.794   1.572  0.00  0.00    -0.052 C 
BRANCH  23  24
ATOM     24  N   UNL     1      -8.800  -9.794   1.900  0.00  0.00    +0.379 N 
ATOM     25  C   UNL     1      -7.882  -9.945   0.763  0.00  0.00    -0.096 C 
ATOM     26  C   UNL     1      -8.046  -9.355   3.082  0.00  0.00    -0.096 C 
ATOM     27  H   UNL     1      -9.243 -10.679   2.094  0.00  0.00    -0.082 HD
ENDBRANCH  23  24
BRANCH  23  28
ATOM     28  C   UNL     1     -10.769  -8.622   2.764  0.00  0.00    -0.011 C 
BRANCH  28  29
ATOM     29  C   UNL     1     -11.514  -9.935   3.017  0.00  0.00    -0.019 C 
ATOM     30  C   UNL     1     -12.335  -9.815   4.302  0.00  0.00    +0.007 C 
ATOM     31  C   UNL     1     -12.447 -10.227   1.840  0.00  0.00    +0.007 C 
ENDBRANCH  28  29
ENDBRANCH  23  28
ENDBRANCH  22  23
ENDBRANCH  20  22
ENDBRANCH   2  18
TORSDOF 9
