REMARK  Name = ZINC05330402
REMARK  5 active torsions:
REMARK  status: ('A' for Active; 'I' for Inactive)
REMARK    1  A    between atoms: C_1  and  C_2
REMARK    2  A    between atoms: C_2  and  C_4
REMARK    3  A    between atoms: C_2  and  O_28
REMARK    4  A    between atoms: C_4  and  N_6
REMARK    5  A    between atoms: C_4  and  N_19
REMARK                            x       y       z     vdW  Elec       q    Type
REMARK                         _______ _______ _______ _____ _____    ______ ____
ROOT
ATOM      1  C   UNL     1       1.718   3.171   0.003  0.00  0.00    +0.237 C 
ENDROOT
BRANCH   1   2
ATOM      2  N   UNL     1       1.184   3.842  -1.185  0.00  0.00    -0.315 N 
ATOM      3  C   UNL     1      -0.161   3.954  -1.492  0.00  0.00    +0.052 A 
ATOM      4  C   UNL     1      -1.310   3.514  -0.842  0.00  0.00    +0.026 A 
ATOM      5  C   UNL     1      -2.551   3.771  -1.385  0.00  0.00    +0.002 A 
ATOM      6  C   UNL     1      -2.668   4.466  -2.578  0.00  0.00    +0.001 A 
ATOM      7  C   UNL     1      -1.542   4.916  -3.233  0.00  0.00    +0.010 A 
ATOM      8  C   UNL     1      -0.282   4.661  -2.697  0.00  0.00    +0.008 A 
ATOM      9  C   UNL     1       1.090   4.980  -3.135  0.00  0.00    +0.008 A 
ATOM     10  C   UNL     1       1.951   4.450  -2.162  0.00  0.00    +0.052 A 
ATOM     11  C   UNL     1       3.326   4.603  -2.314  0.00  0.00    +0.026 A 
ATOM     12  C   UNL     1       3.829   5.269  -3.411  0.00  0.00    +0.002 A 
ATOM     13  C   UNL     1       2.976   5.791  -4.371  0.00  0.00    +0.001 A 
ATOM     14  C   UNL     1       1.612   5.650  -4.239  0.00  0.00    +0.010 A 
ENDBRANCH   1   2
BRANCH   1  15
ATOM     15  N   UNL     1       1.301   1.767  -0.001  0.00  0.00    -0.218 N 
ATOM     16  C   UNL     1       2.122   0.665  -0.015  0.00  0.00    +0.091 A 
ATOM     17  C   UNL     1       3.502   0.487  -0.029  0.00  0.00    +0.030 A 
ATOM     18  C   UNL     1       4.024  -0.775  -0.042  0.00  0.00    +0.002 A 
ATOM     19  C   UNL     1       3.190  -1.886  -0.039  0.00  0.00    +0.002 A 
ATOM     20  C   UNL     1       1.834  -1.739  -0.025  0.00  0.00    +0.032 A 
ATOM     21  C   UNL     1       1.272  -0.455  -0.013  0.00  0.00    +0.113 A 
ATOM     22  N   UNL     1       0.002  -0.004   0.002  0.00  0.00    -0.129 NA
ATOM     23  N   UNL     1      -0.015   1.282   0.009  0.00  0.00    -0.063 NA
ENDBRANCH   1  15
BRANCH   1  25
ATOM     24  C   UNL     1       1.743   3.157   2.501  0.00  0.00    +0.042 C 
ATOM     25  C   UNL     1       1.185   3.858   1.261  0.00  0.00    +0.156 C 
BRANCH  25  26
ATOM     26  O   UNL     1       1.592   5.228   1.265  0.00  0.00    -0.388 OA
ATOM     27  H   UNL     1       1.273   5.735   0.505  0.00  0.00    +0.210 HD
ENDBRANCH  25  26
ENDBRANCH   1  25
TORSDOF 4
