REMARK  Name = ZINC18195588
REMARK  4 active torsions:
REMARK  status: ('A' for Active; 'I' for Inactive)
REMARK    1  A    between atoms: C_1  and  C_2
REMARK    2  A    between atoms: C_2  and  C_27
REMARK    3  A    between atoms: C_6  and  C_16
REMARK    4  A    between atoms: C_13  and  O_14
REMARK                            x       y       z     vdW  Elec       q    Type
REMARK                         _______ _______ _______ _____ _____    ______ ____
ROOT
ATOM      1  C   UNL     1       2.827   2.345   2.327  0.00  0.00    +0.011 C 
ATOM      2  C   UNL     1       3.425   1.847   1.010  0.00  0.00    -0.023 C 
ATOM      3  C   UNL     1       2.429   0.923   0.308  0.00  0.00    +0.058 C 
ATOM      4  C   UNL     1       1.159   1.683   0.000  0.00  0.00    +0.017 C 
ATOM      5  C   UNL     1       1.194   3.006  -0.272  0.00  0.00    +0.024 C 
ATOM      6  C   UNL     1      -0.048   3.797  -0.618  0.00  0.00    +0.092 C 
ATOM      7  C   UNL     1      -1.271   2.998  -0.265  0.00  0.00    +0.067 A 
ATOM      8  C   UNL     1      -1.215   1.660   0.017  0.00  0.00    +0.126 A 
ATOM      9  N   UNL     1      -2.467   1.244   0.290  0.00  0.00    -0.260 N 
ATOM     10  H   UNL     1      -2.740   0.314   0.534  0.00  0.00    +0.190 HD
ATOM     11  N   UNL     1      -3.321   2.353   0.170  0.00  0.00    -0.134 NA
ATOM     12  C   UNL     1      -2.599   3.401  -0.163  0.00  0.00    +0.237 A 
ATOM     13  N   UNL     1      -0.011   0.966   0.007  0.00  0.00    -0.303 N 
ATOM     14  C   UNL     1       2.409   3.715  -0.247  0.00  0.00    +0.162 C 
ATOM     15  O   UNL     1       2.408   4.903  -0.503  0.00  0.00    -0.292 OA
ATOM     16  C   UNL     1       3.708   3.038   0.088  0.00  0.00    +0.086 C 
ATOM     17  C   UNL     1       4.724   1.088   1.288  0.00  0.00    +0.011 C 
ATOM     18  H   UNL     1       0.002  -0.004   0.002  0.00  0.00    +0.153 HD
ENDROOT
BRANCH   6  19
ATOM     19  C   UNL     1      -0.056   4.099  -2.094  0.00  0.00    -0.034 A 
ATOM     20  C   UNL     1      -0.046   3.064  -3.011  0.00  0.00    +0.006 A 
ATOM     21  C   UNL     1      -0.058   3.340  -4.365  0.00  0.00    +0.022 A 
ATOM     22  C   UNL     1      -0.068   4.652  -4.804  0.00  0.00    +0.059 A 
ATOM     23  C   UNL     1      -0.073   5.688  -3.886  0.00  0.00    +0.060 A 
ATOM     24  C   UNL     1      -0.067   5.410  -2.531  0.00  0.00    +0.026 A 
ATOM     25 CL   UNL     1      -0.086   7.335  -4.436  0.00  0.00    -0.082 Cl
ATOM     26 CL   UNL     1      -0.076   4.998  -6.505  0.00  0.00    -0.082 Cl
ENDBRANCH   6  19
BRANCH  12  27
ATOM     27  O   UNL     1      -3.069   4.660  -0.370  0.00  0.00    -0.491 OA
ATOM     28  H   UNL     1      -4.059   4.673  -0.231  0.00  0.00    +0.294 HD
ENDBRANCH  12  27
TORSDOF 2
