REMARK  Name = ZINC39951333
REMARK  11 active torsions:
REMARK  status: ('A' for Active; 'I' for Inactive)
REMARK    1  A    between atoms: C_1  and  C_2
REMARK    2  A    between atoms: C_2  and  C_3
REMARK    3  A    between atoms: C_3  and  C_4
REMARK    4  A    between atoms: C_9  and  C_32
REMARK    5  A    between atoms: C_10  and  O_12
REMARK    6  A    between atoms: C_16  and  C_18
REMARK    7  A    between atoms: C_21  and  O_24
REMARK    8  A    between atoms: O_24  and  C_25
REMARK    9  A    between atoms: C_25  and  C_26
REMARK   10  A    between atoms: C_32  and  C_33
REMARK   11  A    between atoms: C_33  and  C_34
REMARK                            x       y       z     vdW  Elec       q    Type
REMARK                         _______ _______ _______ _____ _____    ______ ____
ROOT
ATOM      1  C   UNL     1       0.632  -2.024  -1.200  0.00  0.00    -0.016 C 
ATOM      2  C   UNL     1      -0.834  -2.337  -1.205  0.00  0.00    +0.023 C 
ATOM      3  C   UNL     1      -1.177  -3.655  -0.593  0.00  0.00    +0.083 C 
ATOM      4  N   UNL     1      -0.218  -4.709  -0.818  0.00  0.00    -0.311 NA
ATOM      5  C   UNL     1       0.437  -4.773  -2.096  0.00  0.00    +0.090 C 
ATOM      6  C   UNL     1       1.719  -3.981  -2.252  0.00  0.00    -0.005 C 
ATOM      7  C   UNL     1       1.394  -2.511  -2.406  0.00  0.00    +0.125 C 
ATOM      8  C   UNL     1       2.603  -4.130  -1.009  0.00  0.00    -0.065 C 
ATOM      9  N   UNL     1       1.779  -3.787   0.157  0.00  0.00    +0.394 N 
ATOM     10  C   UNL     1       1.297  -2.412   0.110  0.00  0.00    -0.067 C 
ATOM     11  C   UNL     1       0.721  -4.777   0.316  0.00  0.00    +0.033 C 
ATOM     12  H   UNL     1       2.372  -3.866   0.970  0.00  0.00    -0.079 HD
ENDROOT
BRANCH  11  13
ATOM     13  C   UNL     1       1.331  -6.154   0.377  0.00  0.00    -0.047 A 
ATOM     14  C   UNL     1       2.606  -6.322   0.884  0.00  0.00    +0.007 A 
ATOM     15  C   UNL     1       3.168  -7.582   0.940  0.00  0.00    +0.046 A 
ATOM     16  C   UNL     1       2.451  -8.681   0.488  0.00  0.00    +0.121 A 
ATOM     17  C   UNL     1       1.171  -8.510  -0.019  0.00  0.00    +0.046 A 
ATOM     18  C   UNL     1       0.612  -7.247  -0.069  0.00  0.00    +0.007 A 
BRANCH  16  19
ATOM     19  O   UNL     1       3.001  -9.922   0.542  0.00  0.00    -0.487 OA
BRANCH  19  20
ATOM     20  C   UNL     1       2.205 -11.006   0.060  0.00  0.00    +0.264 C 
BRANCH  20  21
ATOM     21  C   UNL     1       2.974 -12.295   0.198  0.00  0.00    -0.010 A 
ATOM     22  C   UNL     1       3.787 -12.729  -0.833  0.00  0.00    +0.007 A 
ATOM     23  C   UNL     1       4.493 -13.911  -0.706  0.00  0.00    +0.000 A 
ATOM     24  C   UNL     1       4.386 -14.658   0.452  0.00  0.00    +0.000 A 
ATOM     25  C   UNL     1       3.575 -14.224   1.483  0.00  0.00    +0.000 A 
ATOM     26  C   UNL     1       2.872 -13.040   1.358  0.00  0.00    +0.007 A 
ENDBRANCH  20  21
ENDBRANCH  19  20
ENDBRANCH  16  19
ENDBRANCH  11  13
BRANCH   7  27
ATOM     27  O   UNL     1       2.617  -1.782  -2.526  0.00  0.00    -0.391 OA
ATOM     28  H   UNL     1       2.497  -0.828  -2.632  0.00  0.00    +0.210 HD
ENDBRANCH   7  27
BRANCH   1  29
ATOM     29  C   UNL     1       0.718  -0.497  -1.257  0.00  0.00    +0.007 C 
BRANCH  29  31
ATOM     30  C   UNL     1       0.106   1.528  -2.585  0.00  0.00    +0.004 C 
ATOM     31  C   UNL     1       0.118  -0.002  -2.574  0.00  0.00    -0.003 C 
ENDBRANCH  29  31
ENDBRANCH   1  29
BRANCH   6  32
ATOM     32  C   UNL     1       2.479  -4.476  -3.485  0.00  0.00    +0.008 C 
BRANCH  32  33
ATOM     33  C   UNL     1       2.813  -5.959  -3.316  0.00  0.00    -0.003 C 
ATOM     34  C   UNL     1       3.573  -6.454  -4.549  0.00  0.00    +0.004 C 
ENDBRANCH  32  33
ENDBRANCH   6  32
TORSDOF 9
