REMARK  Name = ZINC39467574
REMARK  7 active torsions:
REMARK  status: ('A' for Active; 'I' for Inactive)
REMARK    1  A    between atoms: C_1  and  S_2
REMARK    2  A    between atoms: S_2  and  C_3
REMARK    3  A    between atoms: C_15  and  S_16
REMARK    4  A    between atoms: S_16  and  O_19
REMARK    5  A    between atoms: O_19  and  C_20
REMARK    6  A    between atoms: P_28  and  C_31
REMARK    7  A    between atoms: C_36  and  O_37
REMARK                            x       y       z     vdW  Elec       q    Type
REMARK                         _______ _______ _______ _____ _____    ______ ____
ROOT
ATOM      1  C   UNL     1      -1.275  -0.254  -0.122  0.00  0.00    +0.032 C 
ATOM      2  C   UNL     1      -2.050   0.842  -0.142  0.00  0.00    -0.008 C 
ATOM      3  C   UNL     1      -3.544   0.667  -0.130  0.00  0.00    +0.005 C 
ATOM      4  C   UNL     1      -4.258   1.887  -0.702  0.00  0.00    -0.046 C 
ATOM      5  N   UNL     1      -5.716   1.689  -0.632  0.00  0.00    +0.398 N 
ATOM      6  C   UNL     1      -6.135   0.515  -1.397  0.00  0.00    -0.020 C 
ATOM      7  C   UNL     1      -5.417  -0.750  -0.905  0.00  0.00    -0.003 C 
ATOM      8  C   UNL     1      -3.909  -0.545  -0.998  0.00  0.00    +0.018 C 
ATOM      9  C   UNL     1      -3.157  -1.746  -0.497  0.00  0.00    +0.008 C 
ATOM     10  C   UNL     1      -1.902  -1.591  -0.083  0.00  0.00    +0.137 C 
ATOM     11  C   UNL     1      -7.638   0.251  -1.242  0.00  0.00    +0.157 C 
ATOM     12  O   UNL     1      -8.374   1.375  -1.759  0.00  0.00    -0.316 OA
ATOM     13  P   UNL     1      -7.950   2.859  -1.245  0.00  0.00    +0.291 P 
ATOM     14  O   UNL     1      -8.543   3.131   0.083  0.00  0.00    -0.269 OA
ATOM     15  N   UNL     1      -6.286   2.831  -1.153  0.00  0.00    -0.288 NA
ATOM     16  H   UNL     1      -5.740   3.582  -1.436  0.00  0.00    +0.111 HD
ATOM     17  H   UNL     1      -5.996   1.583   0.332  0.00  0.00    -0.055 HD
ENDROOT
BRANCH  13  18
ATOM     18  C   UNL     1      -8.485   4.115  -2.440  0.00  0.00    +0.091 A 
ATOM     19  C   UNL     1      -7.645   4.489  -3.472  0.00  0.00    +0.018 A 
ATOM     20  C   UNL     1      -8.052   5.447  -4.383  0.00  0.00    +0.001 A 
ATOM     21  C   UNL     1      -9.299   6.032  -4.264  0.00  0.00    +0.004 A 
ATOM     22  C   UNL     1     -10.142   5.661  -3.235  0.00  0.00    +0.046 A 
ATOM     23  C   UNL     1      -9.738   4.696  -2.322  0.00  0.00    +0.131 A 
BRANCH  23  24
ATOM     24  O   UNL     1     -10.568   4.326  -1.312  0.00  0.00    -0.506 OA
ATOM     25  H   UNL     1     -10.467   4.851  -0.507  0.00  0.00    +0.292 HD
ENDBRANCH  23  24
ENDBRANCH  13  18
BRANCH  10  26
ATOM     26  S   UNL     1      -0.994  -2.977   0.516  0.00  0.00    +0.152 S 
ATOM     27  O   UNL     1      -0.318  -2.544   1.688  0.00  0.00    -0.131 OA
ATOM     28  O   UNL     1      -1.891  -4.080   0.518  0.00  0.00    -0.131 OA
BRANCH  26  29
ATOM     29  O   UNL     1       0.080  -3.291  -0.515  0.00  0.00    -0.342 OA
BRANCH  29  30
ATOM     30  C   UNL     1      -0.392  -3.891  -1.640  0.00  0.00    +0.157 A 
ATOM     31  C   UNL     1      -0.449  -5.275  -1.717  0.00  0.00    +0.048 A 
ATOM     32  C   UNL     1      -0.930  -5.882  -2.861  0.00  0.00    +0.004 A 
ATOM     33  C   UNL     1      -1.352  -5.112  -3.929  0.00  0.00    +0.000 A 
ATOM     34  C   UNL     1      -1.295  -3.733  -3.854  0.00  0.00    +0.004 A 
ATOM     35  C   UNL     1      -0.821  -3.120  -2.710  0.00  0.00    +0.048 A 
ENDBRANCH  29  30
ENDBRANCH  26  29
ENDBRANCH  10  26
BRANCH   1  37
ATOM     36  C   UNL     1       0.761   1.693  -0.195  0.00  0.00    +0.090 C 
ATOM     37  S   UNL     1       0.480  -0.099  -0.150  0.00  0.00    -0.127 S 
ENDBRANCH   1  37
TORSDOF 6
