REMARK  Name = ZINC20744533
REMARK  5 active torsions:
REMARK  status: ('A' for Active; 'I' for Inactive)
REMARK    1  A    between atoms: C_1  and  O_2
REMARK    2  A    between atoms: O_2  and  C_3
REMARK    3  A    between atoms: C_3  and  C_5
REMARK    4  A    between atoms: C_10  and  N_11
REMARK    5  A    between atoms: C_23  and  C_25
REMARK                            x       y       z     vdW  Elec       q    Type
REMARK                         _______ _______ _______ _____ _____    ______ ____
ROOT
ATOM      1  N   UNL     1       2.078  -2.158   3.112  0.00  0.00    -0.269 N 
ATOM      2  C   UNL     1       2.862  -2.778   4.016  0.00  0.00    +0.307 C 
ATOM      3  O   UNL     1       3.067  -3.973   3.925  0.00  0.00    -0.252 OA
ATOM      4  N   UNL     1       3.419  -2.073   5.021  0.00  0.00    -0.272 N 
ATOM      5  C   UNL     1       3.273  -0.612   5.089  0.00  0.00    +0.116 C 
ATOM      6  C   UNL     1       4.652   0.040   4.938  0.00  0.00    +0.076 C 
ATOM      7  C   UNL     1       5.636  -0.693   5.815  0.00  0.00    +0.066 A 
ATOM      8  C   UNL     1       5.435  -1.930   6.318  0.00  0.00    +0.064 A 
ATOM      9  N   UNL     1       6.536  -2.252   7.048  0.00  0.00    -0.346 N 
ATOM     10  H   UNL     1       6.686  -3.080   7.531  0.00  0.00    +0.167 HD
ATOM     11  C   UNL     1       7.382  -1.199   6.974  0.00  0.00    +0.197 A 
ATOM     12  N   UNL     1       6.833  -0.271   6.233  0.00  0.00    -0.240 NA
ATOM     13  C   UNL     1       4.185  -2.749   6.084  0.00  0.00    +0.159 C 
ATOM     14  H   UNL     1       1.982  -1.193   3.134  0.00  0.00    +0.156 HD
ENDROOT
BRANCH  13  15
ATOM     15  C   UNL     1       3.365  -2.812   7.347  0.00  0.00    +0.017 A 
ATOM     16  C   UNL     1       3.611  -1.924   8.377  0.00  0.00    +0.009 A 
ATOM     17  C   UNL     1       2.859  -1.981   9.535  0.00  0.00    +0.003 A 
ATOM     18  C   UNL     1       1.859  -2.926   9.666  0.00  0.00    +0.041 A 
ATOM     19  C   UNL     1       1.610  -3.817   8.637  0.00  0.00    +0.159 A 
ATOM     20  C   UNL     1       2.361  -3.756   7.473  0.00  0.00    +0.164 A 
ATOM     21  F   UNL     1       2.116  -4.622   6.464  0.00  0.00    -0.202 F 
ATOM     22  F   UNL     1       0.633  -4.742   8.765  0.00  0.00    -0.202 F 
ENDBRANCH  13  15
BRANCH   1  28
ATOM     23  C   UNL     1       1.211  -2.378   0.860  0.00  0.00    +0.080 A 
ATOM     24  C   UNL     1       0.540  -3.138  -0.102  0.00  0.00    +0.017 A 
ATOM     25  C   UNL     1       0.069  -4.392   0.221  0.00  0.00    +0.001 A 
ATOM     26  C   UNL     1       0.257  -4.905   1.494  0.00  0.00    +0.002 A 
ATOM     27  C   UNL     1       0.918  -4.166   2.454  0.00  0.00    +0.024 A 
ATOM     28  C   UNL     1       1.405  -2.903   2.147  0.00  0.00    +0.049 A 
BRANCH  23  29
ATOM     29  C   UNL     1       1.718  -1.036   0.522  0.00  0.00    +0.341 C 
ATOM     30  O   UNL     1       2.227  -0.344   1.382  0.00  0.00    -0.245 OA
BRANCH  29  32
ATOM     31  C   UNL     1       2.129   0.734  -0.996  0.00  0.00    +0.280 C 
ATOM     32  O   UNL     1       1.617  -0.576  -0.740  0.00  0.00    -0.464 OA
ENDBRANCH  29  32
ENDBRANCH  23  29
ENDBRANCH   1  28
TORSDOF 4
