REMARK  Name = ZINC20438249
REMARK  8 active torsions:
REMARK  status: ('A' for Active; 'I' for Inactive)
REMARK    1  A    between atoms: C_1  and  C_2
REMARK    2  A    between atoms: C_5  and  C_8
REMARK    3  A    between atoms: C_8  and  O_30
REMARK    4  A    between atoms: C_12  and  C_28
REMARK    5  A    between atoms: C_13  and  C_19
REMARK    6  A    between atoms: C_22  and  O_27
REMARK    7  A    between atoms: C_23  and  O_25
REMARK    8  A    between atoms: O_25  and  C_26
REMARK                            x       y       z     vdW  Elec       q    Type
REMARK                         _______ _______ _______ _____ _____    ______ ____
ROOT
ATOM      1  C   UNL     1      -3.292   2.354   4.940  0.00  0.00    +0.175 C 
ATOM      2  C   UNL     1      -3.975   1.235   5.745  0.00  0.00    +0.136 C 
ATOM      3  S   UNL     1      -5.733   1.748   5.654  0.00  0.00    -0.104 S 
ATOM      4  C   UNL     1      -5.552   3.217   4.683  0.00  0.00    +0.087 C 
ATOM      5  C   UNL     1      -6.524   4.041   4.218  0.00  0.00    +0.065 C 
ATOM      6  C   UNL     1      -6.118   5.205   3.343  0.00  0.00    +0.071 C 
ATOM      7  C   UNL     1      -4.726   5.696   3.729  0.00  0.00    +0.110 C 
ATOM      8  C   UNL     1      -3.762   4.551   3.881  0.00  0.00    +0.224 C 
ATOM      9  O   UNL     1      -2.622   4.649   3.479  0.00  0.00    -0.275 OA
ATOM     10  N   UNL     1      -4.194   3.395   4.481  0.00  0.00    -0.231 N 
ENDROOT
BRANCH   1  15
ATOM     11  C   UNL     1      -0.718  -0.008   0.337  0.00  0.00    +0.044 C 
ATOM     12  C   UNL     1      -1.389   0.608   1.538  0.00  0.00    -0.050 A 
ATOM     13  C   UNL     1      -2.739   0.907   1.498  0.00  0.00    +0.004 A 
ATOM     14  C   UNL     1      -3.355   1.467   2.601  0.00  0.00    +0.008 A 
ATOM     15  C   UNL     1      -2.620   1.739   3.740  0.00  0.00    +0.003 A 
ATOM     16  C   UNL     1      -1.270   1.445   3.778  0.00  0.00    +0.008 A 
ATOM     17  C   UNL     1      -0.655   0.879   2.677  0.00  0.00    +0.004 A 
ENDBRANCH   1  15
BRANCH   6  18
ATOM     18  C   UNL     1      -6.111   4.767   1.901  0.00  0.00    -0.035 A 
ATOM     19  C   UNL     1      -5.190   3.830   1.470  0.00  0.00    +0.008 A 
ATOM     20  C   UNL     1      -5.180   3.424   0.148  0.00  0.00    +0.049 A 
ATOM     21  C   UNL     1      -6.094   3.957  -0.747  0.00  0.00    +0.158 A 
ATOM     22  C   UNL     1      -7.020   4.900  -0.313  0.00  0.00    +0.162 A 
ATOM     23  C   UNL     1      -7.029   5.298   1.014  0.00  0.00    +0.053 A 
BRANCH  22  24
ATOM     24  O   UNL     1      -7.919   5.426  -1.188  0.00  0.00    -0.491 OA
ATOM     25  C   UNL     1      -8.840   6.389  -0.671  0.00  0.00    +0.277 C 
ENDBRANCH  22  24
BRANCH  21  26
ATOM     26  O   UNL     1      -6.086   3.558  -2.047  0.00  0.00    -0.503 OA
ATOM     27  H   UNL     1      -6.812   3.982  -2.757  0.00  0.00    +0.292 HD
ENDBRANCH  21  26
ENDBRANCH   6  18
BRANCH   5  28
ATOM     28  C   UNL     1      -7.899   3.813   4.547  0.00  0.00    +0.098 C 
ATOM     29  N   UNL     1      -8.989   3.632   4.807  0.00  0.00    -0.191 NA
ENDBRANCH   5  28
BRANCH   1  30
ATOM     30  O   UNL     1      -2.287   2.954   5.761  0.00  0.00    -0.366 OA
ATOM     31  H   UNL     1      -2.571   3.462   6.695  0.00  0.00    +0.212 HD
ENDBRANCH   1  30
TORSDOF 6
