REMARK  Name = ZINC40317279
REMARK  10 active torsions:
REMARK  status: ('A' for Active; 'I' for Inactive)
REMARK    1  A    between atoms: C_1  and  C_2
REMARK    2  A    between atoms: C_4  and  O_9
REMARK    3  A    between atoms: O_9  and  C_10
REMARK    4  A    between atoms: C_10  and  C_11
REMARK    5  A    between atoms: C_11  and  C_13
REMARK    6  A    between atoms: C_11  and  O_34
REMARK    7  A    between atoms: C_13  and  N_14
REMARK    8  A    between atoms: N_14  and  C_15
REMARK    9  A    between atoms: N_14  and  C_26
REMARK   10  A    between atoms: C_15  and  C_16
REMARK                            x       y       z     vdW  Elec       q    Type
REMARK                         _______ _______ _______ _____ _____    ______ ____
ROOT
ATOM      1  N   UNL     1       0.153  -6.924  -5.226  0.00  0.00    +0.387 N 
ATOM      2  H   UNL     1      -0.539  -6.740  -5.936  0.00  0.00    -0.081 HD
ENDROOT
BRANCH   1   3
ATOM      3  C   UNL     1       1.496  -6.745  -5.794  0.00  0.00    -0.045 C 
ATOM      4  C   UNL     1       1.659  -7.639  -7.035  0.00  0.00    +0.009 C 
ATOM      5  C   UNL     1       3.149  -7.704  -7.447  0.00  0.00    +0.164 C 
ATOM      6  S   UNL     1       4.022  -7.439  -5.850  0.00  0.00    -0.033 S 
ATOM      7  O   UNL     1       4.774  -6.237  -5.928  0.00  0.00    -0.174 OA
ATOM      8  O   UNL     1       4.669  -8.646  -5.471  0.00  0.00    -0.174 OA
ATOM      9  C   UNL     1       2.569  -7.167  -4.750  0.00  0.00    +0.151 C 
ENDBRANCH   1   3
BRANCH   1  10
ATOM     10  C   UNL     1      -0.033  -5.992  -4.107  0.00  0.00    -0.043 C 
BRANCH  10  11
ATOM     11  C   UNL     1      -0.022  -4.555  -4.633  0.00  0.00    +0.135 C 
BRANCH  11  12
ATOM     12  O   UNL     1      -1.088  -4.382  -5.569  0.00  0.00    -0.390 OA
ATOM     13  H   UNL     1      -1.967  -4.544  -5.199  0.00  0.00    +0.210 HD
ENDBRANCH  11  12
BRANCH  11  14
ATOM     14  C   UNL     1      -0.206  -3.583  -3.465  0.00  0.00    +0.258 C 
BRANCH  14  15
ATOM     15  O   UNL     1      -0.080  -2.241  -3.938  0.00  0.00    -0.489 OA
BRANCH  15  19
ATOM     16  C   UNL     1      -0.128   2.528  -2.901  0.00  0.00    +0.045 C 
ATOM     17  C   UNL     1      -0.248   1.087  -2.477  0.00  0.00    -0.029 A 
ATOM     18  C   UNL     1      -0.107   0.079  -3.411  0.00  0.00    +0.050 A 
ATOM     19  C   UNL     1      -0.218  -1.247  -3.021  0.00  0.00    +0.121 A 
ATOM     20  C   UNL     1      -0.470  -1.559  -1.693  0.00  0.00    +0.047 A 
ATOM     21  C   UNL     1      -0.610  -0.548  -0.762  0.00  0.00    +0.024 A 
ATOM     22  C   UNL     1      -0.494   0.774  -1.152  0.00  0.00    +0.044 A 
ATOM     23 CL   UNL     1      -0.664   2.043   0.021  0.00  0.00    -0.083 Cl
ENDBRANCH  15  19
ENDBRANCH  14  15
ENDBRANCH  11  14
ENDBRANCH  10  11
ENDBRANCH   1  10
BRANCH   1  24
ATOM     24  C   UNL     1       0.005  -8.304  -4.744  0.00  0.00    -0.042 C 
BRANCH  24  25
ATOM     25  C   UNL     1      -1.416  -8.530  -4.297  0.00  0.00    -0.056 A 
ATOM     26  C   UNL     1      -1.716  -8.582  -2.971  0.00  0.00    +0.002 A 
ATOM     27  C   UNL     1      -3.024  -8.791  -2.539  0.00  0.00    +0.001 A 
ATOM     28  C   UNL     1      -4.040  -8.949  -3.431  0.00  0.00    +0.008 A 
ATOM     29  C   UNL     1      -3.769  -8.901  -4.809  0.00  0.00    -0.018 A 
ATOM     30  C   UNL     1      -2.439  -8.683  -5.248  0.00  0.00    -0.017 A 
ATOM     31  C   UNL     1      -2.169  -8.630  -6.626  0.00  0.00    +0.009 A 
ATOM     32  C   UNL     1      -3.186  -8.782  -7.518  0.00  0.00    +0.001 A 
ATOM     33  C   UNL     1      -4.494  -8.990  -7.086  0.00  0.00    +0.001 A 
ATOM     34  C   UNL     1      -4.791  -9.061  -5.760  0.00  0.00    +0.008 A 
ENDBRANCH  24  25
ENDBRANCH   1  24
TORSDOF 9
