REMARK  Name = ZINC19300438
REMARK  5 active torsions:
REMARK  status: ('A' for Active; 'I' for Inactive)
REMARK    1  A    between atoms: N_9  and  C_11
REMARK    2  A    between atoms: C_11  and  C_12
REMARK    3  A    between atoms: C_15  and  C_20
REMARK    4  A    between atoms: N_22  and  C_23
REMARK    5  A    between atoms: C_26  and  O_29
REMARK                            x       y       z     vdW  Elec       q    Type
REMARK                         _______ _______ _______ _____ _____    ______ ____
ROOT
ATOM      1  C   UNL     1       6.329   2.247   0.347  0.00  0.00    +0.033 A 
ATOM      2  C   UNL     1       6.060   1.056   0.942  0.00  0.00    +0.023 A 
ATOM      3  C   UNL     1       4.742   0.614   1.056  0.00  0.00    +0.020 A 
ATOM      4  C   UNL     1       3.716   1.411   0.553  0.00  0.00    +0.101 A 
ATOM      5  C   UNL     1       4.049   2.644  -0.065  0.00  0.00    +0.261 A 
ATOM      6  O   UNL     1       3.170   3.357  -0.517  0.00  0.00    -0.267 OA
ATOM      7  N   UNL     1       5.337   3.027  -0.144  0.00  0.00    -0.324 N 
ATOM      8  H   UNL     1       5.578   3.990  -0.618  0.00  0.00    +0.169 HD
ENDROOT
BRANCH   4   9
ATOM      9  C   UNL     1       2.314   0.978   0.654  0.00  0.00    +0.250 C 
ATOM     10  O   UNL     1       2.032  -0.030   1.274  0.00  0.00    -0.270 OA
ATOM     11  N   UNL     1       1.342   1.699   0.061  0.00  0.00    -0.308 N 
ATOM     12  H   UNL     1       1.586   2.653  -0.429  0.00  0.00    +0.149 HD
BRANCH  11  13
ATOM     13  C   UNL     1      -0.040   1.212   0.069  0.00  0.00    +0.073 C 
ATOM     14  C   UNL     1      -0.722   1.637   1.371  0.00  0.00    +0.025 C 
ATOM     15  C   UNL     1      -2.165   1.128   1.379  0.00  0.00    +0.033 C 
ATOM     16  C   UNL     1      -2.922   1.721   0.190  0.00  0.00    +0.115 C 
ATOM     17  C   UNL     1      -2.240   1.297  -1.112  0.00  0.00    +0.033 C 
ATOM     18  C   UNL     1      -0.796   1.805  -1.121  0.00  0.00    +0.025 C 
BRANCH  16  19
ATOM     19  O   UNL     1      -2.919   3.147   0.286  0.00  0.00    -0.392 OA
ATOM     20  H   UNL     1      -3.419   3.752  -0.485  0.00  0.00    +0.210 HD
ENDBRANCH  16  19
ENDBRANCH  11  13
ENDBRANCH   4   9
BRANCH   1  21
ATOM     21  C   UNL     1       7.759   2.709   0.232  0.00  0.00    +0.138 C 
BRANCH  21  30
ATOM     22  C   UNL     1      10.652   3.587  -5.440  0.00  0.00    +0.000 A 
ATOM     23  C   UNL     1      11.131   4.526  -4.546  0.00  0.00    +0.000 A 
ATOM     24  C   UNL     1      10.705   4.505  -3.233  0.00  0.00    +0.005 A 
ATOM     25  C   UNL     1       9.797   3.547  -2.805  0.00  0.00    -0.030 A 
ATOM     26  C   UNL     1       9.318   2.613  -3.698  0.00  0.00    -0.042 A 
ATOM     27  C   UNL     1       9.748   2.634  -5.016  0.00  0.00    +0.004 A 
ATOM     28  C   UNL     1       8.326   1.557  -3.282  0.00  0.00    +0.051 C 
ATOM     29  C   UNL     1       8.302   1.437  -1.758  0.00  0.00    +0.090 C 
ATOM     30  N   UNL     1       8.137   2.782  -1.186  0.00  0.00    -0.292 NA
ATOM     31  C   UNL     1       9.365   3.563  -1.363  0.00  0.00    +0.120 C 
ENDBRANCH  21  30
ENDBRANCH   1  21
TORSDOF 5
