REMARK  Name = ZINC39345400
REMARK  8 active torsions:
REMARK  status: ('A' for Active; 'I' for Inactive)
REMARK    1  A    between atoms: C_1  and  C_2
REMARK    2  A    between atoms: C_4  and  C_9
REMARK    3  A    between atoms: C_5  and  O_8
REMARK    4  A    between atoms: C_9  and  C_11
REMARK    5  A    between atoms: C_9  and  C_26
REMARK    6  A    between atoms: C_14  and  C_16
REMARK    7  A    between atoms: C_21  and  N_22
REMARK    8  A    between atoms: C_27  and  C_32
REMARK                            x       y       z     vdW  Elec       q    Type
REMARK                         _______ _______ _______ _____ _____    ______ ____
ROOT
ATOM      1  C   UNL     1       0.574  -0.457  -2.795  0.00  0.00    +0.125 C 
ENDROOT
BRANCH   1   2
ATOM      2  C   UNL     1      -0.890  -0.771  -2.620  0.00  0.00    +0.055 A 
ATOM      3  C   UNL     1      -1.610  -1.750  -3.312  0.00  0.00    +0.068 A 
ATOM      4  N   UNL     1      -2.848  -1.724  -2.889  0.00  0.00    -0.176 NA
ATOM      5  N   UNL     1      -2.959  -0.728  -1.911  0.00  0.00    -0.243 N 
ATOM      6  C   UNL     1      -1.743  -0.158  -1.758  0.00  0.00    +0.271 A 
ATOM      7  O   UNL     1      -1.431   0.847  -0.900  0.00  0.00    -0.266 OA
ATOM      8  C   UNL     1      -1.056  -2.674  -4.366  0.00  0.00    +0.068 C 
ATOM      9  H   UNL     1      -3.765  -0.490  -1.427  0.00  0.00    +0.192 HD
ENDBRANCH   1   2
BRANCH   1  12
ATOM     10  C   UNL     1       0.458  -2.842  -0.543  0.00  0.00    +0.039 C 
ATOM     11  C   UNL     1       1.693  -1.992  -0.848  0.00  0.00    +0.157 C 
ATOM     12  C   UNL     1       1.293  -0.675  -1.488  0.00  0.00    +0.034 C 
ATOM     13  C   UNL     1       1.730   0.249  -0.622  0.00  0.00    +0.234 C 
ATOM     14  N   UNL     1       2.331  -0.338   0.440  0.00  0.00    -0.116 NA
ATOM     15  N   UNL     1       2.358  -1.574   0.397  0.00  0.00    -0.176 NA
BRANCH  13  16
ATOM     16  O   UNL     1       1.589   1.591  -0.787  0.00  0.00    -0.491 OA
ATOM     17  H   UNL     1       1.961   2.117  -0.066  0.00  0.00    +0.294 HD
ENDBRANCH  13  16
ENDBRANCH   1  12
BRANCH   1  18
ATOM     18  C   UNL     1       0.732   0.979  -3.222  0.00  0.00    +0.118 A 
ATOM     19  C   UNL     1       1.555   1.425  -4.191  0.00  0.00    +0.046 A 
ATOM     20  C   UNL     1       1.389   2.822  -4.263  0.00  0.00    +0.050 A 
ATOM     21  C   UNL     1       0.465   3.156  -3.324  0.00  0.00    +0.137 A 
ATOM     22  O   UNL     1       0.071   2.028  -2.703  0.00  0.00    -0.459 OA
BRANCH  21  23
ATOM     23  C   UNL     1      -0.026   4.521  -3.037  0.00  0.00    +0.047 A 
ATOM     24  C   UNL     1       0.880   5.564  -2.836  0.00  0.00    +0.015 A 
ATOM     25  C   UNL     1       0.415   6.835  -2.569  0.00  0.00    +0.016 A 
ATOM     26  C   UNL     1      -0.946   7.077  -2.500  0.00  0.00    +0.020 A 
ATOM     27  C   UNL     1      -1.849   6.046  -2.698  0.00  0.00    +0.048 A 
ATOM     28  C   UNL     1      -1.397   4.772  -2.971  0.00  0.00    +0.138 A 
ATOM     29 BR   UNL     1      -1.575   8.822  -2.134  0.00  0.00    -0.050 Br
BRANCH  28  30
ATOM     30  N   UNL     1      -2.364   3.672  -3.188  0.00  0.00    +0.057 N 
ATOM     31  O   UNL     1      -3.552   3.892  -3.131  0.00  0.00    -0.126 OA
ATOM     32  O   UNL     1      -1.967   2.555  -3.423  0.00  0.00    -0.126 OA
ENDBRANCH  28  30
ENDBRANCH  21  23
ENDBRANCH   1  18
TORSDOF 6
