REMARK  Name = ZINC39201060
REMARK  12 active torsions:
REMARK  status: ('A' for Active; 'I' for Inactive)
REMARK    1  A    between atoms: C_1  and  C_2
REMARK    2  A    between atoms: C_2  and  C_4
REMARK    3  A    between atoms: C_2  and  N_13
REMARK    4  A    between atoms: C_4  and  C_6
REMARK    5  A    between atoms: C_4  and  O_12
REMARK    6  A    between atoms: C_14  and  C_16
REMARK    7  A    between atoms: C_16  and  C_18
REMARK    8  A    between atoms: C_16  and  N_22
REMARK    9  A    between atoms: C_18  and  C_19
REMARK   10  A    between atoms: C_19  and  C_20
REMARK   11  A    between atoms: C_19  and  C_21
REMARK   12  A    between atoms: C_32  and  C_34
REMARK                            x       y       z     vdW  Elec       q    Type
REMARK                         _______ _______ _______ _____ _____    ______ ____
ROOT
ATOM      1  C   UNL     1      -1.462  -3.027   3.387  0.00  0.00    +0.162 C 
ENDROOT
BRANCH   1   2
ATOM      2  N   UNL     1      -1.179  -2.128   4.509  0.00  0.00    -0.288 N 
ATOM      3  C   UNL     1      -1.335  -2.493   5.923  0.00  0.00    +0.111 C 
ATOM      4  C   UNL     1      -0.533  -1.434   6.714  0.00  0.00    +0.054 C 
ATOM      5  C   UNL     1      -0.539  -0.246   5.735  0.00  0.00    +0.115 C 
ATOM      6  C   UNL     1      -0.738  -0.863   4.377  0.00  0.00    +0.240 C 
ATOM      7  O   UNL     1      -0.533  -0.303   3.321  0.00  0.00    -0.273 OA
ATOM      8  C   UNL     1       0.797   0.508   5.802  0.00  0.00    +0.037 C 
ATOM      9  C   UNL     1       0.363   1.990   5.627  0.00  0.00    +0.022 C 
ATOM     10  C   UNL     1      -1.000   2.006   6.365  0.00  0.00    +0.109 C 
ATOM     11  N   UNL     1      -1.609   0.695   6.064  0.00  0.00    -0.283 N 
ATOM     12  C   UNL     1      -2.927   0.414   6.088  0.00  0.00    +0.253 C 
ATOM     13  O   UNL     1      -3.309  -0.727   5.909  0.00  0.00    -0.270 OA
BRANCH  12  14
ATOM     14  C   UNL     1      -3.904   1.486   6.331  0.00  0.00    +0.101 A 
ATOM     15  C   UNL     1      -4.798   1.870   5.334  0.00  0.00    +0.020 A 
ATOM     16  C   UNL     1      -5.710   2.892   5.601  0.00  0.00    +0.018 A 
ATOM     17  C   UNL     1      -5.718   3.497   6.816  0.00  0.00    +0.086 A 
ATOM     18  N   UNL     1      -4.852   3.129   7.790  0.00  0.00    -0.328 N 
ATOM     19  C   UNL     1      -3.956   2.145   7.587  0.00  0.00    +0.261 A 
ATOM     20  O   UNL     1      -3.188   1.824   8.478  0.00  0.00    -0.267 OA
ATOM     21  H   UNL     1      -4.880   3.579   8.649  0.00  0.00    +0.168 HD
ENDBRANCH  12  14
ENDBRANCH   1   2
BRANCH   1  23
ATOM     22  N   UNL     1      -3.433  -4.139   2.388  0.00  0.00    -0.308 N 
ATOM     23  C   UNL     1      -2.938  -3.327   3.343  0.00  0.00    +0.234 C 
ATOM     24  O   UNL     1      -3.681  -2.838   4.168  0.00  0.00    -0.274 OA
ATOM     25  H   UNL     1      -2.838  -4.529   1.728  0.00  0.00    +0.149 HD
BRANCH  22  27
ATOM     26  C   UNL     1      -5.590  -3.325   1.573  0.00  0.00    +0.031 C 
ATOM     27  C   UNL     1      -4.867  -4.431   2.345  0.00  0.00    +0.103 C 
BRANCH  27  28
ATOM     28  C   UNL     1      -5.094  -5.772   1.645  0.00  0.00    +0.164 C 
BRANCH  28  29
ATOM     29  C   UNL     1      -6.557  -6.131   1.710  0.00  0.00    -0.017 A 
ATOM     30  C   UNL     1      -7.431  -5.643   0.757  0.00  0.00    +0.006 A 
ATOM     31  C   UNL     1      -8.772  -5.973   0.816  0.00  0.00    +0.000 A 
ATOM     32  C   UNL     1      -9.239  -6.791   1.828  0.00  0.00    +0.000 A 
ATOM     33  C   UNL     1      -8.365  -7.279   2.780  0.00  0.00    +0.000 A 
ATOM     34  C   UNL     1      -7.023  -6.954   2.719  0.00  0.00    +0.006 A 
ENDBRANCH  28  29
BRANCH  28  35
ATOM     35  O   UNL     1      -4.688  -5.672   0.279  0.00  0.00    -0.385 OA
ATOM     36  H   UNL     1      -5.169  -5.002  -0.226  0.00  0.00    +0.210 HD
ENDBRANCH  28  35
ENDBRANCH  27  28
ENDBRANCH  22  27
ENDBRANCH   1  23
BRANCH   1  37
ATOM     37  C   UNL     1      -0.681  -4.330   3.569  0.00  0.00    +0.035 C 
BRANCH  37  38
ATOM     38  C   UNL     1       0.816  -4.054   3.417  0.00  0.00    -0.015 C 
ATOM     39  C   UNL     1       1.297  -3.195   4.588  0.00  0.00    +0.007 C 
ATOM     40  C   UNL     1       1.581  -5.379   3.407  0.00  0.00    +0.007 C 
ENDBRANCH  37  38
ENDBRANCH   1  37
TORSDOF 9
