REMARK  Name = ZINC01895127
REMARK  6 active torsions:
REMARK  status: ('A' for Active; 'I' for Inactive)
REMARK    1  A    between atoms: C_1  and  C_2
REMARK    2  A    between atoms: C_9  and  N_13
REMARK    3  A    between atoms: C_10  and  C_11
REMARK    4  A    between atoms: C_14  and  C_16
REMARK    5  A    between atoms: C_16  and  S_17
REMARK    6  A    between atoms: S_17  and  C_18
REMARK                            x       y       z     vdW  Elec       q    Type
REMARK                         _______ _______ _______ _____ _____    ______ ____
ROOT
ATOM      1  N   UNL     1       1.931  -5.847  -1.734  0.00  0.00    -0.278 N 
ATOM      2  C   UNL     1       2.229  -6.109  -3.022  0.00  0.00    +0.228 C 
ATOM      3  O   UNL     1       2.201  -5.218  -3.844  0.00  0.00    -0.275 OA
ATOM      4  H   UNL     1       1.953  -6.559  -1.076  0.00  0.00    +0.155 HD
ENDROOT
BRANCH   1  12
ATOM      5  C   UNL     1      -0.019   1.526   0.010  0.00  0.00    +0.008 C 
ATOM      6  C   UNL     1       0.002  -0.004   0.002  0.00  0.00    -0.009 C 
ATOM      7  C   UNL     1       0.742  -0.514   1.242  0.00  0.00    +0.008 C 
ATOM      8  C   UNL     1       0.556  -2.027   1.373  0.00  0.00    +0.037 C 
ATOM      9  C   UNL     1       0.941  -2.684   0.054  0.00  0.00    -0.018 A 
ATOM     10  C   UNL     1       1.008  -1.965  -1.089  0.00  0.00    -0.004 A 
ATOM     11  S   UNL     1       1.485  -3.134  -2.331  0.00  0.00    -0.077 S 
ATOM     12  C   UNL     1       1.593  -4.557  -1.349  0.00  0.00    +0.090 A 
ATOM     13  C   UNL     1       1.258  -4.095  -0.084  0.00  0.00    +0.084 A 
ATOM     14  C   UNL     1       0.736  -0.502  -1.252  0.00  0.00    +0.046 C 
BRANCH  13  15
ATOM     15  C   UNL     1       1.226  -4.977   1.044  0.00  0.00    +0.102 C 
ATOM     16  N   UNL     1       1.200  -5.676   1.938  0.00  0.00    -0.191 NA
ENDBRANCH  13  15
ENDBRANCH   1  12
BRANCH   2  17
ATOM     17  C   UNL     1       2.596  -7.510  -3.440  0.00  0.00    +0.172 C 
BRANCH  17  18
ATOM     18  S   UNL     1       2.939  -7.538  -5.217  0.00  0.00    -0.096 S 
BRANCH  18  19
ATOM     19  C   UNL     1       3.329  -9.244  -5.426  0.00  0.00    +0.109 A 
ATOM     20  C   UNL     1       3.671  -9.754  -6.710  0.00  0.00    +0.043 A 
ATOM     21  C   UNL     1       3.771  -9.038  -7.983  0.00  0.00    -0.025 A 
ATOM     22  C   UNL     1       4.125  -9.760  -9.065  0.00  0.00    -0.004 A 
ATOM     23  S   UNL     1       4.350 -11.413  -8.464  0.00  0.00    -0.073 S 
ATOM     24  C   UNL     1       3.968 -11.130  -6.755  0.00  0.00    +0.113 A 
ATOM     25  N   UNL     1       3.918 -11.882  -5.673  0.00  0.00    -0.228 NA
ATOM     26  C   UNL     1       3.590 -11.354  -4.510  0.00  0.00    +0.223 A 
ATOM     27  N   UNL     1       3.304 -10.070  -4.391  0.00  0.00    -0.229 NA
ATOM     28  C   UNL     1       4.291  -9.268 -10.470  0.00  0.00    +0.043 C 
ATOM     29  C   UNL     1       3.639  -7.882 -10.579  0.00  0.00    +0.005 C 
ATOM     30  C   UNL     1       4.108  -7.025  -9.400  0.00  0.00    +0.005 C 
ATOM     31  C   UNL     1       3.487  -7.543  -8.102  0.00  0.00    +0.037 C 
ENDBRANCH  18  19
ENDBRANCH  17  18
ENDBRANCH   2  17
TORSDOF 5
