REMARK  Name = ZINC39711542
REMARK  14 active torsions:
REMARK  status: ('A' for Active; 'I' for Inactive)
REMARK    1  A    between atoms: C_1  and  C_2
REMARK    2  A    between atoms: C_2  and  O_3
REMARK    3  A    between atoms: O_3  and  C_4
REMARK    4  A    between atoms: C_11  and  C_16
REMARK    5  A    between atoms: C_16  and  C_18
REMARK    6  A    between atoms: C_16  and  N_28
REMARK    7  A    between atoms: N_23  and  C_24
REMARK    8  A    between atoms: C_24  and  C_25
REMARK    9  A    between atoms: C_24  and  C_26
REMARK   10  A    between atoms: C_24  and  C_27
REMARK   11  A    between atoms: N_28  and  C_29
REMARK   12  A    between atoms: N_28  and  C_35
REMARK   13  A    between atoms: C_29  and  C_30
REMARK   14  A    between atoms: C_35  and  C_36
REMARK                            x       y       z     vdW  Elec       q    Type
REMARK                         _______ _______ _______ _____ _____    ______ ____
ROOT
ATOM      1  C   UNL     1       1.714  -6.846   4.807  0.00  0.00    -0.008 C 
ENDROOT
BRANCH   1   9
ATOM      2  C   UNL     1      -1.155  -2.974   1.510  0.00  0.00    +0.121 A 
ATOM      3  C   UNL     1      -1.393  -3.929   0.514  0.00  0.00    +0.047 A 
ATOM      4  C   UNL     1      -0.767  -5.133   0.491  0.00  0.00    +0.027 A 
ATOM      5  C   UNL     1       0.166  -5.475   1.489  0.00  0.00    +0.041 A 
ATOM      6  N   UNL     1       0.773  -6.661   1.453  0.00  0.00    -0.285 N 
ATOM      7  C   UNL     1       1.659  -7.046   2.357  0.00  0.00    +0.223 C 
ATOM      8  O   UNL     1       2.181  -8.142   2.271  0.00  0.00    -0.275 OA
ATOM      9  C   UNL     1       2.020  -6.119   3.495  0.00  0.00    +0.088 C 
ATOM     10  C   UNL     1       1.332  -4.769   3.540  0.00  0.00    -0.006 C 
ATOM     11  C   UNL     1       0.438  -4.490   2.550  0.00  0.00    -0.004 A 
ATOM     12  C   UNL     1      -0.265  -3.207   2.515  0.00  0.00    +0.055 A 
ATOM     13  H   UNL     1       0.555  -7.270   0.731  0.00  0.00    +0.155 HD
BRANCH   2  14
ATOM     14  O   UNL     1      -1.819  -1.789   1.469  0.00  0.00    -0.492 OA
BRANCH  14  16
ATOM     15  C   UNL     1      -3.385  -0.216   0.514  0.00  0.00    +0.048 C 
ATOM     16  C   UNL     1      -2.739  -1.597   0.393  0.00  0.00    +0.225 C 
ENDBRANCH  14  16
ENDBRANCH   2  14
ENDBRANCH   1   9
BRANCH   1  17
ATOM     17  C   UNL     1       2.368  -6.097   5.969  0.00  0.00    +0.205 C 
ATOM     18  N   UNL     1       1.868  -6.606   7.254  0.00  0.00    -0.152 NA
ATOM     19  N   UNL     1       1.306  -5.689   7.855  0.00  0.00    -0.070 NA
ATOM     20  N   UNL     1       1.320  -4.487   7.147  0.00  0.00    -0.179 N 
ATOM     21  N   UNL     1       1.973  -4.673   5.954  0.00  0.00    -0.183 NA
ATOM     22  H   UNL     1       0.930  -3.652   7.450  0.00  0.00    +0.191 HD
BRANCH  21  23
ATOM     23  C   UNL     1       3.151  -3.801   5.855  0.00  0.00    +0.035 C 
ATOM     24  C   UNL     1       3.998  -4.222   4.652  0.00  0.00    +0.029 C 
ATOM     25  C   UNL     1       2.698  -2.350   5.677  0.00  0.00    +0.029 C 
ATOM     26  C   UNL     1       3.984  -3.922   7.133  0.00  0.00    +0.029 C 
ENDBRANCH  21  23
ENDBRANCH   1  17
BRANCH   1  27
ATOM     27  N   UNL     1       2.244  -8.214   4.745  0.00  0.00    +0.392 N 
ATOM     28  H   UNL     1       1.839  -8.696   3.957  0.00  0.00    -0.080 HD
BRANCH  27  29
ATOM     29  C   UNL     1       3.704  -8.166   4.591  0.00  0.00    -0.002 C 
BRANCH  29  30
ATOM     30  C   UNL     1       4.233  -9.561   4.378  0.00  0.00    +0.089 A 
ATOM     31  C   UNL     1       4.397 -10.168   3.189  0.00  0.00    +0.042 A 
ATOM     32  C   UNL     1       4.913 -11.457   3.455  0.00  0.00    +0.041 A 
ATOM     33  C   UNL     1       5.034 -11.561   4.790  0.00  0.00    +0.195 A 
ATOM     34  O   UNL     1       4.626 -10.408   5.344  0.00  0.00    -0.470 OA
ENDBRANCH  29  30
ENDBRANCH  27  29
BRANCH  27  35
ATOM     35  C   UNL     1       1.905  -8.927   5.983  0.00  0.00    -0.034 C 
BRANCH  35  36
ATOM     36  C   UNL     1       0.408  -9.048   6.099  0.00  0.00    -0.027 A 
ATOM     37  C   UNL     1      -0.398 -10.069   5.718  0.00  0.00    +0.009 A 
ATOM     38  C   UNL     1      -1.760  -9.961   5.926  0.00  0.00    +0.008 A 
ATOM     39  C   UNL     1      -2.250  -8.838   6.505  0.00  0.00    +0.045 A 
ATOM     40  S   UNL     1      -0.764  -7.888   6.782  0.00  0.00    -0.103 S 
ENDBRANCH  35  36
ENDBRANCH  27  35
ENDBRANCH   1  27
TORSDOF 10
