REMARK  Name = ZINC41584814
REMARK  7 active torsions:
REMARK  status: ('A' for Active; 'I' for Inactive)
REMARK    1  A    between atoms: C_1  and  O_2
REMARK    2  A    between atoms: O_2  and  C_3
REMARK    3  A    between atoms: C_8  and  O_9
REMARK    4  A    between atoms: O_9  and  C_10
REMARK    5  A    between atoms: C_19  and  O_38
REMARK    6  A    between atoms: C_20  and  C_21
REMARK    7  A    between atoms: C_21  and  N_22
REMARK                            x       y       z     vdW  Elec       q    Type
REMARK                         _______ _______ _______ _____ _____    ______ ____
ROOT
ATOM      1  C   UNL     1       0.184  -4.112  -0.152  0.00  0.00    +0.210 A 
ATOM      2  C   UNL     1       0.844  -4.750  -1.138  0.00  0.00    +0.245 A 
ATOM      3  O   UNL     1       0.947  -6.084  -1.197  0.00  0.00    -0.459 OA
ATOM      4  C   UNL     1       0.396  -6.893  -0.270  0.00  0.00    +0.143 A 
ATOM      5  C   UNL     1      -0.318  -6.336   0.806  0.00  0.00    +0.068 A 
ATOM      6  C   UNL     1      -0.433  -4.870   0.884  0.00  0.00    +0.235 A 
ATOM      7  O   UNL     1      -1.035  -4.327   1.796  0.00  0.00    -0.283 OA
ATOM      8  C   UNL     1      -0.892  -7.163   1.773  0.00  0.00    +0.019 A 
ATOM      9  C   UNL     1      -0.759  -8.518   1.670  0.00  0.00    +0.046 A 
ATOM     10  C   UNL     1      -0.054  -9.079   0.607  0.00  0.00    +0.122 A 
ATOM     11  C   UNL     1       0.521  -8.272  -0.360  0.00  0.00    +0.020 A 
ENDROOT
BRANCH  10  12
ATOM     12  O   UNL     1       0.070 -10.428   0.518  0.00  0.00    -0.506 OA
ATOM     13  H   UNL     1      -0.639 -10.856   0.018  0.00  0.00    +0.292 HD
ENDBRANCH  10  12
BRANCH   1  14
ATOM     14  O   UNL     1       0.112  -2.753  -0.142  0.00  0.00    -0.445 OA
BRANCH  14  20
ATOM     15  C   UNL     1      -1.251  -0.798  -0.210  0.00  0.00    +0.162 A 
ATOM     16  C   UNL     1      -2.492  -0.215  -0.411  0.00  0.00    +0.049 A 
ATOM     17  C   UNL     1      -3.583  -1.004  -0.726  0.00  0.00    +0.004 A 
ATOM     18  C   UNL     1      -3.439  -2.374  -0.842  0.00  0.00    +0.004 A 
ATOM     19  C   UNL     1      -2.204  -2.962  -0.643  0.00  0.00    +0.050 A 
ATOM     20  C   UNL     1      -1.105  -2.177  -0.333  0.00  0.00    +0.170 A 
BRANCH  15  22
ATOM     21  C   UNL     1      -0.401   1.383   0.208  0.00  0.00    +0.277 C 
ATOM     22  O   UNL     1      -0.176  -0.024   0.099  0.00  0.00    -0.491 OA
ENDBRANCH  15  22
ENDBRANCH  14  20
ENDBRANCH   1  14
BRANCH  11  23
ATOM     23  C   UNL     1       1.282  -8.889  -1.506  0.00  0.00    -0.036 C 
BRANCH  23  24
ATOM     24  N   UNL     1       2.696  -9.031  -1.135  0.00  0.00    +0.383 N 
ATOM     25  C   UNL     1       3.409  -9.746  -2.197  0.00  0.00    -0.073 C 
ATOM     26  C   UNL     1       4.881  -9.915  -1.854  0.00  0.00    -0.007 C 
ATOM     27  C   UNL     1       5.532  -8.556  -1.579  0.00  0.00    +0.011 C 
ATOM     28  C   UNL     1       4.734  -7.884  -0.455  0.00  0.00    +0.020 C 
ATOM     29  C   UNL     1       3.289  -7.699  -0.946  0.00  0.00    -0.069 C 
ATOM     30  C   UNL     1       4.705  -8.801   0.747  0.00  0.00    +0.023 A 
ATOM     31  C   UNL     1       4.603  -8.226   1.974  0.00  0.00    +0.022 A 
ATOM     32  C   UNL     1       4.506  -9.017   3.124  0.00  0.00    +0.007 A 
ATOM     33  C   UNL     1       4.490 -10.374   2.990  0.00  0.00    +0.070 A 
ATOM     34  C   UNL     1       4.593 -10.935   1.710  0.00  0.00    +0.251 A 
ATOM     35  O   UNL     1       4.518 -12.146   1.573  0.00  0.00    -0.268 OA
ATOM     36  N   UNL     1       4.775 -10.147   0.622  0.00  0.00    -0.312 N 
ATOM     37  C   UNL     1       5.080 -10.810  -0.642  0.00  0.00    +0.126 C 
ATOM     38  H   UNL     1       2.766  -9.554  -0.274  0.00  0.00    -0.081 HD
ENDBRANCH  23  24
ENDBRANCH  11  23
TORSDOF 6
