REMARK  Name = ZINC16608088
REMARK  6 active torsions:
REMARK  status: ('A' for Active; 'I' for Inactive)
REMARK    1  A    between atoms: C_1  and  C_2
REMARK    2  A    between atoms: N_6  and  C_31
REMARK    3  A    between atoms: N_15  and  C_18
REMARK    4  A    between atoms: C_18  and  N_67
REMARK    5  A    between atoms: C_21  and  C_24
REMARK    6  A    between atoms: C_24  and  C_25
REMARK                            x       y       z     vdW  Elec       q    Type
REMARK                         _______ _______ _______ _____ _____    ______ ____
ROOT
ATOM      1  C   UNL     1      -9.783   1.735  -4.559  0.00  0.00    +0.029 C 
ATOM      2  C   UNL     1      -8.917   2.934  -4.169  0.00  0.00    +0.132 C 
ATOM      3  C   UNL     1      -8.200   2.690  -2.849  0.00  0.00    +0.234 C 
ATOM      4  O   UNL     1      -8.785   2.775  -1.790  0.00  0.00    -0.274 OA
ATOM      5  N   UNL     1      -6.905   2.379  -2.901  0.00  0.00    -0.243 N 
ATOM      6  C   UNL     1      -6.252   2.303  -4.203  0.00  0.00    +0.193 C 
ATOM      7  S   UNL     1      -7.473   3.114  -5.307  0.00  0.00    -0.108 S 
ATOM      8  C   UNL     1      -5.973   0.901  -4.650  0.00  0.00    +0.017 A 
ATOM      9  C   UNL     1      -6.753  -0.221  -4.818  0.00  0.00    +0.009 A 
ATOM     10  C   UNL     1      -6.184  -1.401  -5.261  0.00  0.00    +0.000 A 
ATOM     11  C   UNL     1      -4.829  -1.452  -5.535  0.00  0.00    +0.002 A 
ATOM     12  C   UNL     1      -4.043  -0.331  -5.368  0.00  0.00    +0.024 A 
ATOM     13  C   UNL     1      -4.608   0.863  -4.927  0.00  0.00    +0.041 A 
ATOM     14  N   UNL     1      -4.029   2.110  -4.679  0.00  0.00    -0.285 N 
ATOM     15  C   UNL     1      -4.934   3.014  -4.250  0.00  0.00    +0.257 C 
ATOM     16  O   UNL     1      -4.723   4.173  -3.962  0.00  0.00    -0.272 OA
ENDROOT
BRANCH   5  17
ATOM     17  C   UNL     1      -6.186   2.129  -1.727  0.00  0.00    +0.038 A 
ATOM     18  C   UNL     1      -5.731   0.847  -1.449  0.00  0.00    +0.023 A 
ATOM     19  C   UNL     1      -5.015   0.605  -0.293  0.00  0.00    +0.002 A 
ATOM     20  C   UNL     1      -4.761   1.636   0.593  0.00  0.00    +0.000 A 
ATOM     21  C   UNL     1      -5.218   2.913   0.323  0.00  0.00    +0.002 A 
ATOM     22  C   UNL     1      -5.929   3.162  -0.835  0.00  0.00    +0.023 A 
ENDBRANCH   5  17
BRANCH  14  23
ATOM     23  C   UNL     1      -2.606   2.403  -4.867  0.00  0.00    +0.038 C 
BRANCH  23  29
ATOM     24  C   UNL     1      -1.042   2.925  -6.640  0.00  0.00    -0.076 C 
ATOM     25  C   UNL     1      -0.838   3.779  -7.893  0.00  0.00    -0.015 C 
ATOM     26  C   UNL     1      -1.844   3.352  -8.966  0.00  0.00    -0.010 C 
ATOM     27  C   UNL     1      -3.263   3.496  -8.410  0.00  0.00    -0.015 C 
ATOM     28  C   UNL     1      -3.398   2.652  -7.141  0.00  0.00    -0.076 C 
ATOM     29  N   UNL     1      -2.419   3.128  -6.141  0.00  0.00    +0.390 N 
ATOM     30  H   UNL     1      -2.570   4.131  -5.979  0.00  0.00    -0.080 HD
BRANCH  26  31
ATOM     31  C   UNL     1      -1.685   4.243 -10.199  0.00  0.00    +0.038 C 
BRANCH  31  32
ATOM     32  C   UNL     1      -2.591   3.747 -11.297  0.00  0.00    -0.047 A 
ATOM     33  C   UNL     1      -2.129   2.812 -12.205  0.00  0.00    +0.003 A 
ATOM     34  C   UNL     1      -2.962   2.355 -13.209  0.00  0.00    +0.000 A 
ATOM     35  C   UNL     1      -4.253   2.839 -13.311  0.00  0.00    +0.000 A 
ATOM     36  C   UNL     1      -4.712   3.777 -12.406  0.00  0.00    +0.000 A 
ATOM     37  C   UNL     1      -3.881   4.232 -11.399  0.00  0.00    +0.003 A 
ENDBRANCH  31  32
ENDBRANCH  26  31
ENDBRANCH  23  29
ENDBRANCH  14  23
TORSDOF 5
