REMARK  Name = ZINC38646095
REMARK  10 active torsions:
REMARK  status: ('A' for Active; 'I' for Inactive)
REMARK    1  A    between atoms: C_1  and  C_2
REMARK    2  A    between atoms: C_4  and  C_12
REMARK    3  A    between atoms: C_6  and  C_9
REMARK    4  A    between atoms: C_7  and  O_8
REMARK    5  A    between atoms: C_12  and  C_24
REMARK    6  A    between atoms: C_15  and  C_23
REMARK    7  A    between atoms: C_18  and  C_20
REMARK    8  A    between atoms: C_27  and  N_31
REMARK    9  A    between atoms: N_31  and  C_32
REMARK   10  A    between atoms: N_31  and  C_33
REMARK                            x       y       z     vdW  Elec       q    Type
REMARK                         _______ _______ _______ _____ _____    ______ ____
ROOT
ATOM      1  C   UNL     1       0.027  -2.794  -2.491  0.00  0.00    -0.002 C 
ATOM      2  C   UNL     1       1.149  -3.578  -2.864  0.00  0.00    -0.015 C 
ATOM      3  C   UNL     1       1.145  -4.256  -4.099  0.00  0.00    +0.015 C 
ATOM      4  C   UNL     1       2.200  -5.012  -4.486  0.00  0.00    -0.002 C 
ATOM      5  C   UNL     1       3.330  -5.136  -3.652  0.00  0.00    +0.196 C 
ATOM      6  O   UNL     1       4.283  -5.818  -3.998  0.00  0.00    -0.287 OA
ATOM      7  C   UNL     1       3.348  -4.436  -2.364  0.00  0.00    +0.110 C 
ATOM      8  C   UNL     1       2.249  -3.664  -2.002  0.00  0.00    +0.027 C 
ATOM      9  C   UNL     1       2.166  -5.725  -5.813  0.00  0.00    +0.048 C 
ENDROOT
BRANCH   1  13
ATOM     10  C   UNL     1      -0.018   1.503   0.010  0.00  0.00    +0.047 C 
ATOM     11  C   UNL     1       0.002  -0.004   0.002  0.00  0.00    -0.008 A 
ATOM     12  C   UNL     1       0.006  -0.675  -1.186  0.00  0.00    +0.015 A 
ATOM     13  C   UNL     1       0.025  -2.079  -1.208  0.00  0.00    -0.015 A 
ATOM     14  C   UNL     1       0.040  -2.796  -0.008  0.00  0.00    +0.027 A 
ATOM     15  C   UNL     1       0.037  -2.108   1.204  0.00  0.00    +0.105 A 
ATOM     16  C   UNL     1       0.023  -0.701   1.205  0.00  0.00    +0.134 A 
BRANCH  15  17
ATOM     17  C   UNL     1       0.053  -2.850   2.476  0.00  0.00    +0.390 C 
ATOM     18  O   UNL     1       0.069  -4.073   2.471  0.00  0.00    -0.240 OA
ATOM     19  O   UNL     1       0.050  -2.242   3.538  0.00  0.00    -0.240 OA
ENDBRANCH  15  17
BRANCH  16  20
ATOM     20  O   UNL     1       0.024  -0.026   2.378  0.00  0.00    -0.506 OA
ATOM     21  H   UNL     1      -0.858   0.158   2.727  0.00  0.00    +0.292 HD
ENDBRANCH  16  20
ENDBRANCH   1  13
BRANCH   1  22
ATOM     22  C   UNL     1      -1.129  -2.698  -3.386  0.00  0.00    +0.002 A 
ATOM     23  C   UNL     1      -2.311  -3.394  -3.086  0.00  0.00    +0.012 A 
ATOM     24  C   UNL     1      -3.385  -3.302  -3.922  0.00  0.00    +0.024 A 
ATOM     25  C   UNL     1      -3.310  -2.517  -5.074  0.00  0.00    +0.031 A 
ATOM     26  C   UNL     1      -2.140  -1.824  -5.377  0.00  0.00    +0.043 A 
ATOM     27  C   UNL     1      -1.061  -1.905  -4.543  0.00  0.00    +0.050 A 
ATOM     28 CL   UNL     1       0.394  -1.035  -4.917  0.00  0.00    -0.083 Cl
BRANCH  25  29
ATOM     29  N   UNL     1      -4.405  -2.427  -5.920  0.00  0.00    -0.336 N 
ATOM     30  C   UNL     1      -5.637  -3.155  -5.605  0.00  0.00    +0.129 C 
ATOM     31  C   UNL     1      -4.331  -1.604  -7.130  0.00  0.00    +0.129 C 
ENDBRANCH  25  29
ENDBRANCH   1  22
BRANCH   7  32
ATOM     32  C   UNL     1       4.508  -4.545  -1.473  0.00  0.00    +0.390 C 
ATOM     33  O   UNL     1       4.513  -3.957  -0.399  0.00  0.00    -0.240 OA
ATOM     34  O   UNL     1       5.472  -5.225  -1.803  0.00  0.00    -0.240 OA
ENDBRANCH   7  32
TORSDOF 6
