REMARK  Name = ZINC36635927
REMARK  10 active torsions:
REMARK  status: ('A' for Active; 'I' for Inactive)
REMARK    1  A    between atoms: C_1  and  C_2
REMARK    2  A    between atoms: C_3  and  C_23
REMARK    3  A    between atoms: C_4  and  C_14
REMARK    4  A    between atoms: C_5  and  C_8
REMARK    5  A    between atoms: N_9  and  N_10
REMARK    6  A    between atoms: N_10  and  C_11
REMARK    7  A    between atoms: C_11  and  N_13
REMARK    8  A    between atoms: C_14  and  C_15
REMARK    9  A    between atoms: C_23  and  O_25
REMARK   10  A    between atoms: O_25  and  C_26
REMARK                            x       y       z     vdW  Elec       q    Type
REMARK                         _______ _______ _______ _____ _____    ______ ____
ROOT
ATOM      1  C   UNL     1      -0.675   1.636  -0.193  0.00  0.00    +0.064 C 
ATOM      2  C   UNL     1      -0.430   0.170   0.055  0.00  0.00    +0.028 A 
ATOM      3  C   UNL     1       0.046  -0.737  -0.869  0.00  0.00    +0.083 A 
ATOM      4  C   UNL     1       0.124  -1.993  -0.215  0.00  0.00    -0.003 A 
ATOM      5  C   UNL     1      -0.302  -1.803   1.065  0.00  0.00    +0.064 A 
ATOM      6  N   UNL     1      -0.633  -0.477   1.220  0.00  0.00    -0.356 N 
ATOM      7  H   UNL     1      -0.963  -0.072   2.037  0.00  0.00    +0.166 HD
ENDROOT
BRANCH   5   8
ATOM      8  C   UNL     1      -0.389  -2.837   2.103  0.00  0.00    +0.156 C 
ATOM      9  N   UNL     1       0.045  -4.039   1.862  0.00  0.00    -0.187 NA
BRANCH   9  10
ATOM     10  N   UNL     1       0.056  -4.998   2.884  0.00  0.00    -0.219 N 
ATOM     11  H   UNL     1      -0.329  -4.789   3.749  0.00  0.00    +0.176 HD
BRANCH  10  12
ATOM     12  C   UNL     1       0.600  -6.211   2.663  0.00  0.00    +0.147 C 
ATOM     13  S   UNL     1       0.508  -7.422   3.869  0.00  0.00    -0.017 S 
BRANCH  12  14
ATOM     14  N   UNL     1       1.216  -6.471   1.493  0.00  0.00    -0.339 N 
ATOM     15  H   UNL     1       1.330  -5.765   0.838  0.00  0.00    +0.144 HD
ATOM     16  H   UNL     1       1.547  -7.363   1.307  0.00  0.00    +0.144 HD
ENDBRANCH  12  14
ENDBRANCH  10  12
ENDBRANCH   9  10
ENDBRANCH   5   8
BRANCH   3  17
ATOM     17  C   UNL     1       0.405  -0.455  -2.268  0.00  0.00    +0.341 C 
ATOM     18  O   UNL     1       1.562  -0.228  -2.565  0.00  0.00    -0.245 OA
BRANCH  17  19
ATOM     19  O   UNL     1      -0.548  -0.448  -3.220  0.00  0.00    -0.464 OA
ATOM     20  C   UNL     1      -0.151  -0.048  -4.533  0.00  0.00    +0.280 C 
ENDBRANCH  17  19
ENDBRANCH   3  17
BRANCH   4  21
ATOM     21  C   UNL     1       0.590  -3.292  -0.822  0.00  0.00    +0.074 C 
BRANCH  21  22
ATOM     22  C   UNL     1      -0.560  -3.951  -1.540  0.00  0.00    -0.023 A 
ATOM     23  C   UNL     1      -1.554  -4.583  -0.817  0.00  0.00    +0.025 A 
ATOM     24  C   UNL     1      -2.609  -5.189  -1.476  0.00  0.00    +0.041 A 
ATOM     25  C   UNL     1      -2.668  -5.162  -2.858  0.00  0.00    +0.021 A 
ATOM     26  C   UNL     1      -1.674  -4.530  -3.581  0.00  0.00    +0.022 A 
ATOM     27  C   UNL     1      -0.622  -3.920  -2.921  0.00  0.00    +0.045 A 
ATOM     28 CL   UNL     1       0.624  -3.120  -3.828  0.00  0.00    -0.083 Cl
ATOM     29 CL   UNL     1      -3.858  -5.982  -0.569  0.00  0.00    -0.084 Cl
ENDBRANCH  21  22
ENDBRANCH   4  21
TORSDOF 8
