REMARK  Name = ZINC51858766
REMARK  5 active torsions:
REMARK  status: ('A' for Active; 'I' for Inactive)
REMARK    1  A    between atoms: C_5  and  O_10
REMARK    2  A    between atoms: C_6  and  N_7
REMARK    3  A    between atoms: O_10  and  C_11
REMARK    4  A    between atoms: C_11  and  C_12
REMARK    5  A    between atoms: C_13  and  C_14
REMARK                            x       y       z     vdW  Elec       q    Type
REMARK                         _______ _______ _______ _____ _____    ______ ____
ROOT
ATOM      1  C   UNL     1      -0.017   1.377   0.010  0.00  0.00    +0.056 A 
ATOM      2  C   UNL     1       1.171   2.087   0.002  0.00  0.00    +0.044 A 
ATOM      3  C   UNL     1       2.381   1.414  -0.014  0.00  0.00    +0.039 A 
ATOM      4  C   UNL     1       2.404   0.032  -0.022  0.00  0.00    +0.063 A 
ATOM      5  C   UNL     1       1.213  -0.680  -0.014  0.00  0.00    +0.165 A 
ATOM      6  C   UNL     1       0.002  -0.004   0.002  0.00  0.00    +0.170 A 
ATOM      7 BR   UNL     1       4.056  -0.886  -0.044  0.00  0.00    -0.046 Br
ATOM      8 CL   UNL     1       1.145   3.822   0.012  0.00  0.00    -0.083 Cl
ENDROOT
BRANCH   6   9
ATOM      9  N   UNL     1      -1.269  -0.762   0.010  0.00  0.00    +0.060 N 
ATOM     10  O   UNL     1      -2.325  -0.172   0.023  0.00  0.00    -0.126 OA
ATOM     11  O   UNL     1      -1.253  -1.971   0.004  0.00  0.00    -0.126 OA
ENDBRANCH   6   9
BRANCH   5  12
ATOM     12  O   UNL     1       1.233  -2.040  -0.022  0.00  0.00    -0.485 OA
BRANCH  12  13
ATOM     13  C   UNL     1       1.256  -2.696   1.247  0.00  0.00    +0.257 C 
BRANCH  13  14
ATOM     14  C   UNL     1       1.276  -4.189   1.040  0.00  0.00    +0.021 C 
ATOM     15  C   UNL     1       2.111  -4.948   1.749  0.00  0.00    +0.095 C 
BRANCH  15  16
ATOM     16  C   UNL     1       2.131  -6.401   1.548  0.00  0.00    +0.379 C 
ATOM     17  O   UNL     1       1.381  -6.916   0.729  0.00  0.00    -0.241 OA
ATOM     18  O   UNL     1       2.897  -7.099   2.198  0.00  0.00    -0.241 OA
ENDBRANCH  15  16
ENDBRANCH  13  14
ENDBRANCH  12  13
ENDBRANCH   5  12
TORSDOF 5
