REMARK  Name = ZINC39561220
REMARK  8 active torsions:
REMARK  status: ('A' for Active; 'I' for Inactive)
REMARK    1  A    between atoms: C_6  and  N_7
REMARK    2  A    between atoms: C_8  and  C_10
REMARK    3  A    between atoms: C_10  and  N_11
REMARK    4  A    between atoms: C_12  and  C_14
REMARK    5  A    between atoms: C_14  and  O_15
REMARK    6  A    between atoms: O_15  and  C_16
REMARK    7  A    between atoms: C_16  and  C_18
REMARK    8  A    between atoms: C_20  and  N_26
REMARK                            x       y       z     vdW  Elec       q    Type
REMARK                         _______ _______ _______ _____ _____    ______ ____
ROOT
ATOM      1  N   UNL     1      -4.785   0.085   0.362  0.00  0.00    -0.304 N 
ATOM      2  C   UNL     1      -6.042  -0.387   0.483  0.00  0.00    +0.251 C 
ATOM      3  O   UNL     1      -6.241  -1.583   0.497  0.00  0.00    -0.272 OA
ATOM      4  H   UNL     1      -4.625   1.042   0.350  0.00  0.00    +0.149 HD
ENDROOT
BRANCH   1   5
ATOM      5  C   UNL     1      -3.660  -0.846   0.249  0.00  0.00    +0.200 C 
BRANCH   5   7
ATOM      6  N   UNL     1      -1.201  -0.722   0.010  0.00  0.00    -0.282 N 
ATOM      7  C   UNL     1      -2.375  -0.070   0.127  0.00  0.00    +0.234 C 
ATOM      8  O   UNL     1      -2.396   1.143   0.134  0.00  0.00    -0.274 OA
ATOM      9  H   UNL     1      -1.190  -1.688  -0.076  0.00  0.00    +0.155 HD
BRANCH   6  15
ATOM     10  C   UNL     1       0.069   1.238   0.627  0.00  0.00    +0.029 A 
ATOM     11  C   UNL     1       1.257   1.944   0.630  0.00  0.00    +0.043 A 
ATOM     12  C   UNL     1       2.382   1.415   0.021  0.00  0.00    +0.161 A 
ATOM     13  C   UNL     1       2.320   0.173  -0.593  0.00  0.00    +0.195 A 
ATOM     14  C   UNL     1       1.132  -0.538  -0.598  0.00  0.00    +0.182 A 
ATOM     15  C   UNL     1       0.003  -0.005   0.013  0.00  0.00    +0.072 A 
ATOM     16  F   UNL     1       1.070  -1.748  -1.196  0.00  0.00    -0.200 F 
ATOM     17  F   UNL     1       3.418  -0.343  -1.187  0.00  0.00    -0.199 F 
ATOM     18  F   UNL     1       3.541   2.108   0.026  0.00  0.00    -0.202 F 
ENDBRANCH   6  15
ENDBRANCH   5   7
ENDBRANCH   1   5
BRANCH   2  19
ATOM     19  C   UNL     1      -7.199   0.572   0.599  0.00  0.00    +0.328 C 
BRANCH  19  20
ATOM     20  O   UNL     1      -8.418  -0.165   0.715  0.00  0.00    -0.451 OA
BRANCH  20  21
ATOM     21  C   UNL     1      -9.555   0.548   0.829  0.00  0.00    +0.360 C 
ATOM     22  O   UNL     1      -9.513   1.762   0.829  0.00  0.00    -0.243 OA
BRANCH  21  23
ATOM     23  C   UNL     1     -10.855  -0.147   0.952  0.00  0.00    +0.169 A 
ATOM     24  C   UNL     1     -12.027   0.596   1.063  0.00  0.00    +0.095 A 
ATOM     25  C   UNL     1     -13.245  -0.075   1.179  0.00  0.00    +0.067 A 
ATOM     26  C   UNL     1     -13.235  -1.469   1.178  0.00  0.00    +0.100 A 
ATOM     27  C   UNL     1     -12.026  -2.138   1.063  0.00  0.00    +0.150 A 
ATOM     28  N   UNL     1     -10.893  -1.476   0.951  0.00  0.00    -0.226 NA
ATOM     29 CL   UNL     1     -12.007  -3.874   1.061  0.00  0.00    -0.060 Cl
ATOM     30 CL   UNL     1     -14.720  -2.357   1.319  0.00  0.00    -0.078 Cl
ATOM     31 CL   UNL     1     -11.973   2.331   1.059  0.00  0.00    -0.079 Cl
BRANCH  25  32
ATOM     32  N   UNL     1     -14.441   0.630   1.293  0.00  0.00    -0.356 N 
ATOM     33  H   UNL     1     -14.434   1.600   1.293  0.00  0.00    +0.142 HD
ATOM     34  H   UNL     1     -15.280   0.152   1.373  0.00  0.00    +0.142 HD
ENDBRANCH  25  32
ENDBRANCH  21  23
ENDBRANCH  20  21
ENDBRANCH  19  20
ENDBRANCH   2  19
TORSDOF 8
