REMARK  Name = ZINC05224674
REMARK  2 active torsions:
REMARK  status: ('A' for Active; 'I' for Inactive)
REMARK    1  A    between atoms: C_4  and  C_7
REMARK    2  A    between atoms: C_12  and  C_22
REMARK                            x       y       z     vdW  Elec       q    Type
REMARK                         _______ _______ _______ _____ _____    ______ ____
ROOT
ATOM      1  C   UNL     1      -0.202   1.166  -0.129  0.00  0.00    +0.032 C 
ATOM      2  C   UNL     1      -0.848   1.622  -1.436  0.00  0.00    +0.059 C 
ATOM      3  C   UNL     1      -0.042   1.109  -2.619  0.00  0.00    +0.017 C 
ATOM      4  C   UNL     1       1.290   0.968  -2.524  0.00  0.00    +0.036 C 
ATOM      5  C   UNL     1       2.212   0.494  -3.623  0.00  0.00    +0.138 C 
ATOM      6  N   UNL     1       1.534  -0.073  -4.770  0.00  0.00    -0.331 N 
ATOM      7  C   UNL     1       0.703   0.707  -5.573  0.00  0.00    +0.049 A 
ATOM      8  C   UNL     1       1.045   1.017  -6.879  0.00  0.00    +0.025 A 
ATOM      9  C   UNL     1       0.244   1.882  -7.605  0.00  0.00    +0.002 A 
ATOM     10  C   UNL     1      -0.889   2.432  -7.033  0.00  0.00    +0.002 A 
ATOM     11  C   UNL     1      -1.245   2.107  -5.735  0.00  0.00    +0.025 A 
ATOM     12  C   UNL     1      -0.454   1.229  -5.015  0.00  0.00    +0.052 A 
ATOM     13  N   UNL     1      -0.777   0.826  -3.724  0.00  0.00    -0.316 N 
ATOM     14  C   UNL     1       1.955   1.274  -1.313  0.00  0.00    +0.163 C 
ATOM     15  O   UNL     1       3.164   1.159  -1.263  0.00  0.00    -0.292 OA
ATOM     16  C   UNL     1       1.222   1.734  -0.089  0.00  0.00    +0.088 C 
ATOM     17  H   UNL     1       1.660  -1.010  -4.983  0.00  0.00    +0.147 HD
ATOM     18  H   UNL     1      -1.586   0.304  -3.605  0.00  0.00    +0.152 HD
ENDROOT
BRANCH   5  19
ATOM     19  C   UNL     1       3.042   1.662  -4.088  0.00  0.00    +0.002 A 
ATOM     20  C   UNL     1       2.796   2.961  -3.853  0.00  0.00    +0.089 A 
ATOM     21  N   UNL     1       3.767   3.732  -4.431  0.00  0.00    -0.360 N 
ATOM     22  H   UNL     1       3.803   4.701  -4.397  0.00  0.00    +0.165 HD
ATOM     23  C   UNL     1       4.686   2.928  -5.067  0.00  0.00    +0.047 A 
ATOM     24  C   UNL     1       4.275   1.596  -4.875  0.00  0.00    +0.005 A 
ATOM     25  C   UNL     1       5.029   0.551  -5.412  0.00  0.00    +0.010 A 
ATOM     26  C   UNL     1       6.165   0.827  -6.120  0.00  0.00    +0.001 A 
ATOM     27  C   UNL     1       6.576   2.139  -6.309  0.00  0.00    +0.002 A 
ATOM     28  C   UNL     1       5.843   3.186  -5.794  0.00  0.00    +0.026 A 
ENDBRANCH   5  19
BRANCH   1  32
ATOM     29  C   UNL     1      -2.445   2.644   3.192  0.00  0.00    +0.000 A 
ATOM     30  C   UNL     1      -2.267   1.283   3.029  0.00  0.00    +0.000 A 
ATOM     31  C   UNL     1      -1.541   0.804   1.954  0.00  0.00    +0.004 A 
ATOM     32  C   UNL     1      -0.993   1.687   1.042  0.00  0.00    -0.044 A 
ATOM     33  C   UNL     1      -1.167   3.048   1.208  0.00  0.00    +0.004 A 
ATOM     34  C   UNL     1      -1.897   3.526   2.280  0.00  0.00    +0.000 A 
ENDBRANCH   1  32
TORSDOF 2
