REMARK  Name = ZINC00886042
REMARK  10 active torsions:
REMARK  status: ('A' for Active; 'I' for Inactive)
REMARK    1  A    between atoms: C_1  and  C_2
REMARK    2  A    between atoms: C_5  and  C_7
REMARK    3  A    between atoms: N_10  and  C_12
REMARK    4  A    between atoms: C_12  and  C_13
REMARK    5  A    between atoms: N_15  and  C_16
REMARK    6  A    between atoms: N_15  and  C_26
REMARK    7  A    between atoms: C_16  and  C_17
REMARK    8  A    between atoms: C_26  and  C_28
REMARK    9  A    between atoms: C_26  and  C_35
REMARK   10  A    between atoms: N_37  and  C_38
REMARK                            x       y       z     vdW  Elec       q    Type
REMARK                         _______ _______ _______ _____ _____    ______ ____
ROOT
ATOM      1  C   UNL     1       0.067  -2.605   1.345  0.00  0.00    +0.240 C 
ATOM      2  O   UNL     1      -0.574  -1.724   0.811  0.00  0.00    -0.273 OA
ATOM      3  N   UNL     1       1.119  -2.293   2.127  0.00  0.00    -0.280 N 
ENDROOT
BRANCH   1   4
ATOM      4  C   UNL     1      -0.314  -4.047   1.133  0.00  0.00    +0.264 C 
BRANCH   4   8
ATOM      5  C   UNL     1      -3.229  -4.195  -0.853  0.00  0.00    +0.239 A 
ATOM      6  N   UNL     1      -2.265  -4.305  -1.780  0.00  0.00    -0.105 NA
ATOM      7  N   UNL     1      -1.133  -4.263  -1.162  0.00  0.00    -0.045 NA
ATOM      8  N   UNL     1      -1.350  -4.132   0.100  0.00  0.00    -0.154 N 
ATOM      9  N   UNL     1      -2.620  -4.082   0.313  0.00  0.00    -0.127 NA
BRANCH   5  14
ATOM     10  C   UNL     1      -8.175  -4.015  -0.015  0.00  0.00    +0.086 C 
ATOM     11  C   UNL     1      -6.853  -4.115  -0.730  0.00  0.00    +0.103 A 
ATOM     12  C   UNL     1      -6.687  -4.259  -2.059  0.00  0.00    +0.045 A 
ATOM     13  C   UNL     1      -5.299  -4.309  -2.299  0.00  0.00    +0.053 A 
ATOM     14  C   UNL     1      -4.689  -4.192  -1.091  0.00  0.00    +0.175 A 
ATOM     15  O   UNL     1      -5.643  -4.069  -0.149  0.00  0.00    -0.457 OA
ENDBRANCH   5  14
ENDBRANCH   4   8
ENDBRANCH   1   4
BRANCH   3  16
ATOM     16  C   UNL     1       1.958  -3.357   2.684  0.00  0.00    +0.144 C 
BRANCH  16  17
ATOM     17  C   UNL     1       1.196  -4.087   3.760  0.00  0.00    -0.026 A 
ATOM     18  C   UNL     1       0.068  -3.513   4.316  0.00  0.00    +0.009 A 
ATOM     19  C   UNL     1      -0.635  -4.178   5.304  0.00  0.00    +0.050 A 
ATOM     20  C   UNL     1      -0.209  -5.423   5.739  0.00  0.00    +0.166 A 
ATOM     21  C   UNL     1       0.928  -6.001   5.178  0.00  0.00    +0.167 A 
ATOM     22  C   UNL     1       1.623  -5.331   4.185  0.00  0.00    +0.054 A 
ATOM     23  O   UNL     1       1.137  -7.214   5.769  0.00  0.00    -0.453 OA
ATOM     24  C   UNL     1       0.357  -7.191   6.979  0.00  0.00    +0.466 C 
ATOM     25  O   UNL     1      -0.712  -6.273   6.681  0.00  0.00    -0.453 OA
ENDBRANCH  16  17
ENDBRANCH   3  16
BRANCH   3  26
ATOM     26  C   UNL     1       1.423  -0.891   2.422  0.00  0.00    +0.193 C 
BRANCH  26  27
ATOM     27  C   UNL     1       2.604  -0.449   1.596  0.00  0.00    -0.018 A 
ATOM     28  C   UNL     1       3.685  -1.295   1.430  0.00  0.00    +0.009 A 
ATOM     29  C   UNL     1       4.769  -0.891   0.673  0.00  0.00    +0.038 A 
ATOM     30  C   UNL     1       4.771   0.361   0.081  0.00  0.00    +0.123 A 
ATOM     31  C   UNL     1       3.688   1.206   0.248  0.00  0.00    +0.038 A 
ATOM     32  C   UNL     1       2.603   0.798   1.001  0.00  0.00    +0.009 A 
ATOM     33  F   UNL     1       5.830   0.756  -0.659  0.00  0.00    -0.205 F 
ENDBRANCH  26  27
BRANCH  26  34
ATOM     34  C   UNL     1       1.750  -0.744   3.885  0.00  0.00    +0.238 C 
ATOM     35  O   UNL     1       2.618  -1.429   4.384  0.00  0.00    -0.273 OA
ATOM     36  N   UNL     1       1.079   0.148   4.640  0.00  0.00    -0.311 N 
ATOM     37  H   UNL     1       0.385   0.696   4.241  0.00  0.00    +0.149 HD
BRANCH  36  38
ATOM     38  C   UNL     1       1.397   0.291   6.063  0.00  0.00    +0.073 C 
ATOM     39  C   UNL     1       0.566  -0.709   6.893  0.00  0.00    +0.022 C 
ATOM     40  C   UNL     1       0.216   0.069   8.186  0.00  0.00    +0.002 C 
ATOM     41  C   UNL     1      -0.045   1.503   7.662  0.00  0.00    +0.002 C 
ATOM     42  C   UNL     1       1.009   1.697   6.551  0.00  0.00    +0.022 C 
ENDBRANCH  36  38
ENDBRANCH  26  34
ENDBRANCH   3  26
TORSDOF 9
