REMARK  Name = ZINC22472523
REMARK  8 active torsions:
REMARK  status: ('A' for Active; 'I' for Inactive)
REMARK    1  A    between atoms: C_1  and  C_2
REMARK    2  A    between atoms: C_6  and  O_8
REMARK    3  A    between atoms: O_8  and  C_9
REMARK    4  A    between atoms: C_9  and  C_10
REMARK    5  A    between atoms: N_15  and  C_18
REMARK    6  A    between atoms: C_18  and  C_19
REMARK    7  A    between atoms: C_19  and  N_20
REMARK    8  A    between atoms: C_23  and  O_24
REMARK                            x       y       z     vdW  Elec       q    Type
REMARK                         _______ _______ _______ _____ _____    ______ ____
ROOT
ATOM      1  C   UNL     1      -3.685  -0.959   0.014  0.00  0.00    +0.253 C 
ATOM      2  O   UNL     1      -4.655  -0.232   0.023  0.00  0.00    -0.272 OA
ATOM      3  N   UNL     1      -3.845  -2.297   0.008  0.00  0.00    -0.296 N 
ATOM      4  C   UNL     1      -2.682  -3.197  -0.009  0.00  0.00    +0.123 C 
ATOM      5  C   UNL     1      -2.849  -4.221   1.125  0.00  0.00    +0.103 C 
ATOM      6  N   UNL     1      -4.150  -4.888   0.988  0.00  0.00    -0.298 NA
ATOM      7  C   UNL     1      -5.256  -3.933   1.138  0.00  0.00    +0.103 C 
ATOM      8  C   UNL     1      -5.188  -2.897   0.011  0.00  0.00    +0.123 C 
ENDROOT
BRANCH   1   9
ATOM      9  C   UNL     1      -2.299  -0.366   0.011  0.00  0.00    +0.324 C 
BRANCH   9  10
ATOM     10  O   UNL     1      -2.391   1.060   0.019  0.00  0.00    -0.483 OA
BRANCH  10  16
ATOM     11  C   UNL     1      -0.065   5.351   0.029  0.00  0.00    +0.044 C 
ATOM     12  C   UNL     1      -0.049   3.844   0.022  0.00  0.00    -0.047 A 
ATOM     13  C   UNL     1       1.156   3.166   0.007  0.00  0.00    +0.003 A 
ATOM     14  C   UNL     1       1.174   1.783   0.000  0.00  0.00    +0.004 A 
ATOM     15  C   UNL     1      -0.013   1.076   0.008  0.00  0.00    +0.045 A 
ATOM     16  C   UNL     1      -1.223   1.754   0.017  0.00  0.00    +0.121 A 
ATOM     17  C   UNL     1      -1.238   3.141   0.029  0.00  0.00    +0.049 A 
ENDBRANCH  10  16
ENDBRANCH   9  10
ENDBRANCH   1   9
BRANCH   6  18
ATOM     18  C   UNL     1      -4.278  -5.995   1.944  0.00  0.00    +0.105 C 
BRANCH  18  19
ATOM     19  C   UNL     1      -2.995  -6.829   1.934  0.00  0.00    +0.128 C 
BRANCH  19  20
ATOM     20  N   UNL     1      -3.122  -7.933   2.888  0.00  0.00    -0.382 N 
ATOM     21  C   UNL     1      -2.085  -8.824   3.053  0.00  0.00    +0.053 A 
ATOM     22  C   UNL     1      -0.923  -8.696   2.335  0.00  0.00    +0.113 A 
ATOM     23  C   UNL     1       0.114  -9.618   2.525  0.00  0.00    +0.286 A 
ATOM     24  O   UNL     1       0.010 -10.635   3.396  0.00  0.00    -0.425 OA
ATOM     25  C   UNL     1      -1.103 -10.823   4.137  0.00  0.00    +0.141 A 
ATOM     26  C   UNL     1      -2.186  -9.939   4.010  0.00  0.00    +0.041 A 
ATOM     27  C   UNL     1      -3.336 -10.126   4.778  0.00  0.00    +0.013 A 
ATOM     28  C   UNL     1      -3.398 -11.179   5.665  0.00  0.00    +0.001 A 
ATOM     29  C   UNL     1      -2.326 -12.049   5.795  0.00  0.00    +0.004 A 
ATOM     30  C   UNL     1      -1.189 -11.882   5.032  0.00  0.00    +0.047 A 
ATOM     31  H   UNL     1      -4.047  -8.052   3.472  0.00  0.00    +0.160 HD
BRANCH  23  32
ATOM     32  O   UNL     1       1.142  -9.494   1.881  0.00  0.00    -0.480 OA
ATOM     33  H   UNL     1       1.966 -10.208   2.017  0.00  0.00    +0.295 HD
ENDBRANCH  23  32
ENDBRANCH  19  20
ENDBRANCH  18  19
ENDBRANCH   6  18
TORSDOF 7
