REMARK  Name = ZINC06894847
REMARK  5 active torsions:
REMARK  status: ('A' for Active; 'I' for Inactive)
REMARK    1  A    between atoms: C_1  and  C_2
REMARK    2  A    between atoms: C_5  and  C_30
REMARK    3  A    between atoms: C_6  and  N_8
REMARK    4  A    between atoms: C_9  and  C_11
REMARK    5  A    between atoms: N_26  and  C_29
REMARK                            x       y       z     vdW  Elec       q    Type
REMARK                         _______ _______ _______ _____ _____    ______ ____
ROOT
ATOM      1  C   UNL     1       0.451   2.745   2.045  0.00  0.00    +0.076 C 
ATOM      2  C   UNL     1       1.770   2.148   1.481  0.00  0.00    -0.003 C 
ATOM      3  C   UNL     1       1.390   1.899   0.002  0.00  0.00    -0.066 C 
ATOM      4  C   UNL     1       2.221   0.726  -0.543  0.00  0.00    -0.017 C 
ATOM      5  C   UNL     1       1.185  -0.367  -0.896  0.00  0.00    -0.020 C 
ATOM      6  C   UNL     1       0.004  -0.028   0.047  0.00  0.00    -0.077 C 
ATOM      7  C   UNL     1      -0.624   1.946   1.291  0.00  0.00    +0.052 C 
ATOM      8  C   UNL     1      -1.137   0.810   2.134  0.00  0.00    -0.027 A 
ATOM      9  C   UNL     1      -0.536  -0.292   2.701  0.00  0.00    +0.004 A 
ATOM     10  C   UNL     1      -1.288  -1.185   3.443  0.00  0.00    +0.000 A 
ATOM     11  C   UNL     1      -2.643  -0.969   3.613  0.00  0.00    +0.002 A 
ATOM     12  C   UNL     1      -3.249   0.135   3.048  0.00  0.00    +0.024 A 
ATOM     13  C   UNL     1      -2.498   1.039   2.300  0.00  0.00    +0.038 A 
ATOM     14  N   UNL     1      -2.874   2.210   1.639  0.00  0.00    -0.275 N 
ATOM     15  C   UNL     1      -1.835   2.802   1.022  0.00  0.00    +0.214 C 
ATOM     16  O   UNL     1      -1.866   3.826   0.374  0.00  0.00    -0.276 OA
ATOM     17  C   UNL     1      -4.242   2.734   1.619  0.00  0.00    +0.138 C 
ATOM     18  N   UNL     1       0.003   1.447   0.050  0.00  0.00    +0.394 N 
ATOM     19  H   UNL     1      -0.512   1.799  -0.766  0.00  0.00    -0.079 HD
ENDROOT
BRANCH   1  21
ATOM     20  N   UNL     1      -0.399   5.022   2.505  0.00  0.00    -0.285 N 
ATOM     21  C   UNL     1       0.348   4.214   1.726  0.00  0.00    +0.220 C 
ATOM     22  O   UNL     1       0.937   4.669   0.769  0.00  0.00    -0.275 OA
ATOM     23  H   UNL     1      -0.823   4.670   3.303  0.00  0.00    +0.155 HD
BRANCH  20  29
ATOM     24  C   UNL     1       1.275   9.039   0.218  0.00  0.00    +0.044 C 
ATOM     25  C   UNL     1       0.234   8.341   1.054  0.00  0.00    -0.049 A 
ATOM     26  C   UNL     1      -0.884   9.032   1.483  0.00  0.00    +0.004 A 
ATOM     27  C   UNL     1      -1.842   8.395   2.251  0.00  0.00    +0.005 A 
ATOM     28  C   UNL     1      -1.686   7.064   2.587  0.00  0.00    -0.029 A 
ATOM     29  C   UNL     1      -0.562   6.369   2.162  0.00  0.00    +0.037 A 
ATOM     30  C   UNL     1       0.398   7.012   1.391  0.00  0.00    +0.027 A 
ATOM     31  C   UNL     1      -2.733   6.368   3.418  0.00  0.00    +0.045 C 
ENDBRANCH  20  29
ENDBRANCH   1  21
TORSDOF 2
