REMARK  Name = ZINC45254262
REMARK  8 active torsions:
REMARK  status: ('A' for Active; 'I' for Inactive)
REMARK    1  A    between atoms: C_1  and  C_2
REMARK    2  A    between atoms: C_2  and  C_3
REMARK    3  A    between atoms: C_3  and  C_4
REMARK    4  A    between atoms: C_6  and  N_17
REMARK    5  A    between atoms: C_10  and  N_16
REMARK    6  A    between atoms: C_11  and  C_13
REMARK    7  A    between atoms: C_20  and  N_23
REMARK    8  A    between atoms: N_23  and  C_24
REMARK                            x       y       z     vdW  Elec       q    Type
REMARK                         _______ _______ _______ _____ _____    ______ ____
ROOT
ATOM      1  C   UNL     1      -1.392  -1.816   0.003  0.00  0.00    -0.033 A 
ATOM      2  C   UNL     1      -1.578  -2.398  -1.214  0.00  0.00    +0.046 A 
ATOM      3  C   UNL     1      -1.550  -3.788  -1.345  0.00  0.00    +0.100 A 
ATOM      4  N   UNL     1      -1.342  -4.555  -0.285  0.00  0.00    -0.337 N 
ATOM      5  C   UNL     1      -1.158  -4.033   0.909  0.00  0.00    +0.089 A 
ATOM      6  C   UNL     1      -1.163  -2.639   1.137  0.00  0.00    +0.030 A 
ATOM      7  C   UNL     1      -0.937  -2.237   2.516  0.00  0.00    +0.054 A 
ATOM      8  C   UNL     1      -0.736  -3.222   3.459  0.00  0.00    +0.097 A 
ATOM      9  S   UNL     1      -0.860  -4.728   2.516  0.00  0.00    -0.064 S 
ATOM     10  H   UNL     1      -1.326  -5.519  -0.391  0.00  0.00    +0.168 HD
ENDROOT
BRANCH   3  11
ATOM     11  N   UNL     1      -1.741  -4.368  -2.591  0.00  0.00    -0.317 N 
ATOM     12  C   UNL     1      -1.826  -3.536  -3.799  0.00  0.00    +0.105 C 
ATOM     13  C   UNL     1      -3.119  -3.880  -4.545  0.00  0.00    +0.003 C 
ATOM     14  C   UNL     1      -3.162  -5.386  -4.814  0.00  0.00    -0.069 C 
ATOM     15  C   UNL     1      -3.155  -6.144  -3.485  0.00  0.00    +0.003 C 
ATOM     16  C   UNL     1      -1.857  -5.826  -2.728  0.00  0.00    +0.105 C 
BRANCH  14  17
ATOM     17  N   UNL     1      -4.385  -5.715  -5.559  0.00  0.00    +0.379 N 
ATOM     18  C   UNL     1      -4.370  -7.138  -5.922  0.00  0.00    -0.100 C 
ATOM     19  H   UNL     1      -5.191  -5.523  -4.983  0.00  0.00    -0.086 HD
ATOM     20  H   UNL     1      -4.430  -5.154  -6.397  0.00  0.00    -0.086 HD
ENDBRANCH  14  17
ENDBRANCH   3  11
BRANCH   8  21
ATOM     21  C   UNL     1      -0.498  -3.073   4.847  0.00  0.00    +0.250 C 
ATOM     22  O   UNL     1      -0.452  -1.960   5.341  0.00  0.00    -0.270 OA
ATOM     23  N   UNL     1      -0.323  -4.162   5.622  0.00  0.00    -0.325 N 
ATOM     24  H   UNL     1      -0.359  -5.047   5.228  0.00  0.00    +0.145 HD
ATOM     25  H   UNL     1      -0.160  -4.059   6.572  0.00  0.00    +0.145 HD
ENDBRANCH   8  21
BRANCH   7  26
ATOM     26  N   UNL     1      -0.923  -0.896   2.873  0.00  0.00    -0.356 N 
ATOM     27  H   UNL     1      -1.150  -0.217   2.219  0.00  0.00    +0.142 HD
ATOM     28  H   UNL     1      -0.687  -0.638   3.778  0.00  0.00    +0.142 HD
ENDBRANCH   7  26
BRANCH   1  29
ATOM     29  C   UNL     1      -1.423  -0.316   0.143  0.00  0.00    +0.036 C 
BRANCH  29  31
ATOM     30  C   UNL     1      -1.600   1.845  -1.098  0.00  0.00    +0.004 C 
ATOM     31  C   UNL     1      -1.569   0.322  -1.240  0.00  0.00    +0.001 C 
ENDBRANCH  29  31
ENDBRANCH   1  29
TORSDOF 6
