REMARK  Name = ZINC09329474
REMARK  8 active torsions:
REMARK  status: ('A' for Active; 'I' for Inactive)
REMARK    1  A    between atoms: C_1  and  C_2
REMARK    2  A    between atoms: C_2  and  O_4
REMARK    3  A    between atoms: O_4  and  C_5
REMARK    4  A    between atoms: C_8  and  C_11
REMARK    5  A    between atoms: C_11  and  C_13
REMARK    6  A    between atoms: N_31  and  C_34
REMARK    7  A    between atoms: C_37  and  O_40
REMARK    8  A    between atoms: O_40  and  C_41
REMARK                            x       y       z     vdW  Elec       q    Type
REMARK                         _______ _______ _______ _____ _____    ______ ____
ROOT
ATOM      1  C   UNL     1       0.209   5.451   1.095  0.00  0.00    +0.141 C 
ATOM      2  C   UNL     1       1.579   5.899   0.611  0.00  0.00    +0.116 C 
ATOM      3  C   UNL     1       2.267   4.484   0.505  0.00  0.00    +0.113 C 
ATOM      4  C   UNL     1       1.252   3.700  -0.200  0.00  0.00    +0.100 C 
ATOM      5  C   UNL     1      -1.178   3.390   0.459  0.00  0.00    +0.054 C 
ATOM      6  C   UNL     1      -1.085   2.059   0.312  0.00  0.00    +0.022 C 
ATOM      7  C   UNL     1       0.238   1.429   0.147  0.00  0.00    -0.019 A 
ATOM      8  C   UNL     1       1.376   2.211  -0.077  0.00  0.00    -0.021 A 
ATOM      9  C   UNL     1       2.608   1.603  -0.208  0.00  0.00    +0.006 A 
ATOM     10  C   UNL     1       2.718   0.226  -0.137  0.00  0.00    +0.000 A 
ATOM     11  C   UNL     1       1.594  -0.555   0.066  0.00  0.00    +0.001 A 
ATOM     12  C   UNL     1       0.357   0.039   0.208  0.00  0.00    +0.008 A 
ATOM     13  C   UNL     1       3.668   4.855   0.444  0.00  0.00    +0.232 C 
ATOM     14  O   UNL     1       4.548   4.290  -0.169  0.00  0.00    -0.274 OA
ATOM     15  N   UNL     1       3.782   5.984   1.216  0.00  0.00    -0.210 N 
ATOM     16  C   UNL     1       2.570   6.527   1.540  0.00  0.00    +0.232 C 
ATOM     17  O   UNL     1       2.344   7.348   2.402  0.00  0.00    -0.274 OA
ATOM     18  N   UNL     1      -0.015   4.320   0.133  0.00  0.00    -0.384 NA
ATOM     19  H   UNL     1      -0.307   4.774  -0.741  0.00  0.00    +0.127 HD
ENDROOT
BRANCH  15  20
ATOM     20  C   UNL     1       5.010   6.523   1.630  0.00  0.00    +0.044 A 
ATOM     21  C   UNL     1       6.198   5.906   1.262  0.00  0.00    +0.027 A 
ATOM     22  C   UNL     1       7.406   6.440   1.664  0.00  0.00    +0.047 A 
ATOM     23  C   UNL     1       7.433   7.587   2.444  0.00  0.00    +0.120 A 
ATOM     24  C   UNL     1       6.246   8.201   2.817  0.00  0.00    +0.047 A 
ATOM     25  C   UNL     1       5.037   7.671   2.410  0.00  0.00    +0.027 A 
BRANCH  23  26
ATOM     26  O   UNL     1       8.623   8.109   2.845  0.00  0.00    -0.495 OA
ATOM     27  C   UNL     1       9.805   7.425   2.425  0.00  0.00    +0.277 C 
ENDBRANCH  23  26
ENDBRANCH  15  20
BRANCH   1  28
ATOM     28  C   UNL     1      -0.849   6.431   0.657  0.00  0.00    +0.183 C 
ATOM     29  O   UNL     1      -1.454   6.248  -0.378  0.00  0.00    -0.290 OA
BRANCH  28  33
ATOM     30  C   UNL     1      -1.711   9.828   3.044  0.00  0.00    +0.132 A 
ATOM     31  C   UNL     1      -2.319   9.682   1.802  0.00  0.00    +0.047 A 
ATOM     32  C   UNL     1      -2.043   8.581   1.024  0.00  0.00    +0.015 A 
ATOM     33  C   UNL     1      -1.148   7.607   1.484  0.00  0.00    +0.019 A 
ATOM     34  C   UNL     1      -0.543   7.757   2.738  0.00  0.00    +0.015 A 
ATOM     35  C   UNL     1      -0.822   8.864   3.506  0.00  0.00    +0.047 A 
BRANCH  30  36
ATOM     36  O   UNL     1      -1.987  10.915   3.808  0.00  0.00    -0.426 OA
BRANCH  36  38
ATOM     37  C   UNL     1      -3.486  12.038   5.419  0.00  0.00    +0.136 C 
ATOM     38  C   UNL     1      -3.159  10.918   4.465  0.00  0.00    +0.309 C 
ATOM     39  O   UNL     1      -3.951  10.022   4.291  0.00  0.00    -0.251 OA
ENDBRANCH  36  38
ENDBRANCH  30  36
ENDBRANCH  28  33
ENDBRANCH   1  28
TORSDOF 6
