REMARK  Name = ZINC01835205
REMARK  9 active torsions:
REMARK  status: ('A' for Active; 'I' for Inactive)
REMARK    1  A    between atoms: C_1  and  C_2
REMARK    2  A    between atoms: C_2  and  C_3
REMARK    3  A    between atoms: C_8  and  C_27
REMARK    4  A    between atoms: C_12  and  C_15
REMARK    5  A    between atoms: C_13  and  O_14
REMARK    6  A    between atoms: C_15  and  N_67
REMARK    7  A    between atoms: C_17  and  C_26
REMARK    8  A    between atoms: C_22  and  C_24
REMARK    9  A    between atoms: C_22  and  C_25
REMARK                            x       y       z     vdW  Elec       q    Type
REMARK                         _______ _______ _______ _____ _____    ______ ____
ROOT
ATOM      1  C   UNL     1       3.660   2.152  -0.037  0.00  0.00    -0.005 A 
ATOM      2  C   UNL     1       2.529   1.387  -0.007  0.00  0.00    +0.022 A 
ATOM      3  C   UNL     1       1.278   2.002   0.030  0.00  0.00    +0.065 A 
ATOM      4  C   UNL     1       0.036   1.207   0.062  0.00  0.00    +0.202 A 
ATOM      5  O   UNL     1       0.057  -0.011   0.058  0.00  0.00    -0.286 OA
ATOM      6  C   UNL     1      -1.232   1.959   0.095  0.00  0.00    +0.089 A 
ATOM      7  C   UNL     1      -1.184   3.320   0.106  0.00  0.00    +0.210 A 
ATOM      8  O   UNL     1      -0.035   3.998   0.075  0.00  0.00    -0.462 OA
ATOM      9  C   UNL     1       1.174   3.404   0.038  0.00  0.00    +0.143 A 
ATOM     10  C   UNL     1       2.334   4.167   0.008  0.00  0.00    +0.021 A 
ATOM     11  C   UNL     1       3.569   3.542  -0.030  0.00  0.00    +0.125 A 
ENDROOT
BRANCH   6  12
ATOM     12  C   UNL     1      -2.527   1.251   0.123  0.00  0.00    +0.116 A 
ATOM     13  N   UNL     1      -3.743   1.754   0.153  0.00  0.00    -0.239 NA
ATOM     14  C   UNL     1      -4.846   0.980   0.176  0.00  0.00    +0.079 A 
ATOM     15  C   UNL     1      -6.200   1.389   0.209  0.00  0.00    +0.029 A 
ATOM     16  C   UNL     1      -7.205   0.473   0.229  0.00  0.00    +0.002 A 
ATOM     17  C   UNL     1      -6.948  -0.891   0.217  0.00  0.00    +0.001 A 
ATOM     18  C   UNL     1      -5.638  -1.333   0.185  0.00  0.00    +0.017 A 
ATOM     19  C   UNL     1      -4.616  -0.416   0.165  0.00  0.00    +0.040 A 
ATOM     20  S   UNL     1      -2.843  -0.508   0.116  0.00  0.00    -0.067 S 
ENDBRANCH   6  12
BRANCH   1  22
ATOM     21  C   UNL     1       5.567   1.373   1.344  0.00  0.00    +0.009 C 
ATOM     22  C   UNL     1       5.013   1.490  -0.078  0.00  0.00    +0.035 C 
ENDBRANCH   1  22
BRANCH  11  23
ATOM     23  O   UNL     1       4.701   4.290  -0.059  0.00  0.00    -0.506 OA
ATOM     24  H   UNL     1       5.096   4.441   0.811  0.00  0.00    +0.292 HD
ENDBRANCH  11  23
BRANCH  10  25
ATOM     25  C   UNL     1       2.248   5.671   0.016  0.00  0.00    -0.035 C 
BRANCH  25  36
ATOM     26  C   UNL     1       1.094   5.993  -2.122  0.00  0.00    -0.071 C 
ATOM     27  C   UNL     1       0.932   7.274  -2.974  0.00  0.00    -0.048 C 
ATOM     28  C   UNL     1       2.347   7.914  -2.950  0.00  0.00    -0.011 C 
ATOM     29  C   UNL     1       2.758   7.569  -1.490  0.00  0.00    -0.067 C 
ATOM     30  C   UNL     1       1.984   8.499  -0.572  0.00  0.00    -0.009 C 
ATOM     31  C   UNL     1       0.517   8.698  -0.884  0.00  0.00    -0.036 C 
ATOM     32  C   UNL     1       0.002   8.228  -2.228  0.00  0.00    +0.011 C 
ATOM     33  C   UNL     1       0.232  10.220  -0.792  0.00  0.00    +0.011 C 
ATOM     34  C   UNL     1      -0.328   8.043   0.228  0.00  0.00    +0.011 C 
ATOM     35  C   UNL     1       0.452   6.969  -4.401  0.00  0.00    +0.009 C 
ATOM     36  N   UNL     1       2.360   6.146  -1.405  0.00  0.00    +0.385 N 
ATOM     37  H   UNL     1       3.075   5.577  -1.873  0.00  0.00    -0.081 HD
ENDBRANCH  25  36
ENDBRANCH  10  25
TORSDOF 5
