REMARK  Name = ZINC00670398
REMARK  7 active torsions:
REMARK  status: ('A' for Active; 'I' for Inactive)
REMARK    1  A    between atoms: C_1  and  C_2
REMARK    2  A    between atoms: C_2  and  C_3
REMARK    3  A    between atoms: C_2  and  C_4
REMARK    4  A    between atoms: C_2  and  C_5
REMARK    5  A    between atoms: C_12  and  N_17
REMARK    6  A    between atoms: C_13  and  C_14
REMARK    7  A    between atoms: C_18  and  C_20
REMARK                            x       y       z     vdW  Elec       q    Type
REMARK                         _______ _______ _______ _____ _____    ______ ____
ROOT
ATOM      1  C   UNL     1       7.197  -1.928   8.006  0.00  0.00    -0.000 C 
ATOM      2  C   UNL     1       8.319  -1.900   6.965  0.00  0.00    +0.009 C 
ATOM      3  C   UNL     1       8.053  -0.794   5.942  0.00  0.00    +0.037 C 
ATOM      4  C   UNL     1       6.642  -0.963   5.393  0.00  0.00    -0.023 A 
ATOM      5  C   UNL     1       5.725  -1.707   6.048  0.00  0.00    -0.004 A 
ATOM      6  S   UNL     1       4.267  -1.612   5.049  0.00  0.00    -0.077 S 
ATOM      7  C   UNL     1       4.865  -0.598   3.778  0.00  0.00    +0.084 A 
ATOM      8  C   UNL     1       6.179  -0.362   4.154  0.00  0.00    +0.068 A 
ATOM      9  C   UNL     1       5.915  -2.445   7.338  0.00  0.00    +0.046 C 
ENDROOT
BRANCH   8  10
ATOM     10  C   UNL     1       7.068   0.467   3.333  0.00  0.00    +0.244 C 
ATOM     11  O   UNL     1       7.130   1.667   3.526  0.00  0.00    -0.270 OA
ATOM     12  N   UNL     1       7.815  -0.100   2.365  0.00  0.00    -0.325 N 
ATOM     13  H   UNL     1       8.481   0.522   1.749  0.00  0.00    +0.145 HD
ATOM     14  H   UNL     1       7.758  -1.185   2.191  0.00  0.00    +0.145 HD
ENDBRANCH   8  10
BRANCH   1  16
ATOM     15  C   UNL     1       8.875  -2.352   9.809  0.00  0.00    +0.011 C 
ATOM     16  C   UNL     1       7.588  -2.859   9.156  0.00  0.00    -0.035 C 
ATOM     17  C   UNL     1       6.465  -2.885  10.195  0.00  0.00    +0.011 C 
ATOM     18  C   UNL     1       7.813  -4.272   8.613  0.00  0.00    +0.011 C 
ENDBRANCH   1  16
BRANCH   7  19
ATOM     19  N   UNL     1       4.194  -0.139   2.654  0.00  0.00    -0.279 N 
ATOM     20  C   UNL     1       2.906  -0.480   2.452  0.00  0.00    +0.221 C 
ATOM     21  O   UNL     1       2.334  -1.190   3.252  0.00  0.00    -0.275 OA
ATOM     22  H   UNL     1       4.713   0.505   1.929  0.00  0.00    +0.155 HD
BRANCH  20  23
ATOM     23  C   UNL     1       2.178   0.019   1.231  0.00  0.00    +0.075 C 
ATOM     24  C   UNL     1       0.742  -0.511   1.242  0.00  0.00    +0.013 C 
ATOM     25  C   UNL     1       0.002  -0.004   0.002  0.00  0.00    +0.001 C 
ATOM     26  C   UNL     1      -0.019   1.526   0.010  0.00  0.00    +0.000 C 
ATOM     27  C   UNL     1       1.417   2.055  -0.000  0.00  0.00    +0.001 C 
ATOM     28  C   UNL     1       2.157   1.548   1.239  0.00  0.00    +0.013 C 
ENDBRANCH  20  23
ENDBRANCH   7  19
TORSDOF 4
