REMARK  Name = ZINC17112694
REMARK  14 active torsions:
REMARK  status: ('A' for Active; 'I' for Inactive)
REMARK    1  A    between atoms: C_1  and  C_2
REMARK    2  A    between atoms: C_2  and  N_3
REMARK    3  A    between atoms: N_3  and  C_4
REMARK    4  A    between atoms: N_3  and  S_6
REMARK    5  A    between atoms: C_4  and  C_5
REMARK    6  A    between atoms: S_6  and  C_9
REMARK    7  A    between atoms: C_12  and  C_15
REMARK    8  A    between atoms: C_15  and  C_17
REMARK    9  A    between atoms: N_21  and  C_31
REMARK   10  A    between atoms: C_22  and  C_24
REMARK   11  A    between atoms: C_27  and  O_30
REMARK   12  A    between atoms: C_31  and  C_32
REMARK   13  A    between atoms: C_32  and  O_33
REMARK   14  A    between atoms: O_33  and  C_34
REMARK                            x       y       z     vdW  Elec       q    Type
REMARK                         _______ _______ _______ _____ _____    ______ ____
ROOT
ATOM      1  C   UNL     1       1.470   2.903   0.038  0.00  0.00    +0.076 C 
ATOM      2  C   UNL     1       1.181   1.585  -0.070  0.00  0.00    +0.249 C 
ATOM      3  C   UNL     1       2.441   0.817  -0.152  0.00  0.00    +0.288 C 
ATOM      4  O   UNL     1       2.516  -0.391  -0.260  0.00  0.00    -0.266 OA
ATOM      5  N   UNL     1       3.493   1.653  -0.089  0.00  0.00    -0.281 N 
ATOM      6  C   UNL     1       2.976   3.021   0.038  0.00  0.00    +0.145 C 
ATOM      7  O   UNL     1      -0.064   1.056  -0.104  0.00  0.00    -0.282 OA
ENDROOT
BRANCH   6   8
ATOM      8  C   UNL     1       3.452   3.637   1.328  0.00  0.00    -0.022 A 
ATOM      9  C   UNL     1       3.389   2.913   2.504  0.00  0.00    +0.009 A 
ATOM     10  C   UNL     1       3.830   3.474   3.687  0.00  0.00    +0.046 A 
ATOM     11  C   UNL     1       4.327   4.769   3.696  0.00  0.00    +0.117 A 
ATOM     12  C   UNL     1       4.384   5.496   2.515  0.00  0.00    +0.046 A 
ATOM     13  C   UNL     1       3.947   4.928   1.334  0.00  0.00    +0.009 A 
BRANCH  11  14
ATOM     14  O   UNL     1       4.756   5.325   4.859  0.00  0.00    -0.507 OA
ATOM     15  H   UNL     1       5.150   6.352   4.865  0.00  0.00    +0.292 HD
ENDBRANCH  11  14
ENDBRANCH   6   8
BRANCH   1  16
ATOM     16  C   UNL     1       0.507   4.004   0.139  0.00  0.00    +0.195 C 
ATOM     17  O   UNL     1      -0.209   4.098   1.118  0.00  0.00    -0.287 OA
BRANCH  16  21
ATOM     18  C   UNL     1       0.218   6.866  -2.987  0.00  0.00    +0.106 A 
ATOM     19  C   UNL     1      -0.512   7.040  -1.824  0.00  0.00    +0.029 A 
ATOM     20  C   UNL     1      -0.423   6.114  -0.805  0.00  0.00    +0.013 A 
ATOM     21  C   UNL     1       0.406   5.000  -0.949  0.00  0.00    +0.022 A 
ATOM     22  C   UNL     1       1.144   4.834  -2.123  0.00  0.00    +0.013 A 
ATOM     23  C   UNL     1       1.041   5.764  -3.136  0.00  0.00    +0.029 A 
BRANCH  18  24
ATOM     24  S   UNL     1       0.098   8.054  -4.283  0.00  0.00    +0.061 S 
ATOM     25  O   UNL     1       0.458   7.383  -5.483  0.00  0.00    -0.153 OA
ATOM     26  O   UNL     1      -1.153   8.707  -4.121  0.00  0.00    -0.153 OA
BRANCH  24  27
ATOM     27  N   UNL     1       1.267   9.195  -4.010  0.00  0.00    -0.177 NA
BRANCH  27  29
ATOM     28  C   UNL     1       2.690   9.783  -5.910  0.00  0.00    +0.022 C 
ATOM     29  C   UNL     1       2.604   9.026  -4.583  0.00  0.00    +0.106 C 
ENDBRANCH  27  29
BRANCH  27  30
ATOM     30  C   UNL     1       0.963  10.375  -3.196  0.00  0.00    +0.106 C 
ATOM     31  C   UNL     1       1.390  10.120  -1.749  0.00  0.00    +0.022 C 
ENDBRANCH  27  30
ENDBRANCH  24  27
ENDBRANCH  18  24
ENDBRANCH  16  21
ENDBRANCH   1  16
BRANCH   5  32
ATOM     32  C   UNL     1       4.906   1.267  -0.139  0.00  0.00    +0.137 C 
BRANCH  32  33
ATOM     33  C   UNL     1       5.382   1.259  -1.593  0.00  0.00    +0.178 C 
BRANCH  33  34
ATOM     34  O   UNL     1       5.335   2.588  -2.116  0.00  0.00    -0.381 OA
ATOM     35  C   UNL     1       5.762   2.692  -3.476  0.00  0.00    +0.194 C 
ENDBRANCH  33  34
ENDBRANCH  32  33
ENDBRANCH   5  32
TORSDOF 11
