REMARK  Name = ZINC67299110
REMARK  7 active torsions:
REMARK  status: ('A' for Active; 'I' for Inactive)
REMARK    1  A    between atoms: C_1  and  C_2
REMARK    2  A    between atoms: C_7  and  N_8
REMARK    3  A    between atoms: C_10  and  C_21
REMARK    4  A    between atoms: C_16  and  O_19
REMARK    5  A    between atoms: O_19  and  C_20
REMARK    6  A    between atoms: N_23  and  C_24
REMARK    7  A    between atoms: C_24  and  C_25
REMARK                            x       y       z     vdW  Elec       q    Type
REMARK                         _______ _______ _______ _____ _____    ______ ____
ROOT
ATOM      1  N   UNL     1      -0.036  -0.008   2.391  0.00  0.00    -0.325 N 
ATOM      2  C   UNL     1      -0.100  -0.685   3.517  0.00  0.00    +0.212 A 
ATOM      3  C   UNL     1      -0.185   0.009   4.817  0.00  0.00    +0.097 A 
ATOM      4  C   UNL     1      -0.798  -0.673   5.860  0.00  0.00    +0.030 A 
ATOM      5  C   UNL     1      -1.305  -2.018   5.578  0.00  0.00    +0.022 A 
ATOM      6  C   UNL     1      -2.161  -2.665   6.478  0.00  0.00    +0.012 A 
ATOM      7  C   UNL     1      -2.627  -3.917   6.193  0.00  0.00    +0.004 A 
ATOM      8  C   UNL     1      -2.260  -4.557   5.018  0.00  0.00    +0.049 A 
ATOM      9  C   UNL     1      -1.413  -3.938   4.114  0.00  0.00    +0.163 A 
ATOM     10  C   UNL     1      -0.926  -2.663   4.387  0.00  0.00    +0.179 A 
ATOM     11  O   UNL     1      -0.095  -2.042   3.519  0.00  0.00    -0.435 OA
ATOM     12  H   UNL     1      -0.032   0.962   2.407  0.00  0.00    +0.169 HD
ENDROOT
BRANCH   1  19
ATOM     13  C   UNL     1      -1.889   0.738   0.370  0.00  0.00    +0.046 C 
ATOM     14  C   UNL     1      -0.863  -0.347   0.168  0.00  0.00    -0.026 A 
ATOM     15  C   UNL     1      -0.793  -1.017  -1.036  0.00  0.00    +0.025 A 
ATOM     16  C   UNL     1       0.149  -2.014  -1.224  0.00  0.00    +0.041 A 
ATOM     17  C   UNL     1       1.027  -2.346  -0.205  0.00  0.00    +0.022 A 
ATOM     18  C   UNL     1       0.968  -1.684   1.003  0.00  0.00    +0.027 A 
ATOM     19  C   UNL     1       0.024  -0.673   1.197  0.00  0.00    +0.045 A 
ATOM     20 CL   UNL     1       0.229  -2.853  -2.741  0.00  0.00    -0.084 Cl
ENDBRANCH   1  19
BRANCH   3  21
ATOM     21  C   UNL     1       0.357   1.366   5.001  0.00  0.00    +0.250 C 
ATOM     22  O   UNL     1       0.832   1.965   4.055  0.00  0.00    -0.270 OA
ATOM     23  N   UNL     1       0.327   1.945   6.218  0.00  0.00    -0.304 N 
ATOM     24  H   UNL     1      -0.107   1.494   6.959  0.00  0.00    +0.149 HD
BRANCH  23  25
ATOM     25  C   UNL     1       0.949   3.256   6.421  0.00  0.00    +0.179 C 
BRANCH  25  26
ATOM     26  C   UNL     1       0.777   3.676   7.859  0.00  0.00    +0.122 A 
ATOM     27  C   UNL     1       1.633   3.412   8.863  0.00  0.00    +0.046 A 
ATOM     28  C   UNL     1       1.083   3.988  10.031  0.00  0.00    +0.041 A 
ATOM     29  C   UNL     1      -0.076   4.569   9.671  0.00  0.00    +0.195 A 
ATOM     30  O   UNL     1      -0.253   4.381   8.353  0.00  0.00    -0.466 OA
ENDBRANCH  25  26
ENDBRANCH  23  25
ENDBRANCH   3  21
BRANCH   9  31
ATOM     31  O   UNL     1      -1.058  -4.573   2.965  0.00  0.00    -0.491 OA
ATOM     32  C   UNL     1      -1.597  -5.880   2.754  0.00  0.00    +0.277 C 
ENDBRANCH   9  31
TORSDOF 5
