REMARK  Name = ZINC35384764
REMARK  13 active torsions:
REMARK  status: ('A' for Active; 'I' for Inactive)
REMARK    1  A    between atoms: C_1  and  C_2
REMARK    2  A    between atoms: C_2  and  O_3
REMARK    3  A    between atoms: O_3  and  C_4
REMARK    4  A    between atoms: C_6  and  C_11
REMARK    5  A    between atoms: C_9  and  O_10
REMARK    6  A    between atoms: C_13  and  C_14
REMARK    7  A    between atoms: C_14  and  C_15
REMARK    8  A    between atoms: N_27  and  C_28
REMARK    9  A    between atoms: C_28  and  C_29
REMARK   10  A    between atoms: C_29  and  O_30
REMARK   11  A    between atoms: O_30  and  C_31
REMARK   12  A    between atoms: C_31  and  C_32
REMARK   13  A    between atoms: C_32  and  O_33
REMARK                            x       y       z     vdW  Elec       q    Type
REMARK                         _______ _______ _______ _____ _____    ______ ____
ROOT
ATOM      1  C   UNL     1      -0.457  -5.231  -0.397  0.00  0.00    +0.145 C 
ATOM      2  C   UNL     1      -1.924  -5.449  -0.107  0.00  0.00    +0.076 C 
ATOM      3  C   UNL     1      -2.124  -6.788  -0.088  0.00  0.00    +0.249 C 
ATOM      4  O   UNL     1      -3.309  -7.400   0.139  0.00  0.00    -0.282 OA
ATOM      5  C   UNL     1      -0.842  -7.474  -0.354  0.00  0.00    +0.288 C 
ATOM      6  O   UNL     1      -0.693  -8.678  -0.403  0.00  0.00    -0.266 OA
ATOM      7  N   UNL     1       0.135  -6.567  -0.535  0.00  0.00    -0.281 N 
ENDROOT
BRANCH   1  10
ATOM      8  C   UNL     1       1.232  -2.515   1.613  0.00  0.00    +0.162 A 
ATOM      9  C   UNL     1       0.635  -3.196   0.565  0.00  0.00    +0.055 A 
ATOM     10  C   UNL     1       0.192  -4.492   0.745  0.00  0.00    -0.019 A 
ATOM     11  C   UNL     1       0.342  -5.113   1.972  0.00  0.00    +0.009 A 
ATOM     12  C   UNL     1       0.937  -4.440   3.022  0.00  0.00    +0.049 A 
ATOM     13  C   UNL     1       1.389  -3.142   2.846  0.00  0.00    +0.158 A 
BRANCH  13  14
ATOM     14  O   UNL     1       1.979  -2.480   3.877  0.00  0.00    -0.503 OA
ATOM     15  H   UNL     1       1.361  -1.983   4.431  0.00  0.00    +0.292 HD
ENDBRANCH  13  14
BRANCH   8  16
ATOM     16  O   UNL     1       1.669  -1.239   1.437  0.00  0.00    -0.489 OA
BRANCH  16  18
ATOM     17  C   UNL     1       1.841   0.837   0.212  0.00  0.00    +0.048 C 
ATOM     18  C   UNL     1       1.378  -0.622   0.182  0.00  0.00    +0.226 C 
ENDBRANCH  16  18
ENDBRANCH   8  16
ENDBRANCH   1  10
BRANCH   2  19
ATOM     19  C   UNL     1      -2.936  -4.411   0.111  0.00  0.00    +0.195 C 
ATOM     20  O   UNL     1      -3.473  -4.303   1.197  0.00  0.00    -0.287 OA
BRANCH  19  21
ATOM     21  C   UNL     1      -3.303  -3.494  -0.989  0.00  0.00    +0.022 A 
ATOM     22  C   UNL     1      -2.650  -3.580  -2.221  0.00  0.00    +0.013 A 
ATOM     23  C   UNL     1      -2.997  -2.722  -3.243  0.00  0.00    +0.016 A 
ATOM     24  C   UNL     1      -3.992  -1.777  -3.051  0.00  0.00    +0.018 A 
ATOM     25  C   UNL     1      -4.644  -1.688  -1.832  0.00  0.00    +0.016 A 
ATOM     26  C   UNL     1      -4.309  -2.543  -0.804  0.00  0.00    +0.013 A 
ATOM     27 BR   UNL     1      -4.461  -0.605  -4.458  0.00  0.00    -0.050 Br
ENDBRANCH  19  21
ENDBRANCH   2  19
BRANCH   7  28
ATOM     28  C   UNL     1       1.542  -6.860  -0.821  0.00  0.00    +0.137 C 
BRANCH  28  29
ATOM     29  C   UNL     1       2.314  -6.984   0.494  0.00  0.00    +0.179 C 
BRANCH  29  30
ATOM     30  O   UNL     1       1.833  -8.114   1.224  0.00  0.00    -0.376 OA
BRANCH  30  31
ATOM     31  C   UNL     1       2.491  -8.321   2.476  0.00  0.00    +0.187 C 
BRANCH  31  32
ATOM     32  C   UNL     1       1.899  -9.550   3.167  0.00  0.00    +0.184 C 
BRANCH  32  33
ATOM     33  O   UNL     1       2.184 -10.716   2.392  0.00  0.00    -0.393 OA
ATOM     34  H   UNL     1       1.837 -11.536   2.772  0.00  0.00    +0.209 HD
ENDBRANCH  32  33
ENDBRANCH  31  32
ENDBRANCH  30  31
ENDBRANCH  29  30
ENDBRANCH  28  29
ENDBRANCH   7  28
TORSDOF 12
