REMARK  Name = ZINC21808733
REMARK  9 active torsions:
REMARK  status: ('A' for Active; 'I' for Inactive)
REMARK    1  A    between atoms: C_1  and  C_2
REMARK    2  A    between atoms: C_5  and  N_8
REMARK    3  A    between atoms: C_9  and  C_11
REMARK    4  A    between atoms: C_11  and  C_34
REMARK    5  A    between atoms: N_23  and  C_24
REMARK    6  A    between atoms: C_24  and  C_25
REMARK    7  A    between atoms: C_25  and  N_26
REMARK    8  A    between atoms: N_26  and  C_27
REMARK    9  A    between atoms: N_26  and  C_28
REMARK                            x       y       z     vdW  Elec       q    Type
REMARK                         _______ _______ _______ _____ _____    ______ ____
ROOT
ATOM      1  C   UNL     1       1.832   2.272  -1.568  0.00  0.00    +0.128 C 
ATOM      2  C   UNL     1       2.865   3.311  -2.003  0.00  0.00    +0.157 C 
ATOM      3  N   UNL     1       3.753   3.606  -0.876  0.00  0.00    -0.333 N 
ATOM      4  C   UNL     1       5.075   4.012  -0.894  0.00  0.00    +0.057 A 
ATOM      5  C   UNL     1       6.082   4.291  -1.830  0.00  0.00    +0.034 A 
ATOM      6  C   UNL     1       7.303   4.686  -1.415  0.00  0.00    +0.048 A 
ATOM      7  S   UNL     1       7.129   4.695   0.361  0.00  0.00    -0.095 S 
ATOM      8  C   UNL     1       5.437   4.171   0.452  0.00  0.00    +0.038 A 
ATOM      9  C   UNL     1       4.353   3.860   1.265  0.00  0.00    +0.048 A 
ATOM     10  C   UNL     1       3.324   3.506   0.443  0.00  0.00    +0.106 A 
ATOM     11  C   UNL     1       1.958   3.071   0.756  0.00  0.00    +0.264 C 
ATOM     12  O   UNL     1       1.505   3.140   1.884  0.00  0.00    -0.268 OA
ATOM     13  N   UNL     1       1.231   2.584  -0.277  0.00  0.00    -0.282 N 
ATOM     14  C   UNL     1       2.516   0.906  -1.477  0.00  0.00    +0.043 C 
ENDROOT
BRANCH   1  16
ATOM     15  N   UNL     1      -0.188   3.173  -2.674  0.00  0.00    -0.311 N 
ATOM     16  C   UNL     1       0.744   2.202  -2.608  0.00  0.00    +0.238 C 
ATOM     17  O   UNL     1       0.707   1.271  -3.385  0.00  0.00    -0.273 OA
ATOM     18  H   UNL     1      -0.108   4.058  -2.025  0.00  0.00    +0.149 HD
BRANCH  15  23
ATOM     19  C   UNL     1      -1.205   7.323  -4.292  0.00  0.00    +0.007 C 
ATOM     20  C   UNL     1      -1.629   5.856  -4.391  0.00  0.00    -0.014 C 
ATOM     21  C   UNL     1      -2.061   5.356  -3.011  0.00  0.00    +0.005 C 
ATOM     22  C   UNL     1      -2.486   3.890  -3.110  0.00  0.00    +0.022 C 
ATOM     23  C   UNL     1      -1.308   3.051  -3.611  0.00  0.00    +0.073 C 
ATOM     24  C   UNL     1      -0.876   3.551  -4.990  0.00  0.00    +0.022 C 
ATOM     25  C   UNL     1      -0.452   5.017  -4.891  0.00  0.00    +0.005 C 
ENDBRANCH  15  23
ENDBRANCH   1  16
BRANCH  13  26
ATOM     26  C   UNL     1      -0.207   2.370  -0.093  0.00  0.00    +0.091 C 
BRANCH  26  27
ATOM     27  C   UNL     1      -0.446   0.970   0.477  0.00  0.00    -0.060 C 
BRANCH  27  28
ATOM     28  N   UNL     1      -1.883   0.772   0.704  0.00  0.00    +0.381 N 
ATOM     29  C   UNL     1      -2.367   1.632   1.793  0.00  0.00    -0.096 C 
ATOM     30  H   UNL     1      -2.414   1.061  -0.215  0.00  0.00    -0.082 HD
BRANCH  28  31
ATOM     31  C   UNL     1      -2.184  -0.640   0.975  0.00  0.00    -0.069 C 
ATOM     32  C   UNL     1      -1.811  -1.484  -0.245  0.00  0.00    -0.015 C 
ATOM     33  C   UNL     1      -2.124  -2.955   0.037  0.00  0.00    -0.002 C 
ATOM     34  C   UNL     1      -3.618  -3.111   0.328  0.00  0.00    -0.000 C 
ATOM     35  C   UNL     1      -3.991  -2.267   1.548  0.00  0.00    -0.002 C 
ATOM     36  C   UNL     1      -3.678  -0.796   1.266  0.00  0.00    -0.015 C 
ENDBRANCH  28  31
ENDBRANCH  27  28
ENDBRANCH  26  27
ENDBRANCH  13  26
TORSDOF 6
