REMARK  Name = ZINC06301743
REMARK  8 active torsions:
REMARK  status: ('A' for Active; 'I' for Inactive)
REMARK    1  A    between atoms: C_1  and  C_2
REMARK    2  A    between atoms: C_4  and  C_34
REMARK    3  A    between atoms: C_7  and  C_14
REMARK    4  A    between atoms: C_14  and  C_16
REMARK    5  A    between atoms: C_14  and  N_63
REMARK    6  A    between atoms: N_20  and  C_21
REMARK    7  A    between atoms: C_21  and  C_22
REMARK    8  A    between atoms: C_30  and  C_33
REMARK                            x       y       z     vdW  Elec       q    Type
REMARK                         _______ _______ _______ _____ _____    ______ ____
ROOT
ATOM      1  C   UNL     1       0.697   3.260  -1.245  0.00  0.00    +0.039 C 
ENDROOT
BRANCH   1   8
ATOM      2  C   UNL     1       4.951  -3.469  -0.747  0.00  0.00    +0.044 C 
ATOM      3  C   UNL     1       4.335  -2.093  -0.751  0.00  0.00    -0.048 A 
ATOM      4  C   UNL     1       5.068  -1.012  -0.280  0.00  0.00    +0.007 A 
ATOM      5  C   UNL     1       4.529   0.243  -0.274  0.00  0.00    -0.041 A 
ATOM      6  C   UNL     1       3.227   0.441  -0.746  0.00  0.00    +0.002 A 
ATOM      7  C   UNL     1       2.618   1.772  -0.753  0.00  0.00    +0.018 A 
ATOM      8  C   UNL     1       1.353   1.903  -1.223  0.00  0.00    +0.011 A 
ATOM      9  C   UNL     1       0.648   0.774  -1.691  0.00  0.00    +0.251 A 
ATOM     10  O   UNL     1      -0.487   0.915  -2.113  0.00  0.00    -0.268 OA
ATOM     11  N   UNL     1       1.199  -0.453  -1.688  0.00  0.00    -0.322 N 
ATOM     12  H   UNL     1       0.686  -1.208  -2.017  0.00  0.00    +0.169 HD
ATOM     13  C   UNL     1       2.481  -0.653  -1.224  0.00  0.00    +0.050 A 
ATOM     14  C   UNL     1       3.051  -1.922  -1.220  0.00  0.00    +0.029 A 
ATOM     15  C   UNL     1       5.334   1.410   0.238  0.00  0.00    +0.044 C 
ENDBRANCH   1   8
BRANCH   1  22
ATOM     16  C   UNL     1      -0.385   2.601   0.819  0.00  0.00    -0.077 C 
ATOM     17  C   UNL     1      -1.745   2.423   1.497  0.00  0.00    -0.015 C 
ATOM     18  C   UNL     1      -2.428   3.788   1.626  0.00  0.00    -0.018 C 
ATOM     19  C   UNL     1      -2.568   4.413   0.235  0.00  0.00    -0.015 C 
ATOM     20  C   UNL     1      -1.184   4.533  -0.407  0.00  0.00    -0.077 C 
ATOM     21  C   UNL     1      -3.814   3.609   2.248  0.00  0.00    +0.007 C 
ATOM     22  N   UNL     1      -0.591   3.184  -0.524  0.00  0.00    +0.389 N 
ATOM     23  H   UNL     1      -1.234   2.583  -1.053  0.00  0.00    -0.080 HD
ENDBRANCH   1  22
BRANCH   1  24
ATOM     24  C   UNL     1       0.432   3.667  -2.671  0.00  0.00    +0.143 A 
ATOM     25  N   UNL     1      -0.387   3.084  -3.512  0.00  0.00    -0.115 NA
ATOM     26  N   UNL     1      -0.334   3.726  -4.628  0.00  0.00    -0.023 NA
ATOM     27  N   UNL     1       0.497   4.703  -4.521  0.00  0.00    -0.044 NA
ATOM     28  N   UNL     1       0.987   4.704  -3.327  0.00  0.00    -0.226 N 
BRANCH  28  29
ATOM     29  C   UNL     1       1.964   5.652  -2.788  0.00  0.00    +0.182 C 
BRANCH  29  30
ATOM     30  C   UNL     1       3.355   5.205  -3.159  0.00  0.00    -0.026 A 
ATOM     31  C   UNL     1       4.108   4.471  -2.262  0.00  0.00    +0.005 A 
ATOM     32  C   UNL     1       5.382   4.057  -2.604  0.00  0.00    +0.000 A 
ATOM     33  C   UNL     1       5.906   4.386  -3.840  0.00  0.00    +0.000 A 
ATOM     34  C   UNL     1       5.155   5.124  -4.736  0.00  0.00    +0.000 A 
ATOM     35  C   UNL     1       3.880   5.534  -4.395  0.00  0.00    +0.005 A 
ENDBRANCH  29  30
ENDBRANCH  28  29
ENDBRANCH   1  24
TORSDOF 5
