REMARK  Name = ZINC57354739
REMARK  8 active torsions:
REMARK  status: ('A' for Active; 'I' for Inactive)
REMARK    1  A    between atoms: C_1  and  C_2
REMARK    2  A    between atoms: C_5  and  C_8
REMARK    3  A    between atoms: C_10  and  C_13
REMARK    4  A    between atoms: C_18  and  O_32
REMARK    5  A    between atoms: N_23  and  C_24
REMARK    6  A    between atoms: C_27  and  C_31
REMARK    7  A    between atoms: C_28  and  C_30
REMARK    8  A    between atoms: O_32  and  C_33
REMARK                            x       y       z     vdW  Elec       q    Type
REMARK                         _______ _______ _______ _____ _____    ______ ____
ROOT
ATOM      1  C   UNL     1       0.102  -7.480   1.577  0.00  0.00    +0.083 A 
ATOM      2  C   UNL     1       0.095  -7.317   2.942  0.00  0.00    +0.028 A 
ATOM      3  C   UNL     1       0.112  -8.526   3.768  0.00  0.00    +0.018 A 
ATOM      4  C   UNL     1      -0.160  -8.461   5.140  0.00  0.00    +0.015 A 
ATOM      5  C   UNL     1      -0.143  -9.602   5.890  0.00  0.00    +0.046 A 
ATOM      6  C   UNL     1       0.142 -10.831   5.300  0.00  0.00    +0.124 A 
ATOM      7  C   UNL     1       0.417 -10.914   3.944  0.00  0.00    +0.092 A 
ATOM      8  C   UNL     1       0.405  -9.767   3.169  0.00  0.00    +0.141 A 
ATOM      9  O   UNL     1       0.677  -9.824   1.842  0.00  0.00    -0.438 OA
ATOM     10  C   UNL     1       0.120  -8.860   1.061  0.00  0.00    +0.210 A 
ATOM     11  N   UNL     1      -0.384  -9.148  -0.121  0.00  0.00    -0.325 N 
ATOM     12  H   UNL     1      -0.774  -8.447  -0.666  0.00  0.00    +0.169 HD
ENDROOT
BRANCH  11  13
ATOM     13  C   UNL     1      -0.357 -10.435  -0.580  0.00  0.00    +0.042 A 
ATOM     14  C   UNL     1       0.803 -11.203  -0.451  0.00  0.00    +0.026 A 
ATOM     15  C   UNL     1       0.823 -12.501  -0.917  0.00  0.00    +0.005 A 
ATOM     16  C   UNL     1      -0.303 -13.043  -1.511  0.00  0.00    -0.047 A 
ATOM     17  C   UNL     1      -1.456 -12.289  -1.643  0.00  0.00    -0.046 A 
ATOM     18  C   UNL     1      -1.492 -10.992  -1.176  0.00  0.00    +0.029 A 
ATOM     19  C   UNL     1      -2.676 -12.889  -2.291  0.00  0.00    +0.044 C 
ATOM     20  C   UNL     1      -0.273 -14.462  -2.018  0.00  0.00    +0.044 C 
ENDBRANCH  11  13
BRANCH   1  23
ATOM     21  C   UNL     1       0.060  -4.251  -0.021  0.00  0.00    +0.259 A 
ATOM     22  N   UNL     1       0.070  -5.026   1.038  0.00  0.00    -0.187 NA
ATOM     23  C   UNL     1       0.087  -6.315   0.662  0.00  0.00    +0.207 A 
ATOM     24  N   UNL     1       0.087  -6.374  -0.649  0.00  0.00    -0.055 NA
ATOM     25  O   UNL     1       0.064  -5.033  -1.115  0.00  0.00    -0.332 OA
BRANCH  21  30
ATOM     26  C   UNL     1      -0.018   1.503   0.010  0.00  0.00    +0.044 C 
ATOM     27  C   UNL     1       0.002  -0.004   0.002  0.00  0.00    -0.050 A 
ATOM     28  C   UNL     1       0.006  -0.686  -1.202  0.00  0.00    +0.004 A 
ATOM     29  C   UNL     1       0.024  -2.066  -1.216  0.00  0.00    +0.013 A 
ATOM     30  C   UNL     1       0.040  -2.773  -0.013  0.00  0.00    +0.039 A 
ATOM     31  C   UNL     1       0.037  -2.079   1.198  0.00  0.00    +0.013 A 
ATOM     32  C   UNL     1       0.023  -0.699   1.198  0.00  0.00    +0.004 A 
ENDBRANCH  21  30
ENDBRANCH   1  23
BRANCH   6  33
ATOM     33  O   UNL     1       0.153 -11.956   6.060  0.00  0.00    -0.495 OA
ATOM     34  C   UNL     1      -0.138 -11.803   7.450  0.00  0.00    +0.277 C 
ENDBRANCH   6  33
TORSDOF 4
