REMARK  Name = ZINC16900793
REMARK  10 active torsions:
REMARK  status: ('A' for Active; 'I' for Inactive)
REMARK    1  A    between atoms: C_1  and  C_2
REMARK    2  A    between atoms: C_4  and  C_33
REMARK    3  A    between atoms: C_6  and  N_8
REMARK    4  A    between atoms: N_8  and  S_9
REMARK    5  A    between atoms: S_9  and  C_12
REMARK    6  A    between atoms: C_15  and  N_18
REMARK    7  A    between atoms: C_22  and  S_26
REMARK    8  A    between atoms: S_26  and  C_27
REMARK    9  A    between atoms: C_27  and  C_29
REMARK   10  A    between atoms: C_27  and  C_30
REMARK                            x       y       z     vdW  Elec       q    Type
REMARK                         _______ _______ _______ _____ _____    ______ ____
ROOT
ATOM      1  C   UNL     1       0.068  -3.010   5.080  0.00  0.00    +0.111 A 
ATOM      2  C   UNL     1      -1.098  -3.303   5.764  0.00  0.00    +0.031 A 
ATOM      3  C   UNL     1      -1.084  -4.226   6.791  0.00  0.00    +0.026 A 
ATOM      4  C   UNL     1       0.102  -4.861   7.136  0.00  0.00    +0.044 A 
ATOM      5  C   UNL     1       1.270  -4.566   6.446  0.00  0.00    +0.026 A 
ATOM      6  C   UNL     1       1.249  -3.645   5.417  0.00  0.00    +0.031 A 
ENDROOT
BRANCH   4   7
ATOM      7  N   UNL     1       0.119  -5.799   8.178  0.00  0.00    -0.209 N 
ATOM      8  C   UNL     1       0.759  -5.585   9.334  0.00  0.00    +0.228 C 
ATOM      9  O   UNL     1       1.383  -4.584   9.617  0.00  0.00    -0.275 OA
ATOM     10  C   UNL     1       0.579  -6.788  10.233  0.00  0.00    +0.120 C 
ATOM     11  C   UNL     1      -0.285  -7.745   9.387  0.00  0.00    +0.143 C 
ATOM     12  C   UNL     1      -0.507  -6.979   8.101  0.00  0.00    +0.240 C 
ATOM     13  O   UNL     1      -1.148  -7.374   7.150  0.00  0.00    -0.274 OA
BRANCH  11  14
ATOM     14  S   UNL     1       0.602  -9.296   9.073  0.00  0.00    -0.133 S 
BRANCH  14  15
ATOM     15  C   UNL     1      -0.615 -10.330   8.211  0.00  0.00    +0.157 C 
ATOM     16  C   UNL     1      -1.780 -10.640   9.153  0.00  0.00    +0.031 C 
BRANCH  15  17
ATOM     17  C   UNL     1       0.038 -11.618   7.779  0.00  0.00    +0.368 C 
ATOM     18  O   UNL     1       1.014 -12.038   8.377  0.00  0.00    -0.245 OA
ATOM     19  O   UNL     1      -0.411 -12.240   6.831  0.00  0.00    -0.245 OA
ENDBRANCH  15  17
ENDBRANCH  14  15
ENDBRANCH  11  14
ENDBRANCH   4   7
BRANCH   1  20
ATOM     20  S   UNL     1       0.046  -1.831   3.770  0.00  0.00    +0.094 S 
ATOM     21  O   UNL     1       1.372  -1.338   3.646  0.00  0.00    -0.148 OA
ATOM     22  O   UNL     1      -1.065  -0.978   4.011  0.00  0.00    -0.148 OA
BRANCH  20  23
ATOM     23  N   UNL     1      -0.286  -2.657   2.374  0.00  0.00    -0.058 NA
BRANCH  23  29
ATOM     24  C   UNL     1      -0.025   1.503   0.011  0.00  0.00    +0.066 C 
ATOM     25  C   UNL     1      -0.244   0.012   0.021  0.00  0.00    +0.044 A 
ATOM     26  C   UNL     1      -0.521  -0.664  -1.157  0.00  0.00    +0.046 A 
ATOM     27  C   UNL     1      -0.715  -2.035  -1.104  0.00  0.00    +0.044 A 
ATOM     28  N   UNL     1      -0.631  -2.654   0.062  0.00  0.00    -0.217 NA
ATOM     29  C   UNL     1      -0.365  -1.978   1.170  0.00  0.00    +0.258 A 
ATOM     30  N   UNL     1      -0.170  -0.667   1.153  0.00  0.00    -0.217 NA
ATOM     31  C   UNL     1      -1.018  -2.812  -2.359  0.00  0.00    +0.066 C 
ENDBRANCH  23  29
ENDBRANCH  20  23
ENDBRANCH   1  20
TORSDOF 7
