REMARK  Name = ZINC05066760
REMARK  5 active torsions:
REMARK  status: ('A' for Active; 'I' for Inactive)
REMARK    1  A    between atoms: C_1  and  C_2
REMARK    2  A    between atoms: C_8  and  N_9
REMARK    3  A    between atoms: C_8  and  N_52
REMARK    4  A    between atoms: C_12  and  C_16
REMARK    5  A    between atoms: C_12  and  C_22
REMARK                            x       y       z     vdW  Elec       q    Type
REMARK                         _______ _______ _______ _____ _____    ______ ____
ROOT
ATOM      1  N   UNL     1       2.358   0.428  -2.210  0.00  0.00    -0.241 N 
ATOM      2  C   UNL     1       2.099   1.483  -1.414  0.00  0.00    +0.254 C 
ATOM      3  O   UNL     1       1.646   2.558  -1.746  0.00  0.00    -0.272 OA
ATOM      4  C   UNL     1       2.490   1.048  -0.016  0.00  0.00    +0.164 C 
ATOM      5  N   UNL     1       2.969  -0.333  -0.205  0.00  0.00    -0.278 N 
ATOM      6  C   UNL     1       2.854  -0.604  -1.517  0.00  0.00    +0.308 C 
ATOM      7  O   UNL     1       3.164  -1.667  -2.017  0.00  0.00    -0.252 OA
ATOM      8  H   UNL     1       3.303  -0.930   0.483  0.00  0.00    +0.152 HD
ENDROOT
BRANCH   4   9
ATOM      9  C   UNL     1       1.295   1.073   0.902  0.00  0.00    -0.011 A 
ATOM     10  C   UNL     1       0.988  -0.036   1.667  0.00  0.00    +0.006 A 
ATOM     11  C   UNL     1      -0.112  -0.015   2.505  0.00  0.00    +0.000 A 
ATOM     12  C   UNL     1      -0.899   1.119   2.584  0.00  0.00    +0.000 A 
ATOM     13  C   UNL     1      -0.591   2.228   1.819  0.00  0.00    +0.000 A 
ATOM     14  C   UNL     1       0.506   2.205   0.978  0.00  0.00    +0.006 A 
ENDBRANCH   4   9
BRANCH   4  15
ATOM     15  C   UNL     1       3.591   1.921   0.527  0.00  0.00    -0.011 A 
ATOM     16  C   UNL     1       3.477   3.298   0.463  0.00  0.00    +0.006 A 
ATOM     17  C   UNL     1       4.484   4.099   0.966  0.00  0.00    +0.000 A 
ATOM     18  C   UNL     1       5.612   3.525   1.522  0.00  0.00    +0.000 A 
ATOM     19  C   UNL     1       5.729   2.149   1.581  0.00  0.00    +0.000 A 
ATOM     20  C   UNL     1       4.719   1.347   1.083  0.00  0.00    +0.006 A 
ENDBRANCH   4  15
BRANCH   1  21
ATOM     21  C   UNL     1       2.127   0.412  -3.657  0.00  0.00    +0.043 C 
BRANCH  21  28
ATOM     22  C   UNL     1      -1.592   0.339  -6.875  0.00  0.00    +0.005 C 
ATOM     23  C   UNL     1      -1.076  -0.200  -5.539  0.00  0.00    -0.031 C 
ATOM     24  C   UNL     1      -2.071   0.149  -4.428  0.00  0.00    -0.001 C 
ATOM     25  C   UNL     1      -1.518  -0.341  -3.087  0.00  0.00    -0.018 C 
ATOM     26  C   UNL     1      -0.149   0.297  -2.841  0.00  0.00    -0.077 C 
ATOM     27  C   UNL     1       0.280   0.434  -5.222  0.00  0.00    -0.073 C 
ATOM     28  N   UNL     1       0.767  -0.098  -3.931  0.00  0.00    +0.391 N 
ATOM     29  H   UNL     1       0.800  -1.123  -3.984  0.00  0.00    -0.079 HD
ENDBRANCH  21  28
ENDBRANCH   1  21
TORSDOF 4
