REMARK  Name = ZINC43743486
REMARK  14 active torsions:
REMARK  status: ('A' for Active; 'I' for Inactive)
REMARK    1  A    between atoms: CD1_1  and  CG1_2
REMARK    2  A    between atoms: CG1_2  and  CB_3
REMARK    3  A    between atoms: CB_3  and  CG2_5
REMARK    4  A    between atoms: CB_3  and  CA_6
REMARK    5  A    between atoms: CA_6  and  C_8
REMARK    6  A    between atoms: CA_6  and  N_11
REMARK    7  A    between atoms: C_12  and  C_14
REMARK    8  A    between atoms: C_14  and  O_15
REMARK    9  A    between atoms: O_15  and  N_16
REMARK   10  A    between atoms: C_20  and  C_42
REMARK   11  A    between atoms: C_25  and  C_41
REMARK   12  A    between atoms: C_36  and  C_37
REMARK   13  A    between atoms: C_36  and  O_40
REMARK   14  A    between atoms: C_37  and  C_39
REMARK                            x       y       z     vdW  Elec       q    Type
REMARK                         _______ _______ _______ _____ _____    ______ ____
ROOT
ATOM      1  N   UNK A   0       2.330  -5.898  -7.216  0.00  0.00    -0.089 NA
ATOM      2  C   UNK A   0       1.829  -7.066  -7.465  0.00  0.00    +0.080 C 
ATOM      3  C   UNK A   0       0.737  -7.672  -6.604  0.00  0.00    +0.059 C 
ATOM      4  C   UNK A   0       1.196  -9.072  -6.195  0.00  0.00    +0.017 C 
ATOM      5  C   UNK A   0       1.547  -9.930  -7.385  0.00  0.00    -0.007 C 
ATOM      6  C   UNK A   0       0.359 -10.773  -7.851  0.00  0.00    +0.002 C 
ATOM      7  C   UNK A   0      -0.184 -11.582  -6.677  0.00  0.00    +0.005 C 
ATOM      8  C   UNK A   0      -1.300 -12.543  -7.119  0.00  0.00    +0.010 C 
ATOM      9  C   UNK A   0      -0.719 -13.441  -8.194  0.00  0.00    +0.007 C 
ATOM     10  C   UNK A   0      -0.366 -12.538  -9.406  0.00  0.00    +0.002 C 
ATOM     11  C   UNK A   0       0.827 -11.701  -8.985  0.00  0.00    -0.003 C 
ATOM     12  C   UNK A   0       1.307 -10.868 -10.174  0.00  0.00    +0.008 C 
ATOM     13  C   UNK A   0       2.523 -10.029  -9.768  0.00  0.00    +0.031 C 
ATOM     14  C   UNK A   0       2.130  -9.202  -8.556  0.00  0.00    -0.062 C 
ATOM     15  C   UNK A   0       2.282  -7.884  -8.608  0.00  0.00    +0.026 C 
ATOM     16  C   UNK A   0      -0.099 -13.577 -10.501  0.00  0.00    +0.008 C 
ATOM     17  C   UNK A   0      -1.230 -14.617 -10.275  0.00  0.00    +0.043 C 
ATOM     18  C   UNK A   0      -1.661 -14.480  -8.794  0.00  0.00    +0.129 C 
ATOM     19  C   UNK A   0       0.544 -14.128  -7.669  0.00  0.00    +0.015 C 
ATOM     20  C   UNK A   0       2.610 -10.925  -6.914  0.00  0.00    +0.016 C 
ENDROOT
BRANCH  18  21
ATOM     21  C   UNK A   0      -3.088 -14.003  -8.708  0.00  0.00    +0.162 C 
ATOM     22  O   UNK A   0      -3.332 -12.820  -8.743  0.00  0.00    -0.295 OA
ATOM     23  C   UNK A   0      -4.210 -15.000  -8.578  0.00  0.00    +0.089 C 
ENDBRANCH  18  21
BRANCH  18  24
ATOM     24  O   UNK A   0      -1.514 -15.730  -8.118  0.00  0.00    -0.381 OA
ATOM     25  H   UNK A   0      -2.089 -16.430  -8.457  0.00  0.00    +0.211 HD
ENDBRANCH  18  24
BRANCH   1  26
ATOM     26  O   UNK A   0       1.865  -5.149  -6.109  0.00  0.00    -0.384 OA
BRANCH  26  27
ATOM     27  C   UNK A   0       2.505  -3.881  -5.954  0.00  0.00    +0.358 C 
BRANCH  27  29
ATOM     28  N   ILE A   1       2.390  -1.953  -4.409  0.00  0.00    -0.299 N 
ATOM     29  C   UNK A   0       1.935  -3.174  -4.751  0.00  0.00    +0.254 C 
ATOM     30  O   UNK A   0       1.066  -3.704  -4.091  0.00  0.00    -0.272 OA
ATOM     31  H   ILE A   1       3.085  -1.529  -4.936  0.00  0.00    +0.150 HD
BRANCH  28  32
ATOM     32  CA  ILE A   1       1.837  -1.266  -3.239  0.00  0.00    +0.189 C 
BRANCH  32  33
ATOM     33  C   ILE A   1       2.558  -1.724  -1.998  0.00  0.00    +0.376 C 
ATOM     34  O   ILE A   1       1.976  -1.745  -0.927  0.00  0.00    -0.244 OA
ATOM     35  OXT ILE A   1       3.724  -2.075  -2.066  0.00  0.00    -0.244 OA
ENDBRANCH  32  33
BRANCH  32  36
ATOM     36  CB  ILE A   1       2.014   0.245  -3.404  0.00  0.00    +0.017 C 
ATOM     37  CG2 ILE A   1       3.504   0.572  -3.530  0.00  0.00    +0.010 C 
BRANCH  36  39
ATOM     38  CD1 ILE A   1       1.501   2.475  -2.402  0.00  0.00    +0.004 C 
ATOM     39  CG1 ILE A   1       1.436   0.963  -2.183  0.00  0.00    +0.002 C 
ENDBRANCH  36  39
ENDBRANCH  32  36
ENDBRANCH  28  32
ENDBRANCH  27  29
ENDBRANCH  26  27
ENDBRANCH   1  26
TORSDOF 9
