REMARK  Name = ZINC62822794
REMARK  4 active torsions:
REMARK  status: ('A' for Active; 'I' for Inactive)
REMARK    1  A    between atoms: C_1  and  C_2
REMARK    2  A    between atoms: C_6  and  C_20
REMARK    3  A    between atoms: C_10  and  C_12
REMARK    4  A    between atoms: C_17  and  N_18
REMARK                            x       y       z     vdW  Elec       q    Type
REMARK                         _______ _______ _______ _____ _____    ______ ____
ROOT
ATOM      1  C   UNL     1       0.503   2.323   0.132  0.00  0.00    +0.028 C 
ATOM      2  C   UNL     1       0.777   0.882  -0.304  0.00  0.00    +0.073 C 
ATOM      3  C   UNL     1      -0.543   0.194  -0.663  0.00  0.00    +0.023 C 
ATOM      4  C   UNL     1      -0.279  -1.283  -0.964  0.00  0.00    +0.016 C 
ATOM      5  C   UNL     1       0.298  -1.964   0.280  0.00  0.00    +0.092 C 
ATOM      6  C   UNL     1       1.629  -1.300   0.649  0.00  0.00    +0.121 C 
ATOM      7  N   UNL     1       1.414   0.147   0.797  0.00  0.00    -0.294 N 
ATOM      8  C   UNL     1       1.789   0.786   1.923  0.00  0.00    +0.249 C 
ATOM      9  O   UNL     1       1.516   1.961   2.075  0.00  0.00    -0.270 OA
ENDROOT
BRANCH   8  10
ATOM     10  C   UNL     1       2.531   0.060   2.969  0.00  0.00    +0.058 A 
ATOM     11  C   UNL     1       3.660  -0.695   2.635  0.00  0.00    +0.018 A 
ATOM     12  C   UNL     1       4.349  -1.370   3.616  0.00  0.00    +0.039 A 
ATOM     13  C   UNL     1       3.930  -1.306   4.938  0.00  0.00    +0.125 A 
ATOM     14  C   UNL     1       2.816  -0.564   5.284  0.00  0.00    +0.061 A 
ATOM     15  C   UNL     1       2.113   0.128   4.307  0.00  0.00    +0.040 A 
ATOM     16  F   UNL     1       4.615  -1.974   5.893  0.00  0.00    -0.205 F 
BRANCH  15  17
ATOM     17  N   UNL     1       0.997   0.880   4.652  0.00  0.00    -0.357 N 
ATOM     18  H   UNL     1       0.449   1.280   3.959  0.00  0.00    +0.142 HD
ATOM     19  H   UNL     1       0.766   1.005   5.586  0.00  0.00    +0.142 HD
ENDBRANCH  15  17
ENDBRANCH   8  10
BRANCH   5  20
ATOM     20  C   UNL     1       0.528  -3.425  -0.007  0.00  0.00    +0.215 C 
ATOM     21  O   UNL     1       0.256  -3.879  -1.099  0.00  0.00    -0.276 OA
ATOM     22  N   UNL     1       1.034  -4.228   0.949  0.00  0.00    -0.329 N 
ATOM     23  H   UNL     1       1.252  -3.865   1.822  0.00  0.00    +0.145 HD
ATOM     24  H   UNL     1       1.182  -5.169   0.765  0.00  0.00    +0.145 HD
ENDBRANCH   5  20
TORSDOF 3
