REMARK  Name = ZINC28058372
REMARK  4 active torsions:
REMARK  status: ('A' for Active; 'I' for Inactive)
REMARK    1  A    between atoms: C_1  and  O_2
REMARK    2  A    between atoms: O_2  and  C_3
REMARK    3  A    between atoms: C_8  and  C_9
REMARK    4  A    between atoms: C_20  and  C_22
REMARK                            x       y       z     vdW  Elec       q    Type
REMARK                         _______ _______ _______ _____ _____    ______ ____
ROOT
ATOM      1  C   UNL     1      -0.045   3.502   0.584  0.00  0.00    +0.177 C 
ATOM      2  C   UNL     1       1.282   2.880   0.224  0.00  0.00    +0.026 C 
ATOM      3  C   UNL     1       1.401   1.595  -0.115  0.00  0.00    +0.050 C 
ATOM      4  C   UNL     1       2.744   1.081  -0.474  0.00  0.00    +0.039 A 
ATOM      5  C   UNL     1       3.016  -0.281  -0.507  0.00  0.00    +0.033 A 
ATOM      6  C   UNL     1       4.283  -0.715  -0.851  0.00  0.00    +0.042 A 
ATOM      7  C   UNL     1       5.275   0.201  -1.161  0.00  0.00    +0.023 A 
ATOM      8  C   UNL     1       5.011   1.559  -1.129  0.00  0.00    +0.048 A 
ATOM      9  C   UNL     1       3.749   2.006  -0.786  0.00  0.00    +0.131 A 
ATOM     10  O   UNL     1       3.453   3.330  -0.738  0.00  0.00    -0.479 OA
ATOM     11  C   UNL     1       2.518   3.751   0.255  0.00  0.00    +0.234 C 
ATOM     12 CL   UNL     1       4.633  -2.415  -0.894  0.00  0.00    -0.084 Cl
ATOM     13  N   UNL     1       0.302   0.729  -0.157  0.00  0.00    -0.282 N 
ATOM     14  C   UNL     1      -0.959   1.301  -0.125  0.00  0.00    +0.240 A 
ATOM     15  N   UNL     1      -1.133   2.605   0.221  0.00  0.00    -0.201 N 
ATOM     16  N   UNL     1      -2.506   2.830   0.140  0.00  0.00    -0.042 NA
ATOM     17  N   UNL     1      -3.042   1.708  -0.233  0.00  0.00    -0.021 NA
ATOM     18  N   UNL     1      -2.135   0.805  -0.381  0.00  0.00    -0.092 NA
ATOM     19  H   UNL     1       0.460  -0.358  -0.213  0.00  0.00    +0.155 HD
ENDROOT
BRANCH  11  20
ATOM     20  C   UNL     1       3.160   3.653   1.615  0.00  0.00    -0.003 A 
ATOM     21  C   UNL     1       3.056   4.705   2.505  0.00  0.00    +0.009 A 
ATOM     22  C   UNL     1       3.640   4.614   3.755  0.00  0.00    +0.020 A 
ATOM     23  C   UNL     1       4.338   3.473   4.110  0.00  0.00    +0.041 A 
ATOM     24  C   UNL     1       4.446   2.423   3.216  0.00  0.00    +0.020 A 
ATOM     25  C   UNL     1       3.857   2.513   1.969  0.00  0.00    +0.009 A 
ATOM     26 CL   UNL     1       5.077   3.361   5.677  0.00  0.00    -0.084 Cl
ENDBRANCH  11  20
BRANCH   1  32
ATOM     27  C   UNL     1      -0.260   5.057   2.538  0.00  0.00    +0.126 A 
ATOM     28  C   UNL     1      -0.299   5.296   3.905  0.00  0.00    +0.046 A 
ATOM     29  C   UNL     1      -0.166   4.246   4.792  0.00  0.00    +0.004 A 
ATOM     30  C   UNL     1       0.006   2.957   4.320  0.00  0.00    +0.001 A 
ATOM     31  C   UNL     1       0.040   2.716   2.959  0.00  0.00    +0.009 A 
ATOM     32  C   UNL     1      -0.087   3.764   2.067  0.00  0.00    +0.023 A 
BRANCH  27  34
ATOM     33  C   UNL     1      -0.565   7.393   2.220  0.00  0.00    +0.277 C 
ATOM     34  O   UNL     1      -0.391   6.089   1.663  0.00  0.00    -0.495 OA
ENDBRANCH  27  34
ENDBRANCH   1  32
TORSDOF 3
