REMARK  Name = ZINC39682517
REMARK  8 active torsions:
REMARK  status: ('A' for Active; 'I' for Inactive)
REMARK    1  A    between atoms: C_4  and  C_7
REMARK    2  A    between atoms: C_7  and  C_9
REMARK    3  A    between atoms: C_7  and  N_13
REMARK    4  A    between atoms: C_9  and  C_10
REMARK    5  A    between atoms: C_14  and  C_16
REMARK    6  A    between atoms: C_27  and  C_29
REMARK    7  A    between atoms: C_34  and  O_35
REMARK    8  A    between atoms: O_35  and  C_36
REMARK                            x       y       z     vdW  Elec       q    Type
REMARK                         _______ _______ _______ _____ _____    ______ ____
ROOT
ATOM      1  C   UNL     1       4.077  -2.929  -2.999  0.00  0.00    +0.100 C 
ATOM      2  C   UNL     1       3.375  -3.951  -2.077  0.00  0.00    +0.121 C 
ATOM      3  N   UNL     1       4.051  -5.239  -2.364  0.00  0.00    -0.296 N 
ATOM      4  C   UNL     1       5.480  -4.878  -2.523  0.00  0.00    +0.115 C 
ATOM      5  C   UNL     1       5.458  -3.540  -3.289  0.00  0.00    -0.004 C 
ATOM      6  C   UNL     1       6.561  -2.621  -2.775  0.00  0.00    -0.010 C 
ATOM      7  C   UNL     1       7.925  -3.221  -3.126  0.00  0.00    -0.082 C 
ATOM      8  N   UNL     1       8.031  -3.381  -4.582  0.00  0.00    +0.379 N 
ATOM      9  C   UNL     1       7.025  -4.340  -5.055  0.00  0.00    -0.082 C 
ATOM     10  C   UNL     1       5.623  -3.786  -4.785  0.00  0.00    -0.010 C 
ATOM     11  C   UNL     1       3.491  -6.461  -2.459  0.00  0.00    +0.252 C 
ATOM     12  O   UNL     1       4.196  -7.442  -2.604  0.00  0.00    -0.270 OA
ATOM     13  H   UNL     1       7.881  -2.489  -5.029  0.00  0.00    -0.086 HD
ATOM     14  H   UNL     1       8.953  -3.720  -4.815  0.00  0.00    -0.086 HD
ENDROOT
BRANCH  11  15
ATOM     15  C   UNL     1       2.026  -6.610  -2.386  0.00  0.00    +0.099 A 
ATOM     16  C   UNL     1       1.266  -5.787  -1.546  0.00  0.00    +0.020 A 
ATOM     17  C   UNL     1      -0.105  -5.966  -1.515  0.00  0.00    +0.021 A 
ATOM     18  C   UNL     1      -0.682  -6.943  -2.307  0.00  0.00    +0.114 A 
ATOM     19  N   UNL     1       0.053  -7.708  -3.091  0.00  0.00    -0.220 NA
ATOM     20  C   UNL     1       1.366  -7.575  -3.163  0.00  0.00    +0.233 A 
BRANCH  20  21
ATOM     21  O   UNL     1       2.080  -8.379  -3.986  0.00  0.00    -0.437 OA
BRANCH  21  22
ATOM     22  C   UNL     1       1.398  -9.226  -4.800  0.00  0.00    +0.130 A 
ATOM     23  C   UNL     1       1.336 -10.579  -4.500  0.00  0.00    +0.046 A 
ATOM     24  C   UNL     1       0.641 -11.438  -5.329  0.00  0.00    +0.004 A 
ATOM     25  C   UNL     1       0.007 -10.951  -6.457  0.00  0.00    +0.000 A 
ATOM     26  C   UNL     1       0.067  -9.603  -6.759  0.00  0.00    +0.004 A 
ATOM     27  C   UNL     1       0.756  -8.738  -5.930  0.00  0.00    +0.046 A 
ENDBRANCH  21  22
ENDBRANCH  20  21
ENDBRANCH  11  15
BRANCH   1  29
ATOM     28  N   UNL     1       4.225  -0.460  -3.008  0.00  0.00    -0.308 N 
ATOM     29  C   UNL     1       4.226  -1.604  -2.296  0.00  0.00    +0.219 C 
ATOM     30  O   UNL     1       4.348  -1.568  -1.090  0.00  0.00    -0.275 OA
ATOM     31  H   UNL     1       4.201  -0.491  -3.977  0.00  0.00    +0.149 HD
BRANCH  28  32
ATOM     32  C   UNL     1       4.260   0.832  -2.318  0.00  0.00    +0.114 C 
BRANCH  32  36
ATOM     33  C   UNL     1       5.677   3.840  -5.000  0.00  0.00    +0.000 A 
ATOM     34  C   UNL     1       6.085   3.844  -3.679  0.00  0.00    +0.000 A 
ATOM     35  C   UNL     1       5.626   2.870  -2.811  0.00  0.00    +0.005 A 
ATOM     36  C   UNL     1       4.759   1.894  -3.264  0.00  0.00    -0.027 A 
ATOM     37  C   UNL     1       4.350   1.891  -4.585  0.00  0.00    +0.005 A 
ATOM     38  C   UNL     1       4.810   2.863  -5.453  0.00  0.00    +0.000 A 
ENDBRANCH  32  36
BRANCH  32  39
ATOM     39  C   UNL     1       2.851   1.194  -1.843  0.00  0.00    +0.152 C 
BRANCH  39  40
ATOM     40  C   UNL     1       2.913   2.431  -0.984  0.00  0.00    +0.358 C 
ATOM     41  O   UNL     1       3.976   3.006  -0.819  0.00  0.00    -0.246 OA
ATOM     42  O   UNL     1       1.901   2.858  -0.455  0.00  0.00    -0.246 OA
ENDBRANCH  39  40
ENDBRANCH  32  39
ENDBRANCH  28  32
ENDBRANCH   1  29
TORSDOF 8
