REMARK  Name = ZINC51394345
REMARK  5 active torsions:
REMARK  status: ('A' for Active; 'I' for Inactive)
REMARK    1  A    between atoms: C_3  and  N_19
REMARK    2  A    between atoms: C_6  and  S_7
REMARK    3  A    between atoms: S_7  and  C_8
REMARK    4  A    between atoms: C_8  and  C_9
REMARK    5  A    between atoms: C_13  and  C_16
REMARK                            x       y       z     vdW  Elec       q    Type
REMARK                         _______ _______ _______ _____ _____    ______ ____
ROOT
ATOM      1  S   UNL     1      -1.505  -0.917   0.012  0.00  0.00    -0.121 S 
ENDROOT
BRANCH   1   7
ATOM      2  C   UNL     1      -0.017   1.390   0.010  0.00  0.00    +0.019 A 
ATOM      3  C   UNL     1       1.190   2.065   0.002  0.00  0.00    +0.044 A 
ATOM      4  C   UNL     1       2.374   1.337  -0.013  0.00  0.00    +0.116 A 
ATOM      5  N   UNL     1       2.355   0.013  -0.020  0.00  0.00    -0.240 NA
ATOM      6  C   UNL     1       1.222  -0.664  -0.013  0.00  0.00    +0.127 A 
ATOM      7  C   UNL     1       0.002  -0.004   0.002  0.00  0.00    +0.026 A 
BRANCH   4   8
ATOM      8  N   UNL     1       3.596   2.007  -0.022  0.00  0.00    -0.343 N 
ATOM      9  H   UNL     1       3.616   2.977  -0.017  0.00  0.00    +0.144 HD
ATOM     10  H   UNL     1       4.425   1.505  -0.033  0.00  0.00    +0.144 HD
ENDBRANCH   4   8
ENDBRANCH   1   7
BRANCH   1  11
ATOM     11  C   UNL     1      -0.969  -2.650  -0.003  0.00  0.00    +0.106 C 
BRANCH  11  12
ATOM     12  C   UNL     1      -2.196  -3.563   0.005  0.00  0.00    +0.130 C 
ATOM     13  C   UNL     1      -1.751  -5.037   0.114  0.00  0.00    +0.035 C 
ATOM     14  C   UNL     1      -2.744  -5.753  -0.842  0.00  0.00    +0.046 C 
ATOM     15  C   UNL     1      -2.936  -4.669  -1.932  0.00  0.00    +0.231 C 
ATOM     16  O   UNL     1      -2.918  -3.417  -1.224  0.00  0.00    -0.361 OA
BRANCH  15  17
ATOM     17  C   UNL     1      -4.259  -4.858  -2.629  0.00  0.00    +0.384 C 
ATOM     18  O   UNL     1      -5.128  -4.009  -2.527  0.00  0.00    -0.243 OA
ATOM     19  O   UNL     1      -4.459  -5.859  -3.296  0.00  0.00    -0.243 OA
ENDBRANCH  15  17
ENDBRANCH  11  12
ENDBRANCH   1  11
TORSDOF 5
