REMARK  Name = ZINC63686284
REMARK  4 active torsions:
REMARK  status: ('A' for Active; 'I' for Inactive)
REMARK    1  A    between atoms: C_6  and  C_7
REMARK    2  A    between atoms: N_9  and  C_10
REMARK    3  A    between atoms: C_10  and  C_11
REMARK    4  A    between atoms: C_11  and  C_12
REMARK                            x       y       z     vdW  Elec       q    Type
REMARK                         _______ _______ _______ _____ _____    ______ ____
ROOT
ATOM      1  C   UNL     1      -1.265  -0.760  -0.006  0.00  0.00    +0.244 C 
ATOM      2  O   UNL     1      -1.248  -1.975  -0.013  0.00  0.00    -0.270 OA
ATOM      3  N   UNL     1      -2.442  -0.102  -0.006  0.00  0.00    -0.311 N 
ATOM      4  H   UNL     1      -2.455   0.868  -0.001  0.00  0.00    +0.149 HD
ENDROOT
BRANCH   1  10
ATOM      5  C   UNL     1      -0.017   1.393   0.010  0.00  0.00    +0.015 A 
ATOM      6  C   UNL     1       1.168   2.097   0.002  0.00  0.00    +0.026 A 
ATOM      7  C   UNL     1       2.383   1.421  -0.002  0.00  0.00    +0.052 A 
ATOM      8  C   UNL     1       2.409   0.028   0.015  0.00  0.00    +0.051 A 
ATOM      9  C   UNL     1       1.223  -0.685   0.003  0.00  0.00    +0.038 A 
ATOM     10  C   UNL     1       0.002  -0.004   0.002  0.00  0.00    +0.039 A 
ATOM     11  N   UNL     1       3.741  -0.413   0.078  0.00  0.00    -0.324 N 
ATOM     12  C   UNL     1       4.556   0.791   0.214  0.00  0.00    +0.158 C 
ATOM     13  N   UNL     1       3.701   1.930  -0.063  0.00  0.00    -0.310 N 
ATOM     14  C   UNL     1       3.961   3.310  -0.412  0.00  0.00    +0.107 C 
ATOM     15  C   UNL     1       4.144   3.440  -1.937  0.00  0.00    +0.019 C 
ATOM     16  C   UNL     1       5.352   2.650  -2.328  0.00  0.00    +0.002 C 
ATOM     17  C   UNL     1       5.257   1.158  -2.128  0.00  0.00    +0.003 C 
ATOM     18  C   UNL     1       5.752   0.761  -0.764  0.00  0.00    +0.042 C 
ATOM     19  H   UNL     1       4.055  -1.330   0.039  0.00  0.00    +0.148 HD
ENDBRANCH   1  10
BRANCH   3  20
ATOM     20  C   UNL     1      -3.700  -0.853  -0.015  0.00  0.00    +0.109 C 
BRANCH  20  21
ATOM     21  C   UNL     1      -4.877   0.125  -0.013  0.00  0.00    +0.052 C 
BRANCH  21  22
ATOM     22  C   UNL     1      -6.171  -0.646  -0.021  0.00  0.00    -0.040 C 
ATOM     23  C   UNL     1      -6.924  -0.983   1.050  0.00  0.00    +0.000 A 
ATOM     24  C   UNL     1      -6.768  -0.742   2.490  0.00  0.00    +0.030 A 
ATOM     25  C   UNL     1      -7.709  -1.214   3.340  0.00  0.00    +0.042 A 
ATOM     26  C   UNL     1      -8.826  -1.928   2.881  0.00  0.00    +0.022 A 
ATOM     27  C   UNL     1      -9.037  -2.189   1.573  0.00  0.00    +0.027 A 
ATOM     28  C   UNL     1      -8.112  -1.738   0.592  0.00  0.00    +0.043 A 
ATOM     29  N   UNL     1      -8.094  -1.864  -0.713  0.00  0.00    -0.380 N 
ATOM     30  C   UNL     1      -6.894  -1.196  -1.231  0.00  0.00    +0.144 C 
ATOM     31 CL   UNL     1      -7.529  -0.931   5.043  0.00  0.00    -0.084 Cl
ATOM     32  H   UNL     1      -8.763  -2.318  -1.248  0.00  0.00    +0.160 HD
ENDBRANCH  21  22
ENDBRANCH  20  21
ENDBRANCH   3  20
TORSDOF 4
