REMARK  Name = ZINC27099731
REMARK  14 active torsions:
REMARK  status: ('A' for Active; 'I' for Inactive)
REMARK    1  A    between atoms: C_1  and  C_2
REMARK    2  A    between atoms: C_2  and  C_3
REMARK    3  A    between atoms: C_3  and  N_4
REMARK    4  A    between atoms: N_4  and  C_5
REMARK    5  A    between atoms: N_4  and  C_30
REMARK    6  A    between atoms: C_5  and  C_6
REMARK    7  A    between atoms: C_7  and  O_29
REMARK    8  A    between atoms: C_14  and  O_17
REMARK    9  A    between atoms: O_17  and  C_18
REMARK   10  A    between atoms: C_21  and  C_24
REMARK   11  A    between atoms: C_24  and  O_26
REMARK   12  A    between atoms: O_26  and  C_27
REMARK   13  A    between atoms: C_27  and  C_28
REMARK   14  A    between atoms: C_30  and  C_31
REMARK                            x       y       z     vdW  Elec       q    Type
REMARK                         _______ _______ _______ _____ _____    ______ ____
ROOT
ATOM      1  C   UNL     1       1.317  -1.263   0.168  0.00  0.00    +0.020 A 
ATOM      2  C   UNL     1       0.066  -0.688   0.024  0.00  0.00    +0.122 A 
ATOM      3  C   UNL     1      -0.088   0.696   0.070  0.00  0.00    +0.046 A 
ATOM      4  C   UNL     1       0.995   1.506   0.258  0.00  0.00    +0.019 A 
ATOM      5  C   UNL     1       2.263   0.942   0.405  0.00  0.00    +0.068 A 
ATOM      6  C   UNL     1       2.428  -0.454   0.360  0.00  0.00    +0.143 A 
ATOM      7  O   UNL     1       3.658  -0.987   0.504  0.00  0.00    -0.459 OA
ATOM      8  C   UNL     1       4.750  -0.234   0.692  0.00  0.00    +0.245 A 
ATOM      9  C   UNL     1       4.706   1.112   0.751  0.00  0.00    +0.210 A 
ATOM     10  C   UNL     1       3.456   1.781   0.611  0.00  0.00    +0.235 A 
ATOM     11  O   UNL     1       3.378   2.997   0.659  0.00  0.00    -0.283 OA
ENDROOT
BRANCH   2  12
ATOM     12  O   UNL     1      -1.020  -1.480  -0.164  0.00  0.00    -0.506 OA
ATOM     13  H   UNL     1      -2.017  -1.029  -0.279  0.00  0.00    +0.292 HD
ENDBRANCH   2  12
BRANCH   1  14
ATOM     14  C   UNL     1       1.472  -2.761   0.117  0.00  0.00    -0.036 C 
BRANCH  14  15
ATOM     15  N   UNL     1       1.711  -3.182  -1.270  0.00  0.00    +0.383 N 
ATOM     16  H   UNL     1       0.920  -2.744  -1.897  0.00  0.00    -0.081 HD
BRANCH  15  17
ATOM     17  C   UNL     1       3.003  -2.680  -1.757  0.00  0.00    -0.079 C 
BRANCH  17  19
ATOM     18  C   UNL     1       5.477  -2.757  -1.416  0.00  0.00    +0.002 C 
ATOM     19  C   UNL     1       4.137  -3.358  -0.986  0.00  0.00    -0.022 C 
ENDBRANCH  17  19
ENDBRANCH  15  17
BRANCH  15  20
ATOM     20  C   UNL     1       1.632  -4.643  -1.397  0.00  0.00    -0.075 C 
BRANCH  20  21
ATOM     21  C   UNL     1       1.506  -5.020  -2.875  0.00  0.00    -0.028 C 
ATOM     22  C   UNL     1       0.188  -5.645  -3.335  0.00  0.00    +0.002 C 
ATOM     23  C   UNL     1       1.445  -6.508  -3.222  0.00  0.00    +0.002 C 
ENDBRANCH  20  21
ENDBRANCH  15  20
ENDBRANCH  14  15
ENDBRANCH   1  14
BRANCH   9  24
ATOM     24  O   UNL     1       5.848   1.827   0.944  0.00  0.00    -0.449 OA
BRANCH  24  25
ATOM     25  C   UNL     1       6.997   1.143   1.169  0.00  0.00    +0.129 A 
ATOM     26  C   UNL     1       7.526   1.079   2.453  0.00  0.00    +0.047 A 
ATOM     27  C   UNL     1       8.689   0.381   2.687  0.00  0.00    +0.018 A 
ATOM     28  C   UNL     1       9.345  -0.255   1.628  0.00  0.00    +0.059 A 
ATOM     29  C   UNL     1       8.814  -0.183   0.337  0.00  0.00    +0.018 A 
ATOM     30  C   UNL     1       7.647   0.513   0.113  0.00  0.00    +0.047 A 
BRANCH  28  31
ATOM     31  C   UNL     1      10.594  -1.000   1.873  0.00  0.00    +0.339 C 
ATOM     32  O   UNL     1      11.163  -1.552   0.952  0.00  0.00    -0.245 OA
BRANCH  31  33
ATOM     33  O   UNL     1      11.105  -1.068   3.118  0.00  0.00    -0.461 OA
BRANCH  33  34
ATOM     34  C   UNL     1      12.337  -1.817   3.285  0.00  0.00    +0.229 C 
ATOM     35  C   UNL     1      12.760  -1.783   4.755  0.00  0.00    +0.048 C 
ENDBRANCH  33  34
ENDBRANCH  31  33
ENDBRANCH  28  31
ENDBRANCH  24  25
ENDBRANCH   9  24
TORSDOF 12
