REMARK  Name = ZINC34688093
REMARK  9 active torsions:
REMARK  status: ('A' for Active; 'I' for Inactive)
REMARK    1  A    between atoms: C_1  and  C_2
REMARK    2  A    between atoms: C_2  and  C_4
REMARK    3  A    between atoms: C_7  and  N_10
REMARK    4  A    between atoms: C_26  and  C_32
REMARK    5  A    between atoms: C_32  and  C_34
REMARK    6  A    between atoms: C_36  and  O_42
REMARK    7  A    between atoms: C_39  and  O_40
REMARK    8  A    between atoms: O_40  and  C_41
REMARK    9  A    between atoms: O_42  and  C_43
REMARK                            x       y       z     vdW  Elec       q    Type
REMARK                         _______ _______ _______ _____ _____    ______ ____
ROOT
ATOM      1  N   UNL     1      -0.008  -2.796  -4.896  0.00  0.00    -0.210 N 
ATOM      2  C   UNL     1       0.097  -4.133  -4.974  0.00  0.00    +0.232 C 
ATOM      3  O   UNL     1       0.340  -4.881  -4.052  0.00  0.00    -0.274 OA
ATOM      4  C   UNL     1      -0.142  -4.544  -6.411  0.00  0.00    +0.115 C 
ATOM      5  C   UNL     1       0.950  -5.497  -6.891  0.00  0.00    +0.117 C 
ATOM      6  C   UNL     1       1.484  -6.346  -5.767  0.00  0.00    -0.019 A 
ATOM      7  C   UNL     1       0.666  -6.779  -4.750  0.00  0.00    +0.006 A 
ATOM      8  C   UNL     1       1.185  -7.553  -3.726  0.00  0.00    +0.000 A 
ATOM      9  C   UNL     1       2.526  -7.894  -3.722  0.00  0.00    +0.001 A 
ATOM     10  C   UNL     1       3.357  -7.469  -4.738  0.00  0.00    +0.008 A 
ATOM     11  C   UNL     1       2.842  -6.689  -5.775  0.00  0.00    -0.019 A 
ATOM     12  C   UNL     1       3.719  -6.238  -6.874  0.00  0.00    +0.023 C 
ATOM     13  C   UNL     1       3.320  -5.220  -7.662  0.00  0.00    +0.072 C 
ATOM     14  N   UNL     1       2.065  -4.677  -7.399  0.00  0.00    -0.317 N 
ATOM     15  C   UNL     1       1.656  -3.279  -7.466  0.00  0.00    +0.157 C 
ATOM     16  C   UNL     1       0.124  -3.213  -7.178  0.00  0.00    +0.118 C 
ATOM     17  C   UNL     1      -0.121  -2.184  -6.084  0.00  0.00    +0.232 C 
ATOM     18  O   UNL     1      -0.373  -1.011  -6.257  0.00  0.00    -0.274 OA
ENDROOT
BRANCH   1  22
ATOM     19  C   UNL     1       0.002  -0.731  -1.275  0.00  0.00    +0.017 A 
ATOM     20  C   UNL     1       1.152  -1.405  -1.702  0.00  0.00    +0.013 A 
ATOM     21  C   UNL     1       1.144  -2.086  -2.897  0.00  0.00    +0.024 A 
ATOM     22  C   UNL     1      -0.005  -2.104  -3.682  0.00  0.00    +0.044 A 
ATOM     23  C   UNL     1      -1.150  -1.436  -3.262  0.00  0.00    +0.024 A 
ATOM     24  C   UNL     1      -1.154  -0.757  -2.065  0.00  0.00    +0.013 A 
BRANCH  19  26
ATOM     25  C   UNL     1       1.250   0.025   0.850  0.00  0.00    +0.091 C 
ATOM     26  C   UNL     1       0.005  -0.002   0.001  0.00  0.00    +0.160 C 
ATOM     27  O   UNL     1      -0.994   0.577   0.371  0.00  0.00    -0.292 OA
ENDBRANCH  19  26
ENDBRANCH   1  22
BRANCH  15  28
ATOM     28  C   UNL     1       2.405  -2.478  -6.433  0.00  0.00    +0.188 C 
ATOM     29  O   UNL     1       3.016  -3.045  -5.552  0.00  0.00    -0.290 OA
BRANCH  28  30
ATOM     30  C   UNL     1       2.397  -1.011  -6.494  0.00  0.00    +0.064 A 
ATOM     31  C   UNL     1       1.688  -0.353  -7.506  0.00  0.00    +0.060 A 
ATOM     32  C   UNL     1       1.684   1.028  -7.556  0.00  0.00    +0.121 A 
ATOM     33  C   UNL     1       2.381   1.764  -6.604  0.00  0.00    +0.049 A 
ATOM     34  C   UNL     1       3.083   1.125  -5.602  0.00  0.00    +0.050 A 
ATOM     35  C   UNL     1       3.093  -0.261  -5.534  0.00  0.00    +0.131 A 
BRANCH  35  36
ATOM     36  O   UNL     1       3.779  -0.888  -4.545  0.00  0.00    -0.494 OA
ATOM     37  C   UNL     1       4.464  -0.059  -3.604  0.00  0.00    +0.277 C 
ENDBRANCH  35  36
BRANCH  32  38
ATOM     38  O   UNL     1       0.997   1.669  -8.539  0.00  0.00    -0.495 OA
ATOM     39  C   UNL     1       1.035   3.097  -8.531  0.00  0.00    +0.277 C 
ENDBRANCH  32  38
ENDBRANCH  28  30
ENDBRANCH  15  28
TORSDOF 6
