REMARK  Name = ZINC63374735
REMARK  6 active torsions:
REMARK  status: ('A' for Active; 'I' for Inactive)
REMARK    1  A    between atoms: C_1  and  O_2
REMARK    2  A    between atoms: O_2  and  C_3
REMARK    3  A    between atoms: C_8  and  C_9
REMARK    4  A    between atoms: C_9  and  N_10
REMARK    5  A    between atoms: C_15  and  C_32
REMARK    6  A    between atoms: C_32  and  C_33
REMARK                            x       y       z     vdW  Elec       q    Type
REMARK                         _______ _______ _______ _____ _____    ______ ____
ROOT
ATOM      1  N   UNL     1      -1.398  -2.912  -0.233  0.00  0.00    -0.237 N 
ATOM      2  C   UNL     1      -2.253  -2.027   0.292  0.00  0.00    +0.227 C 
ATOM      3  O   UNL     1      -1.945  -1.078   0.980  0.00  0.00    -0.275 OA
ATOM      4  C   UNL     1      -3.664  -2.395  -0.106  0.00  0.00    +0.107 C 
ATOM      5  C   UNL     1      -4.449  -2.841   1.145  0.00  0.00    +0.072 C 
ATOM      6  N   UNL     1      -4.160  -4.294   1.280  0.00  0.00    -0.295 NA
ATOM      7  C   UNL     1      -4.147  -4.790  -0.109  0.00  0.00    +0.136 C 
ATOM      8  C   UNL     1      -3.473  -3.682  -0.957  0.00  0.00    +0.122 C 
ATOM      9  C   UNL     1      -1.973  -3.877  -0.959  0.00  0.00    +0.229 C 
ATOM     10  O   UNL     1      -1.385  -4.771  -1.528  0.00  0.00    -0.275 OA
ATOM     11  C   UNL     1      -5.535  -5.086  -0.602  0.00  0.00    +0.003 A 
ATOM     12  C   UNL     1      -6.672  -4.323  -0.748  0.00  0.00    +0.008 A 
ATOM     13  C   UNL     1      -7.831  -4.895  -1.242  0.00  0.00    +0.000 A 
ATOM     14  C   UNL     1      -7.843  -6.234  -1.590  0.00  0.00    +0.002 A 
ATOM     15  C   UNL     1      -6.707  -7.002  -1.445  0.00  0.00    +0.023 A 
ATOM     16  C   UNL     1      -5.536  -6.434  -0.948  0.00  0.00    +0.039 A 
ATOM     17  N   UNL     1      -4.278  -6.993  -0.713  0.00  0.00    -0.283 N 
ATOM     18  C   UNL     1      -3.406  -6.094  -0.220  0.00  0.00    +0.243 C 
ATOM     19  O   UNL     1      -2.247  -6.296   0.078  0.00  0.00    -0.273 OA
ATOM     20  H   UNL     1      -3.268  -4.445   1.726  0.00  0.00    +0.124 HD
ATOM     21  H   UNL     1      -4.059  -7.922  -0.886  0.00  0.00    +0.155 HD
ENDROOT
BRANCH   1  22
ATOM     22  C   UNL     1       0.051  -2.828  -0.033  0.00  0.00    +0.155 C 
BRANCH  22  28
ATOM     23  C   UNL     1       0.606  -0.607  -1.056  0.00  0.00    +0.125 A 
ATOM     24  C   UNL     1       1.173   0.161  -2.063  0.00  0.00    +0.046 A 
ATOM     25  C   UNL     1       1.786  -0.455  -3.136  0.00  0.00    +0.004 A 
ATOM     26  C   UNL     1       1.836  -1.835  -3.208  0.00  0.00    +0.001 A 
ATOM     27  C   UNL     1       1.271  -2.602  -2.207  0.00  0.00    +0.009 A 
ATOM     28  C   UNL     1       0.661  -1.991  -1.128  0.00  0.00    +0.012 A 
BRANCH  23  30
ATOM     29  C   UNL     1      -0.017   1.425   0.010  0.00  0.00    +0.277 C 
ATOM     30  O   UNL     1       0.002  -0.004   0.002  0.00  0.00    -0.495 OA
ENDBRANCH  23  30
ENDBRANCH  22  28
ENDBRANCH   1  22
BRANCH   5  31
ATOM     31  C   UNL     1      -3.958  -2.082   2.380  0.00  0.00    +0.052 C 
BRANCH  31  32
ATOM     32  C   UNL     1      -4.817  -2.441   3.565  0.00  0.00    -0.040 C 
ATOM     33  C   UNL     1      -4.562  -3.387   4.497  0.00  0.00    -0.001 A 
ATOM     34  C   UNL     1      -3.451  -4.329   4.680  0.00  0.00    +0.010 A 
ATOM     35  C   UNL     1      -3.476  -5.176   5.734  0.00  0.00    +0.001 A 
ATOM     36  C   UNL     1      -4.533  -5.177   6.654  0.00  0.00    +0.002 A 
ATOM     37  C   UNL     1      -5.588  -4.341   6.553  0.00  0.00    +0.026 A 
ATOM     38  C   UNL     1      -5.666  -3.408   5.483  0.00  0.00    +0.043 A 
ATOM     39  N   UNL     1      -6.569  -2.510   5.172  0.00  0.00    -0.380 N 
ATOM     40  C   UNL     1      -6.136  -1.813   3.956  0.00  0.00    +0.144 C 
ATOM     41  H   UNL     1      -7.385  -2.333   5.666  0.00  0.00    +0.160 HD
ENDBRANCH  31  32
ENDBRANCH   5  31
TORSDOF 5
