REMARK  Name = ZINC65711628
REMARK  5 active torsions:
REMARK  status: ('A' for Active; 'I' for Inactive)
REMARK    1  A    between atoms: C_1  and  C_2
REMARK    2  A    between atoms: C_6  and  N_9
REMARK    3  A    between atoms: C_7  and  C_8
REMARK    4  A    between atoms: C_10  and  C_12
REMARK    5  A    between atoms: C_15  and  C_20
REMARK                            x       y       z     vdW  Elec       q    Type
REMARK                         _______ _______ _______ _____ _____    ______ ____
ROOT
ATOM      1  C   UNL     1      -0.129  -4.878   3.650  0.00  0.00    +0.101 A 
ATOM      2  C   UNL     1      -0.111  -6.278   3.658  0.00  0.00    +0.020 A 
ATOM      3  C   UNL     1      -0.202  -6.948   4.866  0.00  0.00    +0.030 A 
ATOM      4  C   UNL     1      -0.308  -6.229   6.050  0.00  0.00    +0.085 A 
ATOM      5  N   UNL     1      -0.325  -4.860   6.037  0.00  0.00    -0.319 N 
ATOM      6  H   UNL     1      -0.400  -4.374   6.873  0.00  0.00    +0.169 HD
ATOM      7  C   UNL     1      -0.233  -4.180   4.878  0.00  0.00    +0.261 A 
ATOM      8  O   UNL     1      -0.245  -2.961   4.886  0.00  0.00    -0.267 OA
ENDROOT
BRANCH   4   9
ATOM      9  C   UNL     1      -0.405  -6.942   7.325  0.00  0.00    +0.151 A 
ATOM     10  C   UNL     1      -0.519  -6.368   8.560  0.00  0.00    +0.051 A 
ATOM     11  C   UNL     1      -0.581  -7.419   9.489  0.00  0.00    +0.042 A 
ATOM     12  C   UNL     1      -0.502  -8.573   8.791  0.00  0.00    +0.196 A 
ATOM     13  O   UNL     1      -0.401  -8.282   7.486  0.00  0.00    -0.461 OA
ENDBRANCH   4   9
BRANCH   1  15
ATOM     14  N   UNL     1       0.075  -2.799   2.393  0.00  0.00    -0.281 N 
ATOM     15  C   UNL     1      -0.034  -4.142   2.385  0.00  0.00    +0.253 C 
ATOM     16  O   UNL     1      -0.053  -4.745   1.327  0.00  0.00    -0.270 OA
ATOM     17  H   UNL     1       0.151  -2.324   3.235  0.00  0.00    +0.155 HD
BRANCH  14  23
ATOM     18  C   UNL     1      -0.926   1.319  -0.098  0.00  0.00    +0.044 C 
ATOM     19  C   UNL     1      -0.401  -0.092  -0.049  0.00  0.00    -0.046 A 
ATOM     20  C   UNL     1       0.085  -0.689  -1.199  0.00  0.00    +0.004 A 
ATOM     21  C   UNL     1       0.568  -1.984  -1.158  0.00  0.00    +0.002 A 
ATOM     22  C   UNL     1       0.566  -2.686   0.031  0.00  0.00    +0.023 A 
ATOM     23  C   UNL     1       0.079  -2.091   1.187  0.00  0.00    +0.037 A 
ATOM     24  C   UNL     1      -0.400  -0.787   1.144  0.00  0.00    -0.026 A 
ATOM     25  C   UNL     1      -0.924  -0.134   2.397  0.00  0.00    +0.046 C 
ENDBRANCH  14  23
ENDBRANCH   1  15
TORSDOF 3
