REMARK  Name = ZINC21158490
REMARK  5 active torsions:
REMARK  status: ('A' for Active; 'I' for Inactive)
REMARK    1  A    between atoms: C_1  and  C_2
REMARK    2  A    between atoms: C_5  and  C_8
REMARK    3  A    between atoms: C_8  and  C_10
REMARK    4  A    between atoms: C_19  and  N_20
REMARK    5  A    between atoms: N_23  and  C_26
REMARK                            x       y       z     vdW  Elec       q    Type
REMARK                         _______ _______ _______ _____ _____    ______ ____
ROOT
ATOM      1  C   UNL     1      -2.005  -0.202   0.882  0.00  0.00    +0.060 A 
ATOM      2  C   UNL     1      -2.817  -1.344   0.770  0.00  0.00    +0.096 A 
ATOM      3  N   UNL     1      -3.020  -1.930  -0.381  0.00  0.00    -0.360 N 
ATOM      4  C   UNL     1      -2.475  -1.474  -1.519  0.00  0.00    +0.052 A 
ATOM      5  C   UNL     1      -2.714  -2.125  -2.737  0.00  0.00    +0.075 A 
ATOM      6  C   UNL     1      -2.147  -1.644  -3.898  0.00  0.00    +0.164 A 
ATOM      7  C   UNL     1      -1.332  -0.504  -3.873  0.00  0.00    +0.163 A 
ATOM      8  C   UNL     1      -1.083   0.145  -2.696  0.00  0.00    +0.061 A 
ATOM      9  C   UNL     1      -1.649  -0.325  -1.503  0.00  0.00    +0.024 A 
ATOM     10  C   UNL     1      -1.408   0.331  -0.273  0.00  0.00    +0.051 A 
ATOM     11  O   UNL     1      -0.776  -0.024  -5.021  0.00  0.00    -0.485 OA
ATOM     12  C   UNL     1      -0.739  -0.916  -6.140  0.00  0.00    +0.270 C 
ATOM     13  C   UNL     1      -2.118  -1.575  -6.275  0.00  0.00    +0.270 C 
ATOM     14  O   UNL     1      -2.391  -2.295  -5.068  0.00  0.00    -0.485 OA
ATOM     15  H   UNL     1      -3.656  -2.826  -0.437  0.00  0.00    +0.165 HD
ENDROOT
BRANCH  10  16
ATOM     16  N   UNL     1      -0.611   1.453  -0.209  0.00  0.00    -0.326 N 
ATOM     17  C   UNL     1      -1.398   2.639   0.157  0.00  0.00    +0.124 C 
ATOM     18  C   UNL     1      -0.494   3.873   0.139  0.00  0.00    +0.124 C 
ATOM     19  N   UNL     1       0.620   3.675   1.077  0.00  0.00    -0.325 N 
ATOM     20  C   UNL     1       1.407   2.489   0.712  0.00  0.00    +0.124 C 
ATOM     21  C   UNL     1       0.503   1.254   0.729  0.00  0.00    +0.124 C 
BRANCH  19  22
ATOM     22  C   UNL     1       1.429   4.813   1.143  0.00  0.00    +0.065 A 
ATOM     23  C   UNL     1       2.131   5.233   0.021  0.00  0.00    +0.026 A 
ATOM     24  C   UNL     1       2.927   6.360   0.087  0.00  0.00    +0.002 A 
ATOM     25  C   UNL     1       3.033   7.066   1.272  0.00  0.00    +0.003 A 
ATOM     26  C   UNL     1       2.339   6.649   2.393  0.00  0.00    +0.040 A 
ATOM     27  C   UNL     1       1.537   5.524   2.333  0.00  0.00    +0.144 A 
ATOM     28  F   UNL     1       0.861   5.116   3.429  0.00  0.00    -0.204 F 
ENDBRANCH  19  22
ENDBRANCH  10  16
BRANCH   1  29
ATOM     29  C   UNL     1      -1.789   0.432   2.191  0.00  0.00    +0.196 C 
ATOM     30  O   UNL     1      -2.412   1.432   2.493  0.00  0.00    -0.287 OA
BRANCH  29  35
ATOM     31  C   UNL     1       2.006  -1.820   5.885  0.00  0.00    +0.044 C 
ATOM     32  C   UNL     1       1.012  -1.231   4.918  0.00  0.00    -0.050 A 
ATOM     33  C   UNL     1       0.397  -0.026   5.210  0.00  0.00    +0.004 A 
ATOM     34  C   UNL     1      -0.513   0.519   4.329  0.00  0.00    +0.012 A 
ATOM     35  C   UNL     1      -0.814  -0.147   3.140  0.00  0.00    +0.022 A 
ATOM     36  C   UNL     1      -0.194  -1.365   2.853  0.00  0.00    +0.012 A 
ATOM     37  C   UNL     1       0.719  -1.896   3.740  0.00  0.00    +0.004 A 
ENDBRANCH  29  35
ENDBRANCH   1  29
TORSDOF 4
