REMARK  Name = ZINC11912604
REMARK  9 active torsions:
REMARK  status: ('A' for Active; 'I' for Inactive)
REMARK    1  A    between atoms: C_1  and  C_2
REMARK    2  A    between atoms: C_2  and  C_3
REMARK    3  A    between atoms: C_2  and  C_4
REMARK    4  A    between atoms: C_2  and  O_35
REMARK    5  A    between atoms: C_5  and  C_6
REMARK    6  A    between atoms: C_9  and  C_12
REMARK    7  A    between atoms: C_12  and  N_72
REMARK    8  A    between atoms: C_19  and  C_21
REMARK    9  A    between atoms: N_26  and  C_29
REMARK                            x       y       z     vdW  Elec       q    Type
REMARK                         _______ _______ _______ _____ _____    ______ ____
ROOT
ATOM      1  C   UNL     1      -0.737   1.583   1.264  0.00  0.00    -0.078 C 
ATOM      2  C   UNL     1      -0.013   1.086   0.008  0.00  0.00    -0.011 C 
ATOM      3  C   UNL     1      -0.761   1.597  -1.228  0.00  0.00    -0.021 C 
ATOM      4  C   UNL     1      -2.265   1.307  -1.232  0.00  0.00    -0.011 C 
ATOM      5  C   UNL     1      -2.860   1.792   0.095  0.00  0.00    -0.078 C 
ATOM      6  C   UNL     1      -0.285   2.905  -1.858  0.00  0.00    +0.020 C 
ATOM      7  C   UNL     1      -0.026   1.573  -2.567  0.00  0.00    +0.082 C 
ATOM      8  N   UNL     1      -2.147   1.127   1.209  0.00  0.00    +0.382 N 
ATOM      9  H   UNL     1      -2.162   0.112   1.054  0.00  0.00    -0.081 HD
ENDROOT
BRANCH   7  10
ATOM     10  C   UNL     1      -0.837   1.272  -3.800  0.00  0.00    +0.219 C 
ATOM     11  O   UNL     1      -2.028   1.060  -3.706  0.00  0.00    -0.275 OA
ATOM     12  N   UNL     1      -0.240   1.239  -5.008  0.00  0.00    -0.298 N 
ATOM     13  C   UNL     1       1.201   1.499  -5.145  0.00  0.00    +0.126 C 
ATOM     14  C   UNL     1       1.823   0.352  -5.957  0.00  0.00    +0.124 C 
ATOM     15  N   UNL     1       1.096   0.205  -7.224  0.00  0.00    -0.327 N 
ATOM     16  C   UNL     1      -0.305  -0.173  -6.995  0.00  0.00    +0.124 C 
ATOM     17  C   UNL     1      -1.013   0.947  -6.225  0.00  0.00    +0.126 C 
BRANCH  15  18
ATOM     18  C   UNL     1       1.731  -0.714  -8.063  0.00  0.00    +0.030 A 
ATOM     19  C   UNL     1       1.031  -1.810  -8.551  0.00  0.00    +0.023 A 
ATOM     20  C   UNL     1       1.661  -2.714  -9.384  0.00  0.00    +0.002 A 
ATOM     21  C   UNL     1       2.990  -2.535  -9.723  0.00  0.00    +0.000 A 
ATOM     22  C   UNL     1       3.691  -1.448  -9.234  0.00  0.00    +0.002 A 
ATOM     23  C   UNL     1       3.066  -0.537  -8.405  0.00  0.00    +0.023 A 
ENDBRANCH  15  18
ENDBRANCH   7  10
BRANCH   8  24
ATOM     24  C   UNL     1      -2.822   1.427   2.488  0.00  0.00    -0.043 C 
BRANCH  24  28
ATOM     25  C   UNL     1      -0.323   0.158   5.717  0.00  0.00    +0.025 A 
ATOM     26  C   UNL     1      -0.227   1.461   5.227  0.00  0.00    +0.017 A 
ATOM     27  C   UNL     1      -1.036   1.864   4.185  0.00  0.00    +0.003 A 
ATOM     28  C   UNL     1      -1.941   0.979   3.626  0.00  0.00    -0.064 A 
ATOM     29  C   UNL     1      -2.045  -0.312   4.111  0.00  0.00    +0.003 A 
ATOM     30  C   UNL     1      -1.238  -0.729   5.149  0.00  0.00    +0.017 A 
BRANCH  25  32
ATOM     31  C   UNL     1       1.201  -0.616   7.684  0.00  0.00    -0.063 C 
ATOM     32  C   UNL     1       0.515  -0.267   6.798  0.00  0.00    -0.063 C 
BRANCH  31  34
ATOM     33  C   UNL     1       1.756  -2.513   9.134  0.00  0.00    +0.055 C 
ATOM     34  C   UNL     1       2.062  -1.053   8.796  0.00  0.00    +0.121 C 
ATOM     35  C   UNL     1       3.530  -0.921   8.386  0.00  0.00    +0.055 C 
BRANCH  34  36
ATOM     36  O   UNL     1       1.812  -0.236   9.941  0.00  0.00    -0.377 OA
ATOM     37  H   UNL     1       2.346  -0.467  10.714  0.00  0.00    +0.211 HD
ENDBRANCH  34  36
ENDBRANCH  31  34
ENDBRANCH  25  32
ENDBRANCH  24  28
ENDBRANCH   8  24
TORSDOF 7
