REMARK  Name = ZINC03031702
REMARK  9 active torsions:
REMARK  status: ('A' for Active; 'I' for Inactive)
REMARK    1  A    between atoms: C_1  and  N_2
REMARK    2  A    between atoms: N_2  and  C_3
REMARK    3  A    between atoms: N_2  and  C_4
REMARK    4  A    between atoms: C_7  and  C_10
REMARK    5  A    between atoms: C_11  and  C_12
REMARK    6  A    between atoms: C_11  and  N_22
REMARK    7  A    between atoms: N_14  and  N_15
REMARK    8  A    between atoms: C_16  and  C_17
REMARK    9  A    between atoms: C_23  and  C_25
REMARK                            x       y       z     vdW  Elec       q    Type
REMARK                         _______ _______ _______ _____ _____    ______ ____
ROOT
ATOM      1  C   UNL     1      -2.243  -2.610  -0.069  0.00  0.00    +0.036 C 
ATOM      2  C   UNL     1      -0.992  -2.089  -0.058  0.00  0.00    +0.098 C 
ENDROOT
BRANCH   1   6
ATOM      3  C   UNL     1      -5.607  -0.043  -0.357  0.00  0.00    +0.029 A 
ATOM      4  C   UNL     1      -5.703  -1.364  -0.785  0.00  0.00    +0.023 A 
ATOM      5  C   UNL     1      -4.614  -2.200  -0.694  0.00  0.00    +0.010 A 
ATOM      6  C   UNL     1      -3.408  -1.721  -0.169  0.00  0.00    -0.023 A 
ATOM      7  C   UNL     1      -3.317  -0.393   0.266  0.00  0.00    +0.010 A 
ATOM      8  C   UNL     1      -4.409   0.438   0.165  0.00  0.00    +0.023 A 
BRANCH   3  10
ATOM      9  C   UNL     1      -7.973   0.296  -1.001  0.00  0.00    +0.129 C 
ATOM     10  N   UNL     1      -6.711   0.800  -0.452  0.00  0.00    -0.336 N 
ATOM     11  C   UNL     1      -6.612   2.191  -0.002  0.00  0.00    +0.129 C 
ENDBRANCH   3  10
ENDBRANCH   1   6
BRANCH   2  12
ATOM     12  C   UNL     1       0.162  -2.958   0.202  0.00  0.00    +0.277 C 
ATOM     13  O   UNL     1      -0.008  -4.138   0.449  0.00  0.00    -0.267 OA
ATOM     14  N   UNL     1       1.409  -2.449   0.167  0.00  0.00    -0.202 N 
ATOM     15  H   UNL     1       1.541  -1.496   0.041  0.00  0.00    +0.178 HD
BRANCH  14  16
ATOM     16  N   UNL     1       2.516  -3.296   0.311  0.00  0.00    -0.184 NA
ATOM     17  C   UNL     1       3.720  -2.805   0.278  0.00  0.00    +0.176 C 
BRANCH  17  18
ATOM     18  C   UNL     1       4.878  -3.692   0.429  0.00  0.00    +0.147 A 
ATOM     19  C   UNL     1       6.188  -3.309   0.413  0.00  0.00    +0.051 A 
ATOM     20  C   UNL     1       6.952  -4.477   0.592  0.00  0.00    +0.042 A 
ATOM     21  C   UNL     1       6.086  -5.504   0.708  0.00  0.00    +0.196 A 
ATOM     22  O   UNL     1       4.834  -5.026   0.614  0.00  0.00    -0.462 OA
ENDBRANCH  17  18
ENDBRANCH  14  16
ENDBRANCH   2  12
BRANCH   2  23
ATOM     23  N   UNL     1      -0.801  -0.724  -0.294  0.00  0.00    -0.277 N 
ATOM     24  C   UNL     1      -0.198   0.043   0.636  0.00  0.00    +0.248 C 
ATOM     25  O   UNL     1       0.091  -0.429   1.719  0.00  0.00    -0.270 OA
ATOM     26  H   UNL     1      -1.102  -0.329  -1.127  0.00  0.00    +0.155 HD
BRANCH  24  27
ATOM     27  C   UNL     1       0.113   1.457   0.340  0.00  0.00    +0.037 A 
ATOM     28  C   UNL     1      -0.211   2.001  -0.904  0.00  0.00    +0.013 A 
ATOM     29  C   UNL     1       0.078   3.322  -1.173  0.00  0.00    +0.001 A 
ATOM     30  C   UNL     1       0.697   4.107  -0.216  0.00  0.00    +0.000 A 
ATOM     31  C   UNL     1       1.026   3.573   1.018  0.00  0.00    +0.001 A 
ATOM     32  C   UNL     1       0.738   2.254   1.301  0.00  0.00    +0.013 A 
ENDBRANCH  24  27
ENDBRANCH   2  23
TORSDOF 7
