REMARK  Name = ZINC00852469
REMARK  7 active torsions:
REMARK  status: ('A' for Active; 'I' for Inactive)
REMARK    1  A    between atoms: C_1  and  C_2
REMARK    2  A    between atoms: C_2  and  C_4
REMARK    3  A    between atoms: C_2  and  S_14
REMARK    4  A    between atoms: N_6  and  C_7
REMARK    5  A    between atoms: S_14  and  C_15
REMARK    6  A    between atoms: C_19  and  C_21
REMARK    7  A    between atoms: C_26  and  O_27
REMARK                            x       y       z     vdW  Elec       q    Type
REMARK                         _______ _______ _______ _____ _____    ______ ____
ROOT
ATOM      1  S   UNL     1      -1.698  -0.627   0.019  0.00  0.00    -0.074 S 
ENDROOT
BRANCH   1   2
ATOM      2  C   UNL     1      -2.332  -0.095   1.575  0.00  0.00    +0.185 A 
ATOM      3  N   UNL     1      -3.575  -0.333   2.049  0.00  0.00    -0.253 N 
ATOM      4  H   UNL     1      -4.282  -0.826   1.603  0.00  0.00    +0.191 HD
ATOM      5  N   UNL     1      -3.642   0.271   3.314  0.00  0.00    -0.151 NA
ATOM      6  C   UNL     1      -2.472   0.828   3.535  0.00  0.00    +0.186 A 
ATOM      7  N   UNL     1      -1.677   0.599   2.479  0.00  0.00    -0.201 NA
BRANCH   6   8
ATOM      8  C   UNL     1      -2.091   1.581   4.754  0.00  0.00    +0.062 A 
ATOM      9  C   UNL     1      -0.817   2.132   4.867  0.00  0.00    +0.015 A 
ATOM     10  C   UNL     1      -0.467   2.832   6.004  0.00  0.00    +0.001 A 
ATOM     11  C   UNL     1      -1.379   2.990   7.033  0.00  0.00    +0.004 A 
ATOM     12  C   UNL     1      -2.646   2.448   6.931  0.00  0.00    +0.046 A 
ATOM     13  C   UNL     1      -3.012   1.747   5.793  0.00  0.00    +0.128 A 
BRANCH  13  14
ATOM     14  O   UNL     1      -4.259   1.218   5.690  0.00  0.00    -0.506 OA
ATOM     15  H   UNL     1      -4.334   0.317   6.033  0.00  0.00    +0.292 HD
ENDBRANCH  13  14
ENDBRANCH   6   8
ENDBRANCH   1   2
BRANCH   1  17
ATOM     16  C   UNL     1      -0.020   1.532  -0.003  0.00  0.00    +0.029 C 
ATOM     17  C   UNL     1       0.003   0.002   0.000  0.00  0.00    +0.137 C 
BRANCH  17  18
ATOM     18  C   UNL     1       0.707  -0.492  -1.237  0.00  0.00    +0.230 C 
ATOM     19  O   UNL     1       0.066  -0.791  -2.222  0.00  0.00    -0.274 OA
ATOM     20  N   UNL     1       2.051  -0.601  -1.250  0.00  0.00    -0.285 N 
ATOM     21  H   UNL     1       2.569  -0.298  -0.487  0.00  0.00    +0.155 HD
BRANCH  20  22
ATOM     22  C   UNL     1       2.698  -1.150  -2.362  0.00  0.00    +0.033 A 
ATOM     23  C   UNL     1       3.837  -1.925  -2.191  0.00  0.00    +0.024 A 
ATOM     24  C   UNL     1       4.474  -2.466  -3.291  0.00  0.00    +0.017 A 
ATOM     25  C   UNL     1       3.977  -2.237  -4.562  0.00  0.00    +0.018 A 
ATOM     26  C   UNL     1       2.842  -1.465  -4.735  0.00  0.00    +0.017 A 
ATOM     27  C   UNL     1       2.199  -0.925  -3.638  0.00  0.00    +0.024 A 
ATOM     28 BR   UNL     1       4.852  -2.979  -6.065  0.00  0.00    -0.050 Br
ENDBRANCH  20  22
ENDBRANCH  17  18
ENDBRANCH   1  17
TORSDOF 6
