REMARK  Name = ZINC10100390
REMARK  13 active torsions:
REMARK  status: ('A' for Active; 'I' for Inactive)
REMARK    1  A    between atoms: C_1  and  C_2
REMARK    2  A    between atoms: N_11  and  C_12
REMARK    3  A    between atoms: C_12  and  C_13
REMARK    4  A    between atoms: C_13  and  N_62
REMARK    5  A    between atoms: C_14  and  N_62
REMARK    6  A    between atoms: C_15  and  N_62
REMARK    7  A    between atoms: C_16  and  C_18
REMARK    8  A    between atoms: C_21  and  S_24
REMARK    9  A    between atoms: S_24  and  N_27
REMARK   10  A    between atoms: N_27  and  C_28
REMARK   11  A    between atoms: N_27  and  C_29
REMARK   12  A    between atoms: C_29  and  C_30
REMARK   13  A    between atoms: C_29  and  C_31
REMARK                            x       y       z     vdW  Elec       q    Type
REMARK                         _______ _______ _______ _____ _____    ______ ____
ROOT
ATOM      1  C   UNL     1      -6.504   2.392   8.863  0.00  0.00    +0.047 C 
ATOM      2  C   UNL     1      -6.017   3.772   9.220  0.00  0.00    -0.006 A 
ATOM      3  C   UNL     1      -6.527   4.407  10.324  0.00  0.00    +0.046 A 
ATOM      4  C   UNL     1      -6.106   5.679  10.688  0.00  0.00    +0.021 A 
ATOM      5  C   UNL     1      -5.151   6.321   9.921  0.00  0.00    +0.019 A 
ATOM      6  C   UNL     1      -4.636   5.694   8.815  0.00  0.00    +0.041 A 
ATOM      7  C   UNL     1      -5.040   4.400   8.413  0.00  0.00    +0.085 A 
ATOM      8  N   UNL     1      -4.445   3.920   7.300  0.00  0.00    -0.224 NA
ATOM      9  C   UNL     1      -3.540   4.601   6.635  0.00  0.00    +0.168 A 
ATOM     10  S   UNL     1      -3.434   6.116   7.576  0.00  0.00    -0.052 S 
ATOM     11  N   UNL     1      -2.848   4.238   5.492  0.00  0.00    -0.248 N 
ATOM     12  C   UNL     1      -3.070   3.037   4.922  0.00  0.00    +0.252 C 
ATOM     13  O   UNL     1      -3.958   2.320   5.341  0.00  0.00    -0.270 OA
ATOM     14 CL   UNL     1      -7.726   3.602  11.287  0.00  0.00    -0.083 Cl
ENDROOT
BRANCH  12  15
ATOM     15  C   UNL     1      -2.234   2.592   3.788  0.00  0.00    +0.037 A 
ATOM     16  C   UNL     1      -1.998   1.231   3.582  0.00  0.00    +0.015 A 
ATOM     17  C   UNL     1      -1.216   0.822   2.522  0.00  0.00    +0.029 A 
ATOM     18  C   UNL     1      -0.667   1.757   1.662  0.00  0.00    +0.106 A 
ATOM     19  C   UNL     1      -0.892   3.107   1.863  0.00  0.00    +0.029 A 
ATOM     20  C   UNL     1      -1.676   3.530   2.917  0.00  0.00    +0.015 A 
BRANCH  18  21
ATOM     21  S   UNL     1       0.330   1.226   0.310  0.00  0.00    +0.061 S 
ATOM     22  O   UNL     1       0.842  -0.053   0.660  0.00  0.00    -0.153 OA
ATOM     23  O   UNL     1       1.174   2.318  -0.026  0.00  0.00    -0.153 OA
BRANCH  21  24
ATOM     24  N   UNL     1      -0.681   0.993  -0.981  0.00  0.00    -0.177 NA
ATOM     25  C   UNL     1      -1.296  -0.318  -1.203  0.00  0.00    +0.132 C 
BRANCH  24  26
ATOM     26  C   UNL     1      -0.958   2.098  -1.902  0.00  0.00    +0.073 C 
ATOM     27  C   UNL     1      -0.509   1.712  -3.313  0.00  0.00    +0.025 C 
ATOM     28  C   UNL     1      -2.460   2.392  -1.908  0.00  0.00    +0.025 C 
ENDBRANCH  24  26
ENDBRANCH  21  24
ENDBRANCH  18  21
ENDBRANCH  12  15
BRANCH  11  29
ATOM     29  C   UNL     1      -1.875   5.161   4.901  0.00  0.00    +0.097 C 
BRANCH  29  30
ATOM     30  C   UNL     1      -2.607   6.193   4.041  0.00  0.00    -0.060 C 
BRANCH  30  33
ATOM     31  C   UNL     1      -2.264   7.972   2.435  0.00  0.00    -0.097 C 
ATOM     32  C   UNL     1      -0.978   7.927   4.486  0.00  0.00    -0.097 C 
ATOM     33  N   UNL     1      -1.611   7.102   3.436  0.00  0.00    +0.377 N 
ATOM     34  H   UNL     1      -0.888   6.542   2.970  0.00  0.00    -0.083 HD
ENDBRANCH  30  33
ENDBRANCH  29  30
ENDBRANCH  11  29
TORSDOF 7
