REMARK  Name = ZINC20287588
REMARK  11 active torsions:
REMARK  status: ('A' for Active; 'I' for Inactive)
REMARK    1  A    between atoms: C_1  and  C_2
REMARK    2  A    between atoms: C_2  and  N_23
REMARK    3  A    between atoms: C_4  and  C_18
REMARK    4  A    between atoms: N_6  and  C_9
REMARK    5  A    between atoms: C_12  and  N_15
REMARK    6  A    between atoms: C_18  and  C_19
REMARK    7  A    between atoms: C_19  and  O_21
REMARK    8  A    between atoms: O_21  and  C_22
REMARK    9  A    between atoms: N_23  and  C_24
REMARK   10  A    between atoms: C_29  and  S_30
REMARK   11  A    between atoms: S_30  and  C_31
REMARK                            x       y       z     vdW  Elec       q    Type
REMARK                         _______ _______ _______ _____ _____    ______ ____
ROOT
ATOM      1  C   UNL     1       0.946   1.310  -0.183  0.00  0.00    +0.061 C 
ATOM      2  C   UNL     1       0.345  -0.065  -0.036  0.00  0.00    +0.019 C 
ATOM      3  C   UNL     1       0.311  -0.677   1.206  0.00  0.00    +0.079 C 
ATOM      4  C   UNL     1       0.679  -0.092   2.503  0.00  0.00    +0.084 C 
ATOM      5  N   UNL     1       0.501  -1.004   3.409  0.00  0.00    -0.176 NA
ATOM      6  N   UNL     1       0.033  -2.192   2.848  0.00  0.00    -0.156 N 
ATOM      7  C   UNL     1      -0.107  -2.050   1.514  0.00  0.00    +0.274 C 
ATOM      8  O   UNL     1      -0.499  -2.893   0.724  0.00  0.00    -0.268 OA
ENDROOT
BRANCH   6   9
ATOM      9  C   UNL     1      -0.256  -3.360   3.565  0.00  0.00    +0.060 A 
ATOM     10  C   UNL     1      -0.712  -4.490   2.900  0.00  0.00    +0.028 A 
ATOM     11  C   UNL     1      -0.995  -5.640   3.610  0.00  0.00    +0.034 A 
ATOM     12  C   UNL     1      -0.824  -5.667   4.982  0.00  0.00    +0.126 A 
ATOM     13  C   UNL     1      -0.370  -4.543   5.647  0.00  0.00    +0.034 A 
ATOM     14  C   UNL     1      -0.080  -3.392   4.942  0.00  0.00    +0.028 A 
BRANCH  12  15
ATOM     15  N   UNL     1      -1.128  -6.902   5.740  0.00  0.00    +0.056 N 
ATOM     16  O   UNL     1      -1.526  -7.885   5.160  0.00  0.00    -0.126 OA
ATOM     17  O   UNL     1      -0.980  -6.926   6.940  0.00  0.00    -0.126 OA
ENDBRANCH  12  15
ENDBRANCH   6   9
BRANCH   2  18
ATOM     18  N   UNL     1      -0.159  -0.699  -1.115  0.00  0.00    -0.317 N 
ATOM     19  H   UNL     1      -0.482  -1.610  -1.035  0.00  0.00    +0.152 HD
BRANCH  18  20
ATOM     20  C   UNL     1      -0.217  -0.042  -2.349  0.00  0.00    +0.045 A 
ATOM     21  C   UNL     1       0.718  -0.325  -3.333  0.00  0.00    +0.024 A 
ATOM     22  C   UNL     1       0.659   0.326  -4.551  0.00  0.00    +0.002 A 
ATOM     23  C   UNL     1      -0.331   1.261  -4.793  0.00  0.00    +0.001 A 
ATOM     24  C   UNL     1      -1.267   1.550  -3.819  0.00  0.00    +0.017 A 
ATOM     25  C   UNL     1      -1.220   0.898  -2.595  0.00  0.00    +0.034 A 
BRANCH  25  26
ATOM     26  S   UNL     1      -2.417   1.259  -1.354  0.00  0.00    -0.088 S 
BRANCH  26  27
ATOM     27  C   UNL     1      -3.533   2.368  -2.148  0.00  0.00    +0.013 A 
ATOM     28  C   UNL     1      -4.693   1.883  -2.740  0.00  0.00    +0.015 A 
ATOM     29  C   UNL     1      -5.566   2.754  -3.361  0.00  0.00    +0.001 A 
ATOM     30  C   UNL     1      -5.286   4.108  -3.394  0.00  0.00    +0.000 A 
ATOM     31  C   UNL     1      -4.133   4.594  -2.807  0.00  0.00    +0.001 A 
ATOM     32  C   UNL     1      -3.258   3.729  -2.179  0.00  0.00    +0.015 A 
ENDBRANCH  26  27
ENDBRANCH  25  26
ENDBRANCH  18  20
ENDBRANCH   2  18
BRANCH   4  33
ATOM     33  C   UNL     1       1.175   1.311   2.738  0.00  0.00    +0.178 C 
BRANCH  33  34
ATOM     34  C   UNL     1       1.325   1.550   4.219  0.00  0.00    +0.313 C 
ATOM     35  O   UNL     1       1.057   0.670   5.002  0.00  0.00    -0.250 OA
BRANCH  34  36
ATOM     36  O   UNL     1       1.757   2.739   4.667  0.00  0.00    -0.468 OA
ATOM     37  C   UNL     1       1.875   2.895   6.082  0.00  0.00    +0.280 C 
ENDBRANCH  34  36
ENDBRANCH  33  34
ENDBRANCH   4  33
TORSDOF 9
