REMARK  Name = ZINC16024902
REMARK  7 active torsions:
REMARK  status: ('A' for Active; 'I' for Inactive)
REMARK    1  A    between atoms: C_1  and  C_2
REMARK    2  A    between atoms: C_2  and  C_3
REMARK    3  A    between atoms: C_2  and  C_4
REMARK    4  A    between atoms: N_12  and  C_15
REMARK    5  A    between atoms: C_15  and  C_16
REMARK    6  A    between atoms: C_15  and  C_17
REMARK    7  A    between atoms: C_15  and  C_18
REMARK                            x       y       z     vdW  Elec       q    Type
REMARK                         _______ _______ _______ _____ _____    ______ ____
ROOT
ATOM      1  C   UNL     1       0.734  -0.535   1.236  0.00  0.00    +0.070 C 
ATOM      2  C   UNL     1       0.896  -2.067   1.147  0.00  0.00    +0.107 C 
ATOM      3  C   UNL     1       2.303  -2.355   1.740  0.00  0.00    +0.122 C 
ATOM      4  C   UNL     1       3.075  -2.899   0.558  0.00  0.00    +0.229 C 
ATOM      5  O   UNL     1       4.231  -3.261   0.584  0.00  0.00    -0.275 OA
ATOM      6  N   UNL     1       2.282  -2.918  -0.519  0.00  0.00    -0.236 N 
ATOM      7  C   UNL     1       1.023  -2.472  -0.304  0.00  0.00    +0.228 C 
ATOM      8  O   UNL     1       0.139  -2.402  -1.131  0.00  0.00    -0.275 OA
ATOM      9  C   UNL     1       2.845  -0.976   2.136  0.00  0.00    +0.136 C 
ATOM     10  N   UNL     1       2.122  -0.003   1.283  0.00  0.00    -0.295 NA
ATOM     11  C   UNL     1       2.647  -0.707   3.601  0.00  0.00    +0.003 A 
ATOM     12  C   UNL     1       1.535  -0.646   4.412  0.00  0.00    +0.008 A 
ATOM     13  C   UNL     1       1.676  -0.370   5.760  0.00  0.00    +0.000 A 
ATOM     14  C   UNL     1       2.936  -0.156   6.290  0.00  0.00    +0.002 A 
ATOM     15  C   UNL     1       4.051  -0.215   5.482  0.00  0.00    +0.023 A 
ATOM     16  C   UNL     1       3.918  -0.492   4.123  0.00  0.00    +0.039 A 
ATOM     17  N   UNL     1       4.879  -0.602   3.115  0.00  0.00    -0.283 N 
ATOM     18  C   UNL     1       4.330  -0.884   1.918  0.00  0.00    +0.243 C 
ATOM     19  O   UNL     1       4.919  -1.035   0.869  0.00  0.00    -0.273 OA
ATOM     20  H   UNL     1       2.522   0.046   0.357  0.00  0.00    +0.124 HD
ATOM     21  H   UNL     1       5.832  -0.489   3.261  0.00  0.00    +0.155 HD
ENDROOT
BRANCH   6  22
ATOM     22  C   UNL     1       2.737  -3.391  -1.829  0.00  0.00    +0.036 C 
ATOM     23  C   UNL     1       3.181  -4.851  -1.718  0.00  0.00    +0.031 C 
ATOM     24  C   UNL     1       1.592  -3.281  -2.837  0.00  0.00    +0.031 C 
ATOM     25  C   UNL     1       3.915  -2.534  -2.299  0.00  0.00    +0.031 C 
ENDBRANCH   6  22
BRANCH   1  27
ATOM     26  C   UNL     1      -1.459  -0.458   0.041  0.00  0.00    +0.009 C 
ATOM     27  C   UNL     1       0.002  -0.004   0.002  0.00  0.00    +0.001 C 
ATOM     28  C   UNL     1       0.061   1.525  -0.008  0.00  0.00    +0.009 C 
ENDBRANCH   1  27
TORSDOF 2
