REMARK  Name = ZINC06443734
REMARK  10 active torsions:
REMARK  status: ('A' for Active; 'I' for Inactive)
REMARK    1  A    between atoms: C_1  and  C_2
REMARK    2  A    between atoms: C_12  and  C_14
REMARK    3  A    between atoms: C_14  and  C_16
REMARK    4  A    between atoms: C_14  and  N_69
REMARK    5  A    between atoms: N_20  and  C_21
REMARK    6  A    between atoms: C_21  and  C_22
REMARK    7  A    between atoms: C_28  and  C_29
REMARK    8  A    between atoms: C_28  and  N_69
REMARK    9  A    between atoms: C_35  and  C_36
REMARK   10  A    between atoms: C_35  and  N_69
REMARK                            x       y       z     vdW  Elec       q    Type
REMARK                         _______ _______ _______ _____ _____    ______ ____
ROOT
ATOM      1  C   UNL     1       2.220   7.486  -0.113  0.00  0.00    +0.040 C 
ENDROOT
BRANCH   1  13
ATOM      2  C   UNL     1      -4.229   7.808  -1.340  0.00  0.00    +0.046 C 
ATOM      3  C   UNL     1      -3.375   6.696  -0.787  0.00  0.00    -0.026 A 
ATOM      4  C   UNL     1      -3.948   5.490  -0.443  0.00  0.00    +0.005 A 
ATOM      5  C   UNL     1      -3.173   4.458   0.068  0.00  0.00    +0.001 A 
ATOM      6  C   UNL     1      -1.827   4.619   0.240  0.00  0.00    +0.010 A 
ATOM      7  C   UNL     1      -1.224   5.834  -0.101  0.00  0.00    -0.001 A 
ATOM      8  C   UNL     1      -2.007   6.883  -0.621  0.00  0.00    +0.052 A 
ATOM      9  N   UNL     1      -1.409   8.079  -0.955  0.00  0.00    -0.322 N 
ATOM     10  H   UNL     1      -1.949   8.800  -1.313  0.00  0.00    +0.169 HD
ATOM     11  C   UNL     1      -0.087   8.261  -0.788  0.00  0.00    +0.251 A 
ATOM     12  O   UNL     1       0.408   9.333  -1.090  0.00  0.00    -0.268 OA
ATOM     13  C   UNL     1       0.743   7.240  -0.277  0.00  0.00    +0.011 A 
ATOM     14  C   UNL     1       0.215   6.041   0.071  0.00  0.00    +0.017 A 
ENDBRANCH   1  13
BRANCH   1  15
ATOM     15  C   UNL     1       2.897   6.210   0.318  0.00  0.00    +0.143 A 
ATOM     16  N   UNL     1       3.357   5.265  -0.466  0.00  0.00    -0.115 NA
ATOM     17  N   UNL     1       3.863   4.343   0.278  0.00  0.00    -0.023 NA
ATOM     18  N   UNL     1       3.742   4.677   1.516  0.00  0.00    -0.044 NA
ATOM     19  N   UNL     1       3.146   5.819   1.582  0.00  0.00    -0.226 N 
BRANCH  19  20
ATOM     20  C   UNL     1       2.810   6.556   2.803  0.00  0.00    +0.182 C 
BRANCH  20  21
ATOM     21  C   UNL     1       1.489   6.065   3.337  0.00  0.00    -0.026 A 
ATOM     22  C   UNL     1       1.445   4.950   4.153  0.00  0.00    +0.005 A 
ATOM     23  C   UNL     1       0.233   4.500   4.644  0.00  0.00    +0.000 A 
ATOM     24  C   UNL     1      -0.935   5.162   4.314  0.00  0.00    +0.000 A 
ATOM     25  C   UNL     1      -0.890   6.280   3.502  0.00  0.00    +0.000 A 
ATOM     26  C   UNL     1       0.322   6.730   3.012  0.00  0.00    +0.005 A 
ENDBRANCH  20  21
ENDBRANCH  19  20
ENDBRANCH   1  15
BRANCH   1  27
ATOM     27  N   UNL     1       2.816   7.938  -1.388  0.00  0.00    +0.395 N 
ATOM     28  H   UNL     1       3.824   8.079  -1.253  0.00  0.00    -0.079 HD
BRANCH  27  29
ATOM     29  C   UNL     1       2.610   6.913  -2.433  0.00  0.00    -0.041 C 
BRANCH  29  30
ATOM     30  C   UNL     1       1.228   6.322  -2.325  0.00  0.00    -0.064 A 
ATOM     31  C   UNL     1       1.048   5.088  -1.728  0.00  0.00    +0.002 A 
ATOM     32  C   UNL     1      -0.220   4.548  -1.625  0.00  0.00    +0.000 A 
ATOM     33  C   UNL     1      -1.308   5.237  -2.129  0.00  0.00    +0.000 A 
ATOM     34  C   UNL     1      -1.127   6.469  -2.731  0.00  0.00    +0.000 A 
ATOM     35  C   UNL     1       0.140   7.011  -2.829  0.00  0.00    +0.002 A 
ENDBRANCH  29  30
ENDBRANCH  27  29
BRANCH  27  36
ATOM     36  C   UNL     1       2.204   9.216  -1.806  0.00  0.00    -0.040 C 
BRANCH  36  37
ATOM     37  C   UNL     1       3.273  10.078  -2.427  0.00  0.00    -0.046 A 
ATOM     38  C   UNL     1       4.423  10.391  -1.717  0.00  0.00    +0.005 A 
ATOM     39  C   UNL     1       5.381  11.183  -2.330  0.00  0.00    +0.020 A 
ATOM     40  C   UNL     1       5.157  11.638  -3.616  0.00  0.00    +0.111 A 
ATOM     41  N   UNL     1       4.050  11.324  -4.259  0.00  0.00    -0.263 NA
ATOM     42  C   UNL     1       3.119  10.569  -3.709  0.00  0.00    +0.112 A 
ENDBRANCH  36  37
ENDBRANCH  27  36
ENDBRANCH   1  27
TORSDOF 9
