REMARK  Name = ZINC08799619
REMARK  10 active torsions:
REMARK  status: ('A' for Active; 'I' for Inactive)
REMARK    1  A    between atoms: C_1  and  C_2
REMARK    2  A    between atoms: C_2  and  C_4
REMARK    3  A    between atoms: C_2  and  O_17
REMARK    4  A    between atoms: N_6  and  C_7
REMARK    5  A    between atoms: C_12  and  C_13
REMARK    6  A    between atoms: O_17  and  C_18
REMARK    7  A    between atoms: C_18  and  C_20
REMARK    8  A    between atoms: N_28  and  C_31
REMARK    9  A    between atoms: C_31  and  C_32
REMARK   10  A    between atoms: C_31  and  C_33
REMARK                            x       y       z     vdW  Elec       q    Type
REMARK                         _______ _______ _______ _____ _____    ______ ____
ROOT
ATOM      1  O   UNL     1       0.667  -0.450  -1.180  0.00  0.00    -0.449 OA
ENDROOT
BRANCH   1   3
ATOM      2  C   UNL     1      -0.035   1.539   0.001  0.00  0.00    +0.062 C 
ATOM      3  C   UNL     1      -0.003   0.009  -0.004  0.00  0.00    +0.259 C 
BRANCH   3   4
ATOM      4  C   UNL     1      -1.413  -0.523   0.011  0.00  0.00    +0.258 C 
ATOM      5  O   UNL     1      -1.835  -1.149  -0.937  0.00  0.00    -0.271 OA
ATOM      6  N   UNL     1      -2.204  -0.302   1.079  0.00  0.00    -0.282 N 
ATOM      7  H   UNL     1      -1.844   0.129   1.870  0.00  0.00    +0.155 HD
BRANCH   6   8
ATOM      8  C   UNL     1      -3.547  -0.694   1.048  0.00  0.00    +0.045 A 
ATOM      9  C   UNL     1      -4.207  -0.821  -0.168  0.00  0.00    +0.024 A 
ATOM     10  C   UNL     1      -5.532  -1.208  -0.196  0.00  0.00    +0.002 A 
ATOM     11  C   UNL     1      -6.203  -1.468   0.985  0.00  0.00    +0.001 A 
ATOM     12  C   UNL     1      -5.550  -1.343   2.197  0.00  0.00    +0.014 A 
ATOM     13  C   UNL     1      -4.222  -0.963   2.231  0.00  0.00    +0.076 A 
BRANCH  13  14
ATOM     14  C   UNL     1      -3.509  -0.833   3.552  0.00  0.00    +0.419 C 
ATOM     15  F   UNL     1      -4.389  -1.153   4.591  0.00  0.00    -0.166 F 
ATOM     16  F   UNL     1      -2.417  -1.707   3.580  0.00  0.00    -0.166 F 
ATOM     17  F   UNL     1      -3.058   0.482   3.712  0.00  0.00    -0.166 F 
ENDBRANCH  13  14
ENDBRANCH   6   8
ENDBRANCH   3   4
ENDBRANCH   1   3
BRANCH   1  18
ATOM     18  C   UNL     1       2.000  -0.626  -1.095  0.00  0.00    +0.340 C 
ATOM     19  O   UNL     1       2.578  -0.396  -0.052  0.00  0.00    -0.245 OA
BRANCH  18  20
ATOM     20  C   UNL     1       2.759  -1.099  -2.273  0.00  0.00    +0.060 A 
ATOM     21  C   UNL     1       2.094  -1.357  -3.473  0.00  0.00    +0.016 A 
ATOM     22  C   UNL     1       2.798  -1.800  -4.580  0.00  0.00    +0.014 A 
ATOM     23  C   UNL     1       4.168  -1.989  -4.497  0.00  0.00    +0.049 A 
ATOM     24  C   UNL     1       4.846  -1.730  -3.288  0.00  0.00    +0.050 A 
ATOM     25  C   UNL     1       4.142  -1.282  -2.184  0.00  0.00    +0.028 A 
ATOM     26  C   UNL     1       6.269  -2.031  -3.550  0.00  0.00    +0.254 C 
ATOM     27  O   UNL     1       7.174  -1.931  -2.746  0.00  0.00    -0.270 OA
ATOM     28  N   UNL     1       6.395  -2.436  -4.827  0.00  0.00    -0.232 N 
ATOM     29  C   UNL     1       5.205  -2.439  -5.453  0.00  0.00    +0.254 C 
ATOM     30  O   UNL     1       5.014  -2.758  -6.609  0.00  0.00    -0.270 OA
BRANCH  28  31
ATOM     31  C   UNL     1       7.662  -2.821  -5.452  0.00  0.00    +0.079 C 
ATOM     32  C   UNL     1       7.574  -4.272  -5.932  0.00  0.00    +0.028 C 
ATOM     33  C   UNL     1       7.942  -1.906  -6.646  0.00  0.00    +0.028 C 
ENDBRANCH  28  31
ENDBRANCH  18  20
ENDBRANCH   1  18
TORSDOF 7
