REMARK  Name = ZINC59416918
REMARK  9 active torsions:
REMARK  status: ('A' for Active; 'I' for Inactive)
REMARK    1  A    between atoms: C_1  and  O_2
REMARK    2  A    between atoms: O_2  and  C_3
REMARK    3  A    between atoms: C_6  and  N_11
REMARK    4  A    between atoms: C_12  and  C_14
REMARK    5  A    between atoms: C_14  and  N_15
REMARK    6  A    between atoms: N_15  and  C_16
REMARK    7  A    between atoms: N_15  and  C_19
REMARK    8  A    between atoms: C_16  and  C_17
REMARK    9  A    between atoms: C_19  and  C_20
REMARK                            x       y       z     vdW  Elec       q    Type
REMARK                         _______ _______ _______ _____ _____    ______ ____
ROOT
ATOM      1  N   UNL     1       1.588  -2.951  -5.425  0.00  0.00    -0.285 N 
ATOM      2  C   UNL     1       2.204  -4.051  -4.949  0.00  0.00    +0.201 C 
ATOM      3  O   UNL     1       1.859  -4.528  -3.889  0.00  0.00    -0.278 OA
ATOM      4  H   UNL     1       1.830  -2.598  -6.296  0.00  0.00    +0.155 HD
ENDROOT
BRANCH   1   8
ATOM      5  C   UNL     1      -1.358  -1.062  -3.153  0.00  0.00    +0.136 A 
ATOM      6  C   UNL     1      -0.174  -1.467  -2.555  0.00  0.00    +0.064 A 
ATOM      7  C   UNL     1       0.802  -2.093  -3.306  0.00  0.00    +0.044 A 
ATOM      8  C   UNL     1       0.598  -2.317  -4.662  0.00  0.00    +0.063 A 
ATOM      9  C   UNL     1      -0.588  -1.911  -5.261  0.00  0.00    +0.058 A 
ATOM     10  C   UNL     1      -1.566  -1.290  -4.506  0.00  0.00    +0.075 A 
ATOM     11 BR   UNL     1      -3.183  -0.744  -5.320  0.00  0.00    -0.045 Br
ATOM     12 BR   UNL     1      -0.867  -2.214  -7.107  0.00  0.00    -0.047 Br
ATOM     13 BR   UNL     1       2.416  -2.644  -2.489  0.00  0.00    -0.048 Br
BRANCH   5  15
ATOM     14  C   UNL     1      -2.038  -0.244  -1.026  0.00  0.00    +0.277 C 
ATOM     15  O   UNL     1      -2.318  -0.446  -2.413  0.00  0.00    -0.494 OA
ENDBRANCH   5  15
ENDBRANCH   1   8
BRANCH   2  16
ATOM     16  C   UNL     1       3.322  -4.688  -5.734  0.00  0.00    +0.020 C 
BRANCH  16  17
ATOM     17  N   UNL     1       3.823  -5.862  -5.008  0.00  0.00    +0.390 N 
ATOM     18  H   UNL     1       4.091  -5.591  -4.074  0.00  0.00    -0.080 HD
BRANCH  17  19
ATOM     19  C   UNL     1       2.768  -6.881  -4.938  0.00  0.00    -0.051 C 
BRANCH  19  20
ATOM     20  C   UNL     1       2.434  -7.356  -6.328  0.00  0.00    -0.053 C 
ATOM     21  C   UNL     1       2.487  -8.634  -6.614  0.00  0.00    +0.002 C 
ENDBRANCH  19  20
ENDBRANCH  17  19
BRANCH  17  22
ATOM     22  C   UNL     1       4.989  -6.412  -5.712  0.00  0.00    -0.051 C 
BRANCH  22  23
ATOM     23  C   UNL     1       5.593  -7.523  -4.892  0.00  0.00    -0.053 C 
ATOM     24  C   UNL     1       5.769  -8.708  -5.423  0.00  0.00    +0.002 C 
ENDBRANCH  22  23
ENDBRANCH  17  22
ENDBRANCH  16  17
ENDBRANCH   2  16
TORSDOF 8
