REMARK  Name = ZINC13502565
REMARK  8 active torsions:
REMARK  status: ('A' for Active; 'I' for Inactive)
REMARK    1  A    between atoms: C_1  and  O_2
REMARK    2  A    between atoms: O_2  and  C_3
REMARK    3  A    between atoms: C_3  and  C_5
REMARK    4  A    between atoms: C_9  and  N_11
REMARK    5  A    between atoms: C_12  and  C_14
REMARK    6  A    between atoms: C_14  and  S_15
REMARK    7  A    between atoms: S_15  and  C_16
REMARK    8  A    between atoms: C_21  and  C_32
REMARK                            x       y       z     vdW  Elec       q    Type
REMARK                         _______ _______ _______ _____ _____    ______ ____
ROOT
ATOM      1  C   UNL     1       3.588   1.929  -0.010  0.00  0.00    +0.198 A 
ATOM      2  N   UNL     1       4.392   0.890  -0.015  0.00  0.00    -0.122 NA
ATOM      3  N   UNL     1       3.710  -0.202  -0.009  0.00  0.00    -0.128 NA
ATOM      4  C   UNL     1       2.430   0.078   0.001  0.00  0.00    +0.173 A 
ATOM      5  N   UNL     1       2.307   1.450  -0.000  0.00  0.00    -0.257 N 
ATOM      6  C   UNL     1       1.075   2.037   0.008  0.00  0.00    +0.122 A 
ATOM      7  N   UNL     1      -0.015   1.325   0.017  0.00  0.00    -0.226 NA
ATOM      8  C   UNL     1       0.003  -0.005   0.019  0.00  0.00    +0.114 A 
ATOM      9  C   UNL     1       1.197  -0.741   0.012  0.00  0.00    +0.056 A 
ATOM     10  C   UNL     1       1.077  -2.153   0.016  0.00  0.00    -0.024 A 
ATOM     11  C   UNL     1      -0.170  -2.678   0.026  0.00  0.00    -0.004 A 
ATOM     12  S   UNL     1      -1.246  -1.268   0.031  0.00  0.00    -0.073 S 
ATOM     13  C   UNL     1      -0.550  -4.125   0.032  0.00  0.00    +0.043 C 
ATOM     14  C   UNL     1       0.687  -4.952  -0.346  0.00  0.00    +0.005 C 
ATOM     15  C   UNL     1       1.878  -4.459   0.482  0.00  0.00    +0.005 C 
ATOM     16  C   UNL     1       2.300  -3.068   0.011  0.00  0.00    +0.037 C 
ENDROOT
BRANCH   6  17
ATOM     17  C   UNL     1       0.975   3.541   0.006  0.00  0.00    +0.056 C 
ATOM     18  C   UNL     1      -0.410   4.156   0.221  0.00  0.00    +0.012 C 
ATOM     19  C   UNL     1       0.240   4.198  -1.164  0.00  0.00    +0.012 C 
ENDBRANCH   6  17
BRANCH   1  20
ATOM     20  S   UNL     1       4.070   3.624  -0.015  0.00  0.00    -0.076 S 
BRANCH  20  21
ATOM     21  C   UNL     1       5.883   3.564  -0.027  0.00  0.00    +0.173 C 
BRANCH  21  23
ATOM     22  N   UNL     1       7.764   5.171  -0.041  0.00  0.00    -0.285 N 
ATOM     23  C   UNL     1       6.432   4.968  -0.031  0.00  0.00    +0.227 C 
ATOM     24  O   UNL     1       5.674   5.915  -0.027  0.00  0.00    -0.275 OA
ATOM     25  H   UNL     1       8.370   4.416   0.023  0.00  0.00    +0.155 HD
BRANCH  22  30
ATOM     26  C   UNL     1       8.120   8.819   0.357  0.00  0.00    +0.061 A 
ATOM     27  C   UNL     1       9.300   9.042  -0.355  0.00  0.00    +0.015 A 
ATOM     28  C   UNL     1       9.955   7.985  -0.953  0.00  0.00    +0.003 A 
ATOM     29  C   UNL     1       9.450   6.702  -0.844  0.00  0.00    +0.023 A 
ATOM     30  C   UNL     1       8.274   6.470  -0.142  0.00  0.00    +0.034 A 
ATOM     31  C   UNL     1       7.608   7.525   0.462  0.00  0.00    +0.038 A 
BRANCH  26  32
ATOM     32  C   UNL     1       7.416   9.948   0.999  0.00  0.00    +0.339 C 
ATOM     33  O   UNL     1       6.390   9.752   1.618  0.00  0.00    -0.245 OA
BRANCH  32  35
ATOM     34  C   UNL     1       7.169  12.258   1.551  0.00  0.00    +0.280 C 
ATOM     35  O   UNL     1       7.913  11.197   0.896  0.00  0.00    -0.464 OA
ENDBRANCH  32  35
ENDBRANCH  26  32
ENDBRANCH  22  30
ENDBRANCH  21  23
ENDBRANCH  20  21
ENDBRANCH   1  20
TORSDOF 7
