REMARK  Name = ZINC26163781
REMARK  7 active torsions:
REMARK  status: ('A' for Active; 'I' for Inactive)
REMARK    1  A    between atoms: C_4  and  C_7
REMARK    2  A    between atoms: C_7  and  N_8
REMARK    3  A    between atoms: C_10  and  C_17
REMARK    4  A    between atoms: C_17  and  C_18
REMARK    5  A    between atoms: C_18  and  C_19
REMARK    6  A    between atoms: C_19  and  C_20
REMARK    7  A    between atoms: C_20  and  N_21
REMARK                            x       y       z     vdW  Elec       q    Type
REMARK                         _______ _______ _______ _____ _____    ______ ____
ROOT
ATOM      1  C   UNL     1      -5.015   2.110   4.414  0.00  0.00    +0.003 C 
ENDROOT
BRANCH   1   2
ATOM      2  C   UNL     1      -3.638   1.445   4.436  0.00  0.00    +0.037 C 
BRANCH   2   5
ATOM      3  N   UNL     1      -1.752   2.345   1.404  0.00  0.00    -0.342 N 
ATOM      4  C   UNL     1      -2.606   1.543   2.111  0.00  0.00    +0.090 A 
ATOM      5  C   UNL     1      -2.777   2.035   3.348  0.00  0.00    -0.022 A 
ATOM      6  C   UNL     1      -1.974   3.256   3.439  0.00  0.00    +0.003 A 
ATOM      7  C   UNL     1      -1.349   3.404   2.187  0.00  0.00    +0.050 A 
ATOM      8  C   UNL     1      -0.509   4.491   1.968  0.00  0.00    +0.026 A 
ATOM      9  C   UNL     1      -0.300   5.407   2.976  0.00  0.00    +0.002 A 
ATOM     10  C   UNL     1      -0.919   5.257   4.209  0.00  0.00    +0.001 A 
ATOM     11  C   UNL     1      -1.748   4.197   4.445  0.00  0.00    +0.010 A 
BRANCH   3  12
ATOM     12  C   UNL     1      -1.332   2.114   0.020  0.00  0.00    +0.157 C 
BRANCH  12  16
ATOM     13  C   UNL     1       2.396   0.029  -0.022  0.00  0.00    +0.000 A 
ATOM     14  C   UNL     1       1.208  -0.679  -0.014  0.00  0.00    +0.000 A 
ATOM     15  C   UNL     1       0.002  -0.004   0.002  0.00  0.00    +0.005 A 
ATOM     16  C   UNL     1      -0.017   1.378   0.010  0.00  0.00    -0.028 A 
ATOM     17  C   UNL     1       1.171   2.086   0.002  0.00  0.00    +0.005 A 
ATOM     18  C   UNL     1       2.377   1.411  -0.014  0.00  0.00    +0.000 A 
ENDBRANCH  12  16
ENDBRANCH   3  12
ENDBRANCH   2   5
ENDBRANCH   1   2
BRANCH   1  19
ATOM     19  C   UNL     1      -5.888   1.511   5.519  0.00  0.00    -0.018 C 
BRANCH  19  20
ATOM     20  C   UNL     1      -7.266   2.176   5.497  0.00  0.00    -0.079 C 
BRANCH  20  21
ATOM     21  N   UNL     1      -8.104   1.601   6.557  0.00  0.00    +0.380 N 
ATOM     22  C   UNL     1      -7.362   1.506   7.821  0.00  0.00    -0.076 C 
ATOM     23  C   UNL     1      -8.212   0.764   8.857  0.00  0.00    +0.021 C 
ATOM     24  C   UNL     1      -9.529   1.512   9.059  0.00  0.00    +0.092 C 
ATOM     25  C   UNL     1     -10.257   1.657   7.723  0.00  0.00    +0.021 C 
ATOM     26  C   UNL     1      -9.344   2.371   6.724  0.00  0.00    -0.076 C 
ATOM     27  C   UNL     1     -10.398   0.783  10.052  0.00  0.00    -0.011 A 
ATOM     28  C   UNL     1     -10.705  -0.550  10.230  0.00  0.00    +0.007 A 
ATOM     29  C   UNL     1     -11.553  -0.932  11.254  0.00  0.00    +0.000 A 
ATOM     30  C   UNL     1     -12.094   0.021  12.097  0.00  0.00    +0.000 A 
ATOM     31  C   UNL     1     -11.786   1.357  11.919  0.00  0.00    +0.006 A 
ATOM     32  C   UNL     1     -10.940   1.739  10.898  0.00  0.00    -0.016 A 
ATOM     33  C   UNL     1     -10.419   3.084  10.448  0.00  0.00    +0.196 C 
ATOM     34  O   UNL     1      -9.274   2.809   9.620  0.00  0.00    -0.364 OA
ATOM     35  H   UNL     1      -8.382   0.581   6.255  0.00  0.00    -0.082 HD
ENDBRANCH  20  21
ENDBRANCH  19  20
ENDBRANCH   1  19
TORSDOF 7
