REMARK  Name = ZINC19950769
REMARK  13 active torsions:
REMARK  status: ('A' for Active; 'I' for Inactive)
REMARK    1  A    between atoms: C_1  and  C_2
REMARK    2  A    between atoms: C_2  and  O_3
REMARK    3  A    between atoms: O_3  and  C_4
REMARK    4  A    between atoms: C_7  and  N_10
REMARK    5  A    between atoms: N_10  and  C_11
REMARK    6  A    between atoms: N_10  and  S_27
REMARK    7  A    between atoms: C_11  and  C_12
REMARK    8  A    between atoms: N_14  and  N_15
REMARK    9  A    between atoms: C_16  and  C_17
REMARK   10  A    between atoms: C_20  and  O_23
REMARK   11  A    between atoms: O_23  and  C_24
REMARK   12  A    between atoms: C_24  and  C_26
REMARK   13  A    between atoms: S_27  and  C_30
REMARK                            x       y       z     vdW  Elec       q    Type
REMARK                         _______ _______ _______ _____ _____    ______ ____
ROOT
ATOM      1  N   UNL     1       1.160  -5.821   1.680  0.00  0.00    -0.194 N 
ENDROOT
BRANCH   1   5
ATOM      2  C   UNL     1      -0.071  -1.863   1.247  0.00  0.00    +0.121 A 
ATOM      3  C   UNL     1      -0.914  -2.896   0.866  0.00  0.00    +0.047 A 
ATOM      4  C   UNL     1      -0.506  -4.208   1.008  0.00  0.00    +0.028 A 
ATOM      5  C   UNL     1       0.747  -4.492   1.534  0.00  0.00    +0.052 A 
ATOM      6  C   UNL     1       1.590  -3.457   1.916  0.00  0.00    +0.028 A 
ATOM      7  C   UNL     1       1.183  -2.145   1.767  0.00  0.00    +0.047 A 
BRANCH   2   8
ATOM      8  O   UNL     1      -0.473  -0.571   1.107  0.00  0.00    -0.492 OA
BRANCH   8  10
ATOM      9  C   UNL     1      -2.051   1.150   0.482  0.00  0.00    +0.048 C 
ATOM     10  C   UNL     1      -1.777  -0.353   0.564  0.00  0.00    +0.225 C 
ENDBRANCH   8  10
ENDBRANCH   2   8
ENDBRANCH   1   5
BRANCH   1  11
ATOM     11  S   UNL     1       1.535  -6.412   3.180  0.00  0.00    +0.075 S 
ATOM     12  O   UNL     1       2.386  -7.532   2.975  0.00  0.00    -0.150 OA
ATOM     13  O   UNL     1       1.921  -5.297   3.971  0.00  0.00    -0.150 OA
BRANCH  11  14
ATOM     14  C   UNL     1       0.044  -7.035   3.882  0.00  0.00    +0.109 A 
ATOM     15  C   UNL     1      -0.767  -6.204   4.632  0.00  0.00    +0.029 A 
ATOM     16  C   UNL     1      -1.937  -6.693   5.183  0.00  0.00    +0.002 A 
ATOM     17  C   UNL     1      -2.296  -8.013   4.984  0.00  0.00    +0.000 A 
ATOM     18  C   UNL     1      -1.485  -8.844   4.233  0.00  0.00    +0.002 A 
ATOM     19  C   UNL     1      -0.318  -8.354   3.679  0.00  0.00    +0.029 A 
ENDBRANCH  11  14
ENDBRANCH   1  11
BRANCH   1  20
ATOM     20  C   UNL     1       1.262  -6.690   0.504  0.00  0.00    +0.228 C 
BRANCH  20  21
ATOM     21  C   UNL     1       2.605  -6.495  -0.150  0.00  0.00    +0.251 C 
ATOM     22  O   UNL     1       3.400  -5.708   0.319  0.00  0.00    -0.272 OA
ATOM     23  N   UNL     1       2.923  -7.195  -1.257  0.00  0.00    -0.206 N 
ATOM     24  H   UNL     1       2.288  -7.824  -1.633  0.00  0.00    +0.177 HD
BRANCH  23  25
ATOM     25  N   UNL     1       4.172  -7.014  -1.865  0.00  0.00    -0.188 NA
ATOM     26  C   UNL     1       4.479  -7.688  -2.931  0.00  0.00    +0.138 C 
BRANCH  26  27
ATOM     27  C   UNL     1       5.793  -7.497  -3.571  0.00  0.00    -0.005 A 
ATOM     28  C   UNL     1       6.713  -6.596  -3.029  0.00  0.00    +0.013 A 
ATOM     29  C   UNL     1       7.940  -6.421  -3.631  0.00  0.00    +0.047 A 
ATOM     30  C   UNL     1       8.264  -7.140  -4.774  0.00  0.00    +0.132 A 
ATOM     31  C   UNL     1       7.353  -8.037  -5.317  0.00  0.00    +0.047 A 
ATOM     32  C   UNL     1       6.125  -8.222  -4.719  0.00  0.00    +0.013 A 
BRANCH  30  33
ATOM     33  O   UNL     1       9.475  -6.964  -5.364  0.00  0.00    -0.426 OA
BRANCH  33  34
ATOM     34  C   UNL     1      10.543  -7.548  -4.797  0.00  0.00    +0.309 C 
ATOM     35  O   UNL     1      10.426  -8.131  -3.745  0.00  0.00    -0.251 OA
ATOM     36  C   UNL     1      11.889  -7.476  -5.472  0.00  0.00    +0.136 C 
ENDBRANCH  33  34
ENDBRANCH  30  33
ENDBRANCH  26  27
ENDBRANCH  23  25
ENDBRANCH  20  21
ENDBRANCH   1  20
TORSDOF 11
