REMARK  Name = ZINC64557401
REMARK  11 active torsions:
REMARK  status: ('A' for Active; 'I' for Inactive)
REMARK    1  A    between atoms: C_1  and  C_2
REMARK    2  A    between atoms: C_2  and  C_3
REMARK    3  A    between atoms: C_3  and  C_4
REMARK    4  A    between atoms: C_4  and  N_5
REMARK    5  A    between atoms: C_10  and  C_24
REMARK    6  A    between atoms: C_14  and  C_15
REMARK    7  A    between atoms: C_14  and  C_16
REMARK    8  A    between atoms: N_18  and  C_19
REMARK    9  A    between atoms: N_26  and  C_27
REMARK   10  A    between atoms: C_27  and  C_28
REMARK   11  A    between atoms: C_28  and  C_29
REMARK                            x       y       z     vdW  Elec       q    Type
REMARK                         _______ _______ _______ _____ _____    ______ ____
ROOT
ATOM      1  N   UNL     1      -2.802  -2.990   0.001  0.00  0.00    -0.281 N 
ATOM      2  C   UNL     1      -3.464  -3.406   1.107  0.00  0.00    +0.266 C 
ATOM      3  O   UNL     1      -2.926  -3.453   2.197  0.00  0.00    -0.268 OA
ATOM      4  C   UNL     1      -4.871  -3.798   0.919  0.00  0.00    +0.124 A 
ATOM      5  C   UNL     1      -5.845  -4.082   1.814  0.00  0.00    +0.067 A 
ATOM      6  C   UNL     1      -6.989  -4.372   1.036  0.00  0.00    +0.148 A 
ATOM      7  N   UNL     1      -6.646  -4.254  -0.237  0.00  0.00    -0.166 NA
ATOM      8  N   UNL     1      -5.416  -3.932  -0.341  0.00  0.00    -0.256 N 
ATOM      9  C   UNL     1      -4.602  -3.729  -1.546  0.00  0.00    +0.179 C 
ATOM     10  C   UNL     1      -3.504  -2.705  -1.246  0.00  0.00    +0.130 C 
ATOM     11  C   UNL     1      -4.131  -1.312  -1.153  0.00  0.00    +0.044 C 
ENDROOT
BRANCH  10  12
ATOM     12  C   UNL     1      -2.508  -2.712  -2.377  0.00  0.00    +0.238 C 
ATOM     13  O   UNL     1      -2.506  -1.811  -3.189  0.00  0.00    -0.273 OA
ATOM     14  N   UNL     1      -1.620  -3.720  -2.487  0.00  0.00    -0.311 N 
ATOM     15  H   UNL     1      -1.669  -4.477  -1.883  0.00  0.00    +0.149 HD
BRANCH  14  16
ATOM     16  C   UNL     1      -0.581  -3.672  -3.518  0.00  0.00    +0.073 C 
ATOM     17  C   UNL     1      -1.111  -4.286  -4.831  0.00  0.00    +0.022 C 
ATOM     18  C   UNL     1       0.110  -5.036  -5.419  0.00  0.00    +0.002 C 
ATOM     19  C   UNL     1       0.789  -5.626  -4.158  0.00  0.00    +0.002 C 
ATOM     20  C   UNL     1       0.626  -4.524  -3.090  0.00  0.00    +0.022 C 
ENDBRANCH  14  16
ENDBRANCH  10  12
BRANCH   6  21
ATOM     21  C   UNL     1      -8.325  -4.739   1.550  0.00  0.00    +0.264 C 
ATOM     22  O   UNL     1      -8.515  -4.814   2.748  0.00  0.00    -0.268 OA
ATOM     23  N   UNL     1      -9.332  -4.991   0.690  0.00  0.00    -0.310 N 
ATOM     24  H   UNL     1      -9.180  -4.931  -0.266  0.00  0.00    +0.149 HD
BRANCH  23  25
ATOM     25  C   UNL     1     -10.656  -5.355   1.200  0.00  0.00    +0.109 C 
BRANCH  25  26
ATOM     26  C   UNL     1     -11.609  -5.586   0.025  0.00  0.00    +0.052 C 
BRANCH  26  27
ATOM     27  C   UNL     1     -12.971  -5.961   0.549  0.00  0.00    -0.040 C 
ATOM     28  C   UNL     1     -14.018  -5.131   0.759  0.00  0.00    -0.001 A 
ATOM     29  C   UNL     1     -14.195  -3.686   0.572  0.00  0.00    +0.010 A 
ATOM     30  C   UNL     1     -15.387  -3.125   0.878  0.00  0.00    +0.001 A 
ATOM     31  C   UNL     1     -16.455  -3.888   1.369  0.00  0.00    +0.002 A 
ATOM     32  C   UNL     1     -16.369  -5.220   1.569  0.00  0.00    +0.026 A 
ATOM     33  C   UNL     1     -15.162  -5.914   1.279  0.00  0.00    +0.043 A 
ATOM     34  N   UNL     1     -14.835  -7.179   1.386  0.00  0.00    -0.380 N 
ATOM     35  C   UNL     1     -13.447  -7.342   0.940  0.00  0.00    +0.144 C 
ATOM     36  H   UNL     1     -15.414  -7.888   1.704  0.00  0.00    +0.160 HD
ENDBRANCH  26  27
ENDBRANCH  25  26
ENDBRANCH  23  25
ENDBRANCH   6  21
BRANCH   1  37
ATOM     37  C   UNL     1      -1.349  -2.817   0.060  0.00  0.00    +0.109 C 
BRANCH  37  38
ATOM     38  C   UNL     1      -1.021  -1.353   0.359  0.00  0.00    +0.019 C 
BRANCH  38  40
ATOM     39  C   UNL     1       0.824   0.292   0.721  0.00  0.00    +0.004 C 
ATOM     40  C   UNL     1       0.497  -1.172   0.421  0.00  0.00    -0.002 C 
ENDBRANCH  38  40
ENDBRANCH  37  38
ENDBRANCH   1  37
TORSDOF 9
