REMARK  Name = ZINC66437742
REMARK  8 active torsions:
REMARK  status: ('A' for Active; 'I' for Inactive)
REMARK    1  A    between atoms: C_1  and  O_2
REMARK    2  A    between atoms: O_2  and  C_3
REMARK    3  A    between atoms: C_8  and  N_9
REMARK    4  A    between atoms: N_11  and  C_12
REMARK    5  A    between atoms: C_12  and  C_13
REMARK    6  A    between atoms: C_13  and  C_14
REMARK    7  A    between atoms: N_24  and  C_25
REMARK    8  A    between atoms: C_25  and  C_27
REMARK                            x       y       z     vdW  Elec       q    Type
REMARK                         _______ _______ _______ _____ _____    ______ ____
ROOT
ATOM      1  N   UNL     1      -0.062  -2.779   0.031  0.00  0.00    -0.325 N 
ATOM      2  C   UNL     1      -0.126  -4.138   0.124  0.00  0.00    +0.194 C 
ATOM      3  N   UNL     1       1.019  -4.869   0.250  0.00  0.00    -0.357 N 
ATOM      4  N   UNL     1      -1.301  -4.749   0.094  0.00  0.00    -0.143 NA
ATOM      5  H   UNL     1       0.980  -5.838   0.241  0.00  0.00    +0.162 HD
ATOM      6  H   UNL     1       0.800  -2.337  -0.036  0.00  0.00    +0.169 HD
ENDROOT
BRANCH   1  12
ATOM      7  C   UNL     1      -1.256  -0.756  -0.555  0.00  0.00    +0.143 A 
ATOM      8  C   UNL     1      -2.424  -0.012  -0.557  0.00  0.00    +0.049 A 
ATOM      9  C   UNL     1      -3.569  -0.521   0.027  0.00  0.00    +0.024 A 
ATOM     10  C   UNL     1      -3.553  -1.774   0.615  0.00  0.00    +0.043 A 
ATOM     11  C   UNL     1      -2.390  -2.522   0.621  0.00  0.00    +0.049 A 
ATOM     12  C   UNL     1      -1.239  -2.020   0.032  0.00  0.00    +0.085 A 
ATOM     13 CL   UNL     1      -4.994  -2.406   1.346  0.00  0.00    -0.083 Cl
BRANCH   7  15
ATOM     14  C   UNL     1      -0.220   1.045  -1.712  0.00  0.00    +0.277 C 
ATOM     15  O   UNL     1      -0.129  -0.257  -1.130  0.00  0.00    -0.493 OA
ENDBRANCH   7  15
ENDBRANCH   1  12
BRANCH   4  16
ATOM     16  C   UNL     1      -1.361  -6.087   0.089  0.00  0.00    +0.270 C 
ATOM     17  O   UNL     1      -0.851  -6.723   0.994  0.00  0.00    -0.268 OA
BRANCH  16  18
ATOM     18  C   UNL     1      -2.046  -6.794  -1.018  0.00  0.00    +0.039 A 
ATOM     19  C   UNL     1      -2.625  -6.069  -2.059  0.00  0.00    +0.013 A 
ATOM     20  C   UNL     1      -3.261  -6.734  -3.088  0.00  0.00    +0.001 A 
ATOM     21  C   UNL     1      -3.325  -8.116  -3.087  0.00  0.00    +0.000 A 
ATOM     22  C   UNL     1      -2.753  -8.840  -2.057  0.00  0.00    +0.001 A 
ATOM     23  C   UNL     1      -2.109  -8.188  -1.026  0.00  0.00    +0.013 A 
ENDBRANCH  16  18
ENDBRANCH   4  16
BRANCH   3  24
ATOM     24  C   UNL     1       2.309  -4.189   0.397  0.00  0.00    +0.120 C 
BRANCH  24  25
ATOM     25  C   UNL     1       3.423  -5.231   0.517  0.00  0.00    +0.058 C 
BRANCH  25  26
ATOM     26  C   UNL     1       4.750  -4.532   0.669  0.00  0.00    -0.021 A 
ATOM     27  C   UNL     1       5.613  -4.235  -0.315  0.00  0.00    +0.087 A 
ATOM     28  N   UNL     1       6.709  -3.601   0.202  0.00  0.00    -0.360 N 
ATOM     29  H   UNL     1       7.468  -3.289  -0.316  0.00  0.00    +0.165 HD
ATOM     30  C   UNL     1       6.575  -3.470   1.566  0.00  0.00    +0.047 A 
ATOM     31  C   UNL     1       5.338  -4.042   1.918  0.00  0.00    +0.003 A 
ATOM     32  C   UNL     1       4.928  -4.048   3.252  0.00  0.00    +0.010 A 
ATOM     33  C   UNL     1       5.730  -3.495   4.210  0.00  0.00    +0.001 A 
ATOM     34  C   UNL     1       6.949  -2.925   3.868  0.00  0.00    +0.002 A 
ATOM     35  C   UNL     1       7.377  -2.917   2.558  0.00  0.00    +0.026 A 
ENDBRANCH  25  26
ENDBRANCH  24  25
ENDBRANCH   3  24
TORSDOF 7
