REMARK  Name = ZINC36629006
REMARK  9 active torsions:
REMARK  status: ('A' for Active; 'I' for Inactive)
REMARK    1  A    between atoms: C_1  and  C_2
REMARK    2  A    between atoms: C_2  and  C_3
REMARK    3  A    between atoms: C_3  and  N_4
REMARK    4  A    between atoms: C_10  and  N_15
REMARK    5  A    between atoms: C_11  and  C_12
REMARK    6  A    between atoms: C_16  and  C_18
REMARK    7  A    between atoms: C_18  and  C_19
REMARK    8  A    between atoms: C_19  and  C_20
REMARK    9  A    between atoms: C_19  and  C_26
REMARK                            x       y       z     vdW  Elec       q    Type
REMARK                         _______ _______ _______ _____ _____    ______ ____
ROOT
ATOM      1  N   UNL     1       0.348  -0.729  -2.803  0.00  0.00    +0.383 N 
ATOM      2  C   UNL     1       0.691  -0.655  -1.377  0.00  0.00    -0.074 C 
ATOM      3  C   UNL     1       0.338  -1.974  -0.680  0.00  0.00    +0.018 C 
ATOM      4  C   UNL     1       0.976  -3.106  -1.473  0.00  0.00    -0.027 A 
ATOM      5  C   UNL     1       1.400  -2.894  -2.740  0.00  0.00    -0.021 A 
ATOM      6  S   UNL     1       2.060  -4.450  -3.255  0.00  0.00    -0.079 S 
ATOM      7  C   UNL     1       1.789  -5.352  -1.864  0.00  0.00    +0.084 A 
ATOM      8  C   UNL     1       1.189  -4.456  -0.991  0.00  0.00    +0.068 A 
ATOM      9  C   UNL     1       1.307  -1.608  -3.498  0.00  0.00    -0.035 C 
ATOM     10  H   UNL     1      -0.584  -1.101  -2.906  0.00  0.00    -0.081 HD
ENDROOT
BRANCH   8  11
ATOM     11  C   UNL     1       0.786  -4.859   0.360  0.00  0.00    +0.244 C 
ATOM     12  O   UNL     1      -0.329  -5.306   0.555  0.00  0.00    -0.270 OA
ATOM     13  N   UNL     1       1.651  -4.734   1.387  0.00  0.00    -0.325 N 
ATOM     14  H   UNL     1       2.539  -4.378   1.231  0.00  0.00    +0.145 HD
ATOM     15  H   UNL     1       1.384  -5.000   2.280  0.00  0.00    +0.145 HD
ENDBRANCH   8  11
BRANCH   7  16
ATOM     16  N   UNL     1       2.096  -6.685  -1.639  0.00  0.00    -0.279 N 
ATOM     17  C   UNL     1       2.685  -7.413  -2.608  0.00  0.00    +0.218 C 
ATOM     18  O   UNL     1       2.947  -6.903  -3.677  0.00  0.00    -0.275 OA
ATOM     19  H   UNL     1       1.887  -7.094  -0.785  0.00  0.00    +0.155 HD
BRANCH  17  20
ATOM     20  C   UNL     1       3.019  -8.863  -2.364  0.00  0.00    +0.109 C 
BRANCH  20  21
ATOM     21  C   UNL     1       3.675  -9.452  -3.614  0.00  0.00    +0.058 C 
BRANCH  21  22
ATOM     22  C   UNL     1       4.999  -8.773  -3.854  0.00  0.00    -0.040 A 
ATOM     23  C   UNL     1       5.281  -8.227  -5.092  0.00  0.00    +0.004 A 
ATOM     24  C   UNL     1       6.496  -7.604  -5.312  0.00  0.00    +0.000 A 
ATOM     25  C   UNL     1       7.428  -7.527  -4.294  0.00  0.00    +0.000 A 
ATOM     26  C   UNL     1       7.145  -8.073  -3.056  0.00  0.00    +0.000 A 
ATOM     27  C   UNL     1       5.929  -8.692  -2.834  0.00  0.00    +0.004 A 
ENDBRANCH  21  22
BRANCH  21  28
ATOM     28  C   UNL     1       3.897 -10.930  -3.415  0.00  0.00    -0.040 A 
ATOM     29  C   UNL     1       4.551 -11.385  -2.286  0.00  0.00    +0.004 A 
ATOM     30  C   UNL     1       4.755 -12.740  -2.103  0.00  0.00    +0.000 A 
ATOM     31  C   UNL     1       4.304 -13.640  -3.051  0.00  0.00    +0.000 A 
ATOM     32  C   UNL     1       3.649 -13.185  -4.180  0.00  0.00    +0.000 A 
ATOM     33  C   UNL     1       3.442 -11.830  -4.360  0.00  0.00    +0.004 A 
ENDBRANCH  21  28
ENDBRANCH  20  21
ENDBRANCH  17  20
ENDBRANCH   7  16
BRANCH   1  34
ATOM     34  C   UNL     1       0.405   0.617  -3.390  0.00  0.00    -0.079 C 
BRANCH  34  36
ATOM     35  C   UNL     1      -0.016   1.962  -5.453  0.00  0.00    +0.002 C 
ATOM     36  C   UNL     1      -0.075   0.561  -4.842  0.00  0.00    -0.022 C 
ENDBRANCH  34  36
ENDBRANCH   1  34
TORSDOF 8
