REMARK  Name = ZINC24710893
REMARK  10 active torsions:
REMARK  status: ('A' for Active; 'I' for Inactive)
REMARK    1  A    between atoms: C_1  and  C_2
REMARK    2  A    between atoms: C_2  and  O_3
REMARK    3  A    between atoms: O_3  and  C_4
REMARK    4  A    between atoms: C_9  and  C_10
REMARK    5  A    between atoms: C_10  and  S_11
REMARK    6  A    between atoms: S_11  and  C_12
REMARK    7  A    between atoms: C_15  and  C_24
REMARK    8  A    between atoms: N_16  and  C_17
REMARK    9  A    between atoms: C_17  and  C_18
REMARK   10  A    between atoms: C_35  and  C_38
REMARK                            x       y       z     vdW  Elec       q    Type
REMARK                         _______ _______ _______ _____ _____    ______ ____
ROOT
ATOM      1  C   UNL     1       5.666  -3.452  -0.317  0.00  0.00    +0.192 A 
ATOM      2  N   UNL     1       4.434  -3.855  -0.113  0.00  0.00    -0.122 NA
ATOM      3  N   UNL     1       3.680  -2.851   0.164  0.00  0.00    -0.128 NA
ATOM      4  C   UNL     1       4.385  -1.743   0.145  0.00  0.00    +0.167 A 
ATOM      5  N   UNL     1       5.680  -2.093  -0.160  0.00  0.00    -0.300 N 
ENDROOT
BRANCH   4   6
ATOM      6  C   UNL     1       3.883  -0.379   0.409  0.00  0.00    +0.044 A 
ATOM      7  C   UNL     1       4.137   0.735  -0.325  0.00  0.00    +0.095 A 
ATOM      8  N   UNL     1       3.500   1.807   0.229  0.00  0.00    -0.360 N 
ATOM      9  H   UNL     1       3.592   2.801  -0.234  0.00  0.00    +0.165 HD
ATOM     10  C   UNL     1       2.804   1.418   1.353  0.00  0.00    +0.047 A 
ATOM     11  C   UNL     1       3.010   0.038   1.519  0.00  0.00    +0.010 A 
ATOM     12  C   UNL     1       2.418  -0.632   2.588  0.00  0.00    +0.011 A 
ATOM     13  C   UNL     1       1.632   0.064   3.479  0.00  0.00    +0.001 A 
ATOM     14  C   UNL     1       1.429   1.427   3.317  0.00  0.00    +0.002 A 
ATOM     15  C   UNL     1       2.007   2.103   2.265  0.00  0.00    +0.026 A 
ENDBRANCH   4   6
BRANCH   1  16
ATOM     16  S   UNL     1       7.046  -4.472  -0.719  0.00  0.00    -0.081 S 
BRANCH  16  17
ATOM     17  C   UNL     1       6.241  -6.093  -0.746  0.00  0.00    +0.116 C 
BRANCH  17  23
ATOM     18  C   UNL     1       7.482  -7.505  -2.401  0.00  0.00    +0.125 A 
ATOM     19  C   UNL     1       8.426  -8.476  -2.704  0.00  0.00    +0.053 A 
ATOM     20  C   UNL     1       9.129  -9.091  -1.691  0.00  0.00    +0.001 A 
ATOM     21  C   UNL     1       8.905  -8.753  -0.363  0.00  0.00    +0.125 A 
ATOM     22  C   UNL     1       7.961  -7.774  -0.066  0.00  0.00    +0.054 A 
ATOM     23  C   UNL     1       7.259  -7.153  -1.079  0.00  0.00    +0.008 A 
ATOM     24  O   UNL     1       9.691  -9.489   0.472  0.00  0.00    -0.488 OA
ATOM     25  C   UNL     1      10.787 -10.042  -0.275  0.00  0.00    +0.175 C 
ATOM     26  C   UNL     1      10.205 -10.159  -1.703  0.00  0.00    +0.083 C 
ATOM     27  C   UNL     1      11.989  -9.095  -0.256  0.00  0.00    +0.052 C 
BRANCH  18  28
ATOM     28  O   UNL     1       6.782  -6.899  -3.397  0.00  0.00    -0.492 OA
BRANCH  28  30
ATOM     29  C   UNL     1       6.188  -6.526  -5.710  0.00  0.00    +0.048 C 
ATOM     30  C   UNL     1       7.066  -7.313  -4.735  0.00  0.00    +0.225 C 
ENDBRANCH  28  30
ENDBRANCH  18  28
ENDBRANCH  17  23
ENDBRANCH  16  17
ENDBRANCH   1  16
BRANCH   5  31
ATOM     31  C   UNL     1       6.833  -1.198  -0.289  0.00  0.00    +0.157 C 
BRANCH  31  32
ATOM     32  C   UNL     1       7.441  -0.948   1.093  0.00  0.00    +0.138 C 
ATOM     33  C   UNL     1       8.584   0.083   0.983  0.00  0.00    +0.035 C 
ATOM     34  C   UNL     1       9.638  -0.485   1.972  0.00  0.00    +0.031 C 
ATOM     35  C   UNL     1       9.418  -2.009   1.793  0.00  0.00    +0.160 C 
ATOM     36  O   UNL     1       8.002  -2.163   1.604  0.00  0.00    -0.375 OA
ENDBRANCH  31  32
ENDBRANCH   5  31
TORSDOF 8
