REMARK  Name = ZINC16033035
REMARK  7 active torsions:
REMARK  status: ('A' for Active; 'I' for Inactive)
REMARK    1  A    between atoms: C_1  and  C_2
REMARK    2  A    between atoms: C_17  and  C_20
REMARK    3  A    between atoms: C_20  and  C_22
REMARK    4  A    between atoms: C_20  and  O_23
REMARK    5  A    between atoms: N_26  and  C_29
REMARK    6  A    between atoms: C_29  and  C_30
REMARK    7  A    between atoms: C_30  and  C_31
REMARK                            x       y       z     vdW  Elec       q    Type
REMARK                         _______ _______ _______ _____ _____    ______ ____
ROOT
ATOM      1  C   UNL     1      -0.018   1.503   0.010  0.00  0.00    +0.044 C 
ATOM      2  C   UNL     1       0.002  -0.004   0.002  0.00  0.00    -0.049 A 
ATOM      3  C   UNL     1       0.006  -0.691  -1.199  0.00  0.00    +0.011 A 
ATOM      4  C   UNL     1       0.024  -2.068  -1.207  0.00  0.00    +0.005 A 
ATOM      5  C   UNL     1       0.039  -2.783  -0.013  0.00  0.00    +0.057 A 
ATOM      6  C   UNL     1       0.037  -2.084   1.193  0.00  0.00    +0.063 A 
ATOM      7  C   UNL     1       0.023  -0.703   1.195  0.00  0.00    +0.025 A 
ATOM      8 CL   UNL     1       0.056  -2.951   2.696  0.00  0.00    -0.082 Cl
ATOM      9  N   UNL     1       0.056  -4.156  -0.272  0.00  0.00    -0.282 N 
ATOM     10  C   UNL     1       0.054  -4.423  -1.592  0.00  0.00    +0.243 C 
ATOM     11  O   UNL     1       0.067  -5.520  -2.109  0.00  0.00    -0.273 OA
ATOM     12  C   UNL     1       0.033  -3.096  -2.301  0.00  0.00    +0.136 C 
ATOM     13  C   UNL     1      -1.198  -2.966  -3.207  0.00  0.00    +0.122 C 
ATOM     14  C   UNL     1      -0.678  -3.328  -4.627  0.00  0.00    +0.109 C 
ATOM     15  C   UNL     1       0.814  -3.667  -4.428  0.00  0.00    +0.096 C 
ATOM     16  N   UNL     1       1.203  -2.938  -3.184  0.00  0.00    -0.293 NA
ATOM     17  C   UNL     1      -0.813  -2.030  -5.389  0.00  0.00    +0.227 C 
ATOM     18  O   UNL     1      -0.507  -1.864  -6.550  0.00  0.00    -0.275 OA
ATOM     19  N   UNL     1      -1.323  -1.091  -4.583  0.00  0.00    -0.241 N 
ATOM     20  C   UNL     1      -1.590  -1.510  -3.324  0.00  0.00    +0.228 C 
ATOM     21  O   UNL     1      -2.062  -0.838  -2.433  0.00  0.00    -0.275 OA
ATOM     22  H   UNL     1       0.068  -4.837   0.418  0.00  0.00    +0.155 HD
ATOM     23  H   UNL     1       1.389  -1.964  -3.368  0.00  0.00    +0.124 HD
ENDROOT
BRANCH  15  24
ATOM     24  C   UNL     1       1.638  -3.154  -5.611  0.00  0.00    +0.129 C 
ATOM     25  C   UNL     1       3.112  -3.502  -5.393  0.00  0.00    +0.039 C 
BRANCH  24  26
ATOM     26  O   UNL     1       1.177  -3.769  -6.815  0.00  0.00    -0.390 OA
ATOM     27  H   UNL     1       1.246  -4.733  -6.817  0.00  0.00    +0.210 HD
ENDBRANCH  24  26
ENDBRANCH  15  24
BRANCH  19  28
ATOM     28  C   UNL     1      -1.581   0.281  -5.028  0.00  0.00    +0.121 C 
BRANCH  28  29
ATOM     29  C   UNL     1      -3.003   0.379  -5.583  0.00  0.00    +0.054 C 
BRANCH  29  30
ATOM     30  C   UNL     1      -3.268   1.790  -6.041  0.00  0.00    -0.046 A 
ATOM     31  C   UNL     1      -3.791   2.716  -5.158  0.00  0.00    +0.004 A 
ATOM     32  C   UNL     1      -4.034   4.010  -5.577  0.00  0.00    +0.000 A 
ATOM     33  C   UNL     1      -3.753   4.379  -6.880  0.00  0.00    +0.000 A 
ATOM     34  C   UNL     1      -3.228   3.453  -7.762  0.00  0.00    +0.000 A 
ATOM     35  C   UNL     1      -2.982   2.160  -7.341  0.00  0.00    +0.004 A 
ENDBRANCH  29  30
ENDBRANCH  28  29
ENDBRANCH  19  28
TORSDOF 5
