REMARK  Name = ZINC21742721
REMARK  5 active torsions:
REMARK  status: ('A' for Active; 'I' for Inactive)
REMARK    1  A    between atoms: C_1  and  C_2
REMARK    2  A    between atoms: C_2  and  C_4
REMARK    3  A    between atoms: C_2  and  N_14
REMARK    4  A    between atoms: C_15  and  C_17
REMARK    5  A    between atoms: C_17  and  N_18
REMARK                            x       y       z     vdW  Elec       q    Type
REMARK                         _______ _______ _______ _____ _____    ______ ____
ROOT
ATOM      1  C   UNL     1       3.445   5.467   2.299  0.00  0.00    +0.213 C 
ENDROOT
BRANCH   1   2
ATOM      2  N   UNL     1       2.714   4.795   1.221  0.00  0.00    -0.215 N 
ATOM      3  C   UNL     1       1.577   4.092   1.399  0.00  0.00    +0.252 C 
ATOM      4  O   UNL     1       0.987   3.902   2.441  0.00  0.00    -0.272 OA
ATOM      5  C   UNL     1       1.192   3.592   0.026  0.00  0.00    +0.144 C 
ATOM      6  C   UNL     1      -0.168   4.150  -0.380  0.00  0.00    +0.081 C 
ATOM      7  C   UNL     1      -1.252   3.395   0.402  0.00  0.00    +0.232 C 
ATOM      8  O   UNL     1      -1.217   2.022   0.014  0.00  0.00    -0.492 OA
ATOM      9  C   UNL     1      -0.017   1.386   0.010  0.00  0.00    +0.126 A 
ATOM     10  C   UNL     1       1.177   2.089   0.002  0.00  0.00    +0.027 A 
ATOM     11  C   UNL     1       2.379   1.403  -0.023  0.00  0.00    +0.010 A 
ATOM     12  C   UNL     1       2.394   0.021  -0.032  0.00  0.00    +0.001 A 
ATOM     13  C   UNL     1       1.204  -0.682  -0.018  0.00  0.00    +0.004 A 
ATOM     14  C   UNL     1       0.002  -0.004   0.002  0.00  0.00    +0.046 A 
ATOM     15  N   UNL     1       2.247   4.112  -0.852  0.00  0.00    -0.281 N 
ATOM     16  C   UNL     1       3.092   4.804  -0.063  0.00  0.00    +0.310 C 
ATOM     17  O   UNL     1       4.086   5.372  -0.471  0.00  0.00    -0.252 OA
ATOM     18  H   UNL     1       2.221   3.897  -1.930  0.00  0.00    +0.152 HD
ENDBRANCH   1   2
BRANCH   1  20
ATOM     19  N   UNL     1       5.250   4.921   3.899  0.00  0.00    -0.311 N 
ATOM     20  C   UNL     1       4.457   4.518   2.886  0.00  0.00    +0.231 C 
ATOM     21  O   UNL     1       4.559   3.392   2.447  0.00  0.00    -0.274 OA
ATOM     22  H   UNL     1       5.158   5.942   4.297  0.00  0.00    +0.149 HD
BRANCH  19  24
ATOM     23  C   UNL     1       7.520   4.046   3.639  0.00  0.00    +0.028 C 
ATOM     24  C   UNL     1       6.235   3.998   4.469  0.00  0.00    +0.076 C 
BRANCH  24  25
ATOM     25  C   UNL     1       6.544   4.409   5.910  0.00  0.00    -0.010 C 
ATOM     26  C   UNL     1       5.260   4.362   6.740  0.00  0.00    +0.012 C 
ATOM     27  C   UNL     1       5.568   4.773   8.182  0.00  0.00    -0.010 C 
ATOM     28  C   UNL     1       6.597   3.809   8.778  0.00  0.00    +0.007 C 
ATOM     29  C   UNL     1       7.881   3.857   7.947  0.00  0.00    -0.010 C 
ATOM     30  C   UNL     1       7.572   3.446   6.506  0.00  0.00    +0.012 C 
ATOM     31  C   UNL     1       8.445   5.279   7.962  0.00  0.00    +0.007 C 
ATOM     32  C   UNL     1       7.417   6.242   7.367  0.00  0.00    -0.010 C 
ATOM     33  C   UNL     1       6.133   6.195   8.197  0.00  0.00    +0.007 C 
ATOM     34  C   UNL     1       7.108   5.831   5.925  0.00  0.00    +0.012 C 
ENDBRANCH  24  25
ENDBRANCH  19  24
ENDBRANCH   1  20
TORSDOF 4
