REMARK  Name = ZINC03355482
REMARK  11 active torsions:
REMARK  status: ('A' for Active; 'I' for Inactive)
REMARK    1  A    between atoms: C_1  and  C_2
REMARK    2  A    between atoms: C_2  and  C_3
REMARK    3  A    between atoms: C_2  and  C_4
REMARK    4  A    between atoms: C_4  and  C_5
REMARK    5  A    between atoms: C_5  and  C_7
REMARK    6  A    between atoms: C_5  and  N_24
REMARK    7  A    between atoms: C_7  and  O_9
REMARK    8  A    between atoms: O_9  and  C_10
REMARK    9  A    between atoms: C_10  and  C_11
REMARK   10  A    between atoms: C_13  and  N_21
REMARK   11  A    between atoms: C_25  and  C_27
REMARK                            x       y       z     vdW  Elec       q    Type
REMARK                         _______ _______ _______ _____ _____    ______ ____
ROOT
ATOM      1  C   UNL     1      -2.819  -2.590   0.013  0.00  0.00    +0.328 C 
ATOM      2  O   UNL     1      -3.318  -3.213  -0.894  0.00  0.00    -0.249 OA
ENDROOT
BRANCH   1   3
ATOM      3  C   UNL     1      -1.416  -2.058  -0.121  0.00  0.00    +0.182 C 
BRANCH   3   4
ATOM      4  N   UNL     1      -0.876  -2.426  -1.433  0.00  0.00    -0.298 N 
ATOM      5  C   UNL     1       0.456  -2.525  -1.610  0.00  0.00    +0.245 C 
ATOM      6  O   UNL     1       1.210  -2.307  -0.682  0.00  0.00    -0.270 OA
ATOM      7  H   UNL     1      -1.478  -2.600  -2.173  0.00  0.00    +0.150 HD
BRANCH   5   8
ATOM      8  C   UNL     1       1.000  -2.896  -2.933  0.00  0.00    +0.037 A 
ATOM      9  C   UNL     1       0.136  -3.141  -4.002  0.00  0.00    +0.014 A 
ATOM     10  C   UNL     1       0.650  -3.487  -5.234  0.00  0.00    +0.021 A 
ATOM     11  C   UNL     1       2.019  -3.593  -5.412  0.00  0.00    +0.041 A 
ATOM     12  C   UNL     1       2.881  -3.351  -4.355  0.00  0.00    +0.021 A 
ATOM     13  C   UNL     1       2.380  -2.999  -3.119  0.00  0.00    +0.014 A 
ATOM     14 CL   UNL     1       2.658  -4.030  -6.966  0.00  0.00    -0.084 Cl
ENDBRANCH   5   8
ENDBRANCH   3   4
BRANCH   3  15
ATOM     15  C   UNL     1      -1.433  -0.534   0.013  0.00  0.00    +0.036 C 
BRANCH  15  17
ATOM     16  C   UNL     1      -0.019   1.526   0.010  0.00  0.00    +0.007 C 
ATOM     17  C   UNL     1       0.002  -0.004   0.002  0.00  0.00    -0.015 C 
ATOM     18  C   UNL     1       0.742  -0.511   1.242  0.00  0.00    +0.007 C 
ENDBRANCH  15  17
ENDBRANCH   3  15
ENDBRANCH   1   3
BRANCH   1  19
ATOM     19  O   UNL     1      -3.515  -2.372   1.139  0.00  0.00    -0.458 OA
BRANCH  19  20
ATOM     20  C   UNL     1      -4.840  -2.905   1.197  0.00  0.00    +0.271 C 
BRANCH  20  21
ATOM     21  C   UNL     1      -5.461  -2.563   2.527  0.00  0.00    +0.034 A 
ATOM     22  C   UNL     1      -4.747  -1.832   3.456  0.00  0.00    +0.043 A 
ATOM     23  C   UNL     1      -5.316  -1.518   4.676  0.00  0.00    +0.127 A 
ATOM     24  C   UNL     1      -6.601  -1.937   4.969  0.00  0.00    +0.042 A 
ATOM     25  C   UNL     1      -7.319  -2.670   4.044  0.00  0.00    +0.022 A 
ATOM     26  C   UNL     1      -6.754  -2.978   2.816  0.00  0.00    +0.135 A 
ATOM     27  O   UNL     1      -7.455  -3.685   1.890  0.00  0.00    -0.465 OA
ATOM     28  C   UNL     1      -8.612  -4.388   2.354  0.00  0.00    +0.394 C 
ATOM     29  O   UNL     1      -9.390  -3.501   3.167  0.00  0.00    -0.339 OA
ATOM     30  C   UNL     1      -8.718  -3.125   4.376  0.00  0.00    +0.202 C 
BRANCH  23  31
ATOM     31  N   UNL     1      -4.549  -0.734   5.669  0.00  0.00    +0.056 N 
ATOM     32  O   UNL     1      -3.426  -0.367   5.414  0.00  0.00    -0.126 OA
ATOM     33  O   UNL     1      -5.046  -0.459   6.737  0.00  0.00    -0.126 OA
ENDBRANCH  23  31
ENDBRANCH  20  21
ENDBRANCH  19  20
ENDBRANCH   1  19
TORSDOF 9
