REMARK  Name = ZINC09329518
REMARK  4 active torsions:
REMARK  status: ('A' for Active; 'I' for Inactive)
REMARK    1  A    between atoms: C_8  and  C_26
REMARK    2  A    between atoms: C_10  and  C_17
REMARK    3  A    between atoms: C_21  and  N_23
REMARK    4  A    between atoms: C_26  and  C_28
REMARK                            x       y       z     vdW  Elec       q    Type
REMARK                         _______ _______ _______ _____ _____    ______ ____
ROOT
ATOM      1  C   UNL     1      -3.861   2.898  -1.397  0.00  0.00    +0.000 A 
ATOM      2  C   UNL     1      -4.464   3.695  -2.353  0.00  0.00    +0.002 A 
ATOM      3  C   UNL     1      -3.840   4.843  -2.797  0.00  0.00    +0.023 A 
ATOM      4  C   UNL     1      -2.596   5.207  -2.285  0.00  0.00    +0.036 A 
ATOM      5  C   UNL     1      -2.000   4.397  -1.323  0.00  0.00    -0.027 A 
ATOM      6  C   UNL     1      -2.627   3.253  -0.882  0.00  0.00    +0.004 A 
ATOM      7  C   UNL     1      -0.690   5.054  -0.984  0.00  0.00    +0.052 C 
ATOM      8  C   UNL     1       0.491   4.124  -1.279  0.00  0.00    +0.069 C 
ATOM      9  C   UNL     1       0.950   3.602   0.098  0.00  0.00    +0.016 C 
ATOM     10  C   UNL     1      -0.004   4.247   1.120  0.00  0.00    -0.047 C 
ATOM     11  C   UNL     1       0.196   6.645   0.604  0.00  0.00    -0.005 C 
ATOM     12  S   UNL     1       0.706   6.455   2.370  0.00  0.00    -0.181 S 
ATOM     13  C   UNL     1       0.784   4.613   2.392  0.00  0.00    +0.052 C 
ATOM     14  C   UNL     1      -0.640   6.286  -1.850  0.00  0.00    +0.212 C 
ATOM     15  O   UNL     1       0.252   7.107  -1.890  0.00  0.00    -0.277 OA
ATOM     16  N   UNL     1      -1.777   6.301  -2.571  0.00  0.00    -0.286 N 
ATOM     17  H   UNL     1      -2.001   6.991  -3.215  0.00  0.00    +0.155 HD
ATOM     18  N   UNL     1      -0.620   5.390   0.429  0.00  0.00    +0.401 N 
ATOM     19  H   UNL     1      -1.564   5.547   0.799  0.00  0.00    -0.078 HD
ENDROOT
BRANCH   9  20
ATOM     20  C   UNL     1       0.836   2.100   0.152  0.00  0.00    -0.043 A 
ATOM     21  C   UNL     1       1.849   1.350   0.718  0.00  0.00    +0.004 A 
ATOM     22  C   UNL     1       1.743  -0.028   0.768  0.00  0.00    +0.002 A 
ATOM     23  C   UNL     1       0.625  -0.654   0.251  0.00  0.00    +0.033 A 
ATOM     24  C   UNL     1      -0.388   0.096  -0.315  0.00  0.00    +0.126 A 
ATOM     25  C   UNL     1      -0.284   1.474  -0.364  0.00  0.00    +0.036 A 
BRANCH  24  26
ATOM     26  N   UNL     1      -1.586  -0.575  -0.869  0.00  0.00    +0.056 N 
ATOM     27  O   UNL     1      -1.678  -1.788  -0.826  0.00  0.00    -0.126 OA
ATOM     28  O   UNL     1      -2.479   0.087  -1.368  0.00  0.00    -0.126 OA
ENDBRANCH  24  26
ENDBRANCH   9  20
BRANCH   8  29
ATOM     29  C   UNL     1       0.050   2.978  -2.152  0.00  0.00    +0.168 C 
ATOM     30  O   UNL     1      -1.103   2.904  -2.520  0.00  0.00    -0.292 OA
BRANCH  29  31
ATOM     31  C   UNL     1       1.019   1.948  -2.558  0.00  0.00    +0.036 A 
ATOM     32  C   UNL     1       0.623   0.875  -3.371  0.00  0.00    +0.014 A 
ATOM     33  C   UNL     1       1.573  -0.066  -3.724  0.00  0.00    +0.020 A 
ATOM     34  C   UNL     1       2.872   0.079  -3.269  0.00  0.00    +0.111 A 
ATOM     35  N   UNL     1       3.218   1.099  -2.506  0.00  0.00    -0.263 NA
ATOM     36  C   UNL     1       2.353   2.024  -2.146  0.00  0.00    +0.122 A 
ENDBRANCH  29  31
ENDBRANCH   8  29
TORSDOF 4
