REMARK  Name = ZINC08809836
REMARK  14 active torsions:
REMARK  status: ('A' for Active; 'I' for Inactive)
REMARK    1  A    between atoms: C_1  and  C_2
REMARK    2  A    between atoms: C_2  and  N_3
REMARK    3  A    between atoms: N_3  and  C_4
REMARK    4  A    between atoms: C_4  and  C_5
REMARK    5  A    between atoms: C_6  and  C_8
REMARK    6  A    between atoms: N_13  and  C_15
REMARK    7  A    between atoms: C_18  and  N_36
REMARK    8  A    between atoms: C_20  and  C_21
REMARK    9  A    between atoms: N_22  and  N_23
REMARK   10  A    between atoms: C_24  and  C_26
REMARK   11  A    between atoms: C_26  and  O_27
REMARK   12  A    between atoms: O_27  and  C_28
REMARK   13  A    between atoms: C_31  and  O_34
REMARK   14  A    between atoms: O_34  and  C_35
REMARK                            x       y       z     vdW  Elec       q    Type
REMARK                         _______ _______ _______ _____ _____    ______ ____
ROOT
ATOM      1  C   UNL     1      -1.787   3.153  -0.164  0.00  0.00    +0.039 A 
ATOM      2  C   UNL     1      -2.039   1.792  -0.264  0.00  0.00    +0.026 A 
ATOM      3  C   UNL     1      -0.989   0.897  -0.337  0.00  0.00    +0.034 A 
ATOM      4  C   UNL     1       0.320   1.349  -0.323  0.00  0.00    +0.127 A 
ATOM      5  C   UNL     1       0.589   2.698  -0.230  0.00  0.00    +0.044 A 
ATOM      6  C   UNL     1      -0.462   3.615  -0.150  0.00  0.00    +0.018 A 
ENDROOT
BRANCH   1  11
ATOM      7  C   UNL     1      -4.777   5.053  -1.213  0.00  0.00    +0.092 C 
ATOM      8  C   UNL     1      -5.600   4.904   0.070  0.00  0.00    +0.016 C 
ATOM      9  C   UNL     1      -4.663   4.969   1.279  0.00  0.00    +0.020 C 
ATOM     10  C   UNL     1      -3.604   3.870   1.157  0.00  0.00    +0.105 C 
ATOM     11  N   UNL     1      -2.844   4.057  -0.085  0.00  0.00    -0.329 N 
ATOM     12  C   UNL     1      -3.716   3.952  -1.262  0.00  0.00    +0.118 C 
BRANCH   7  14
ATOM     13  N   UNL     1      -6.201   6.038  -2.979  0.00  0.00    -0.302 N 
ATOM     14  C   UNL     1      -5.685   4.931  -2.409  0.00  0.00    +0.220 C 
ATOM     15  O   UNL     1      -5.951   3.837  -2.860  0.00  0.00    -0.275 OA
BRANCH  13  17
ATOM     16  C   UNL     1      -8.588   5.982  -3.507  0.00  0.00    +0.024 C 
ATOM     17  C   UNL     1      -7.169   5.916  -4.073  0.00  0.00    +0.104 C 
ENDBRANCH  13  17
BRANCH  13  18
ATOM     18  C   UNL     1      -5.794   7.363  -2.506  0.00  0.00    +0.104 C 
ATOM     19  C   UNL     1      -4.503   7.782  -3.211  0.00  0.00    +0.024 C 
ENDBRANCH  13  18
ENDBRANCH   7  14
ENDBRANCH   1  11
BRANCH   4  20
ATOM     20  N   UNL     1       1.435   0.380  -0.409  0.00  0.00    +0.056 N 
ATOM     21  O   UNL     1       1.200  -0.813  -0.491  0.00  0.00    -0.126 OA
ATOM     22  O   UNL     1       2.587   0.774  -0.397  0.00  0.00    -0.126 OA
ENDBRANCH   4  20
BRANCH   6  23
ATOM     23  C   UNL     1      -0.181   5.058  -0.051  0.00  0.00    +0.140 C 
ATOM     24  N   UNL     1      -1.158   5.912  -0.066  0.00  0.00    -0.188 NA
BRANCH  24  25
ATOM     25  N   UNL     1      -0.887   7.286  -0.079  0.00  0.00    -0.204 N 
ATOM     26  C   UNL     1      -1.898   8.173   0.011  0.00  0.00    +0.270 C 
ATOM     27  O   UNL     1      -3.047   7.785   0.016  0.00  0.00    -0.270 OA
ATOM     28  H   UNL     1       0.028   7.600  -0.152  0.00  0.00    +0.177 HD
BRANCH  26  29
ATOM     29  C   UNL     1      -1.601   9.648   0.106  0.00  0.00    +0.326 C 
BRANCH  29  30
ATOM     30  O   UNL     1      -2.818  10.367   0.309  0.00  0.00    -0.483 OA
BRANCH  30  31
ATOM     31  C   UNL     1      -2.739  11.725   0.324  0.00  0.00    +0.121 A 
ATOM     32  C   UNL     1      -1.532  12.351   0.049  0.00  0.00    +0.049 A 
ATOM     33  C   UNL     1      -1.452  13.730   0.059  0.00  0.00    +0.049 A 
ATOM     34  C   UNL     1      -2.575  14.488   0.354  0.00  0.00    +0.120 A 
ATOM     35  C   UNL     1      -3.781  13.861   0.634  0.00  0.00    +0.049 A 
ATOM     36  C   UNL     1      -3.862  12.482   0.619  0.00  0.00    +0.049 A 
BRANCH  34  37
ATOM     37  O   UNL     1      -2.495  15.845   0.368  0.00  0.00    -0.495 OA
ATOM     38  C   UNL     1      -1.223  16.423   0.071  0.00  0.00    +0.277 C 
ENDBRANCH  34  37
ENDBRANCH  30  31
ENDBRANCH  29  30
ENDBRANCH  26  29
ENDBRANCH  24  25
ENDBRANCH   6  23
TORSDOF 11
