REMARK  Name = ZINC60942401
REMARK  7 active torsions:
REMARK  status: ('A' for Active; 'I' for Inactive)
REMARK    1  A    between atoms: C_1  and  C_2
REMARK    2  A    between atoms: C_7  and  N_8
REMARK    3  A    between atoms: C_12  and  C_14
REMARK    4  A    between atoms: C_14  and  N_15
REMARK    5  A    between atoms: N_18  and  C_21
REMARK    6  A    between atoms: C_21  and  C_22
REMARK    7  A    between atoms: N_24  and  C_25
REMARK                            x       y       z     vdW  Elec       q    Type
REMARK                         _______ _______ _______ _____ _____    ______ ____
ROOT
ATOM      1  N   UNL     1       2.116  -0.004   1.231  0.00  0.00    -0.296 N 
ATOM      2  C   UNL     1       2.795   0.128   2.388  0.00  0.00    +0.306 C 
ATOM      3  O   UNL     1       2.267  -0.174   3.440  0.00  0.00    -0.252 OA
ATOM      4  N   UNL     1       4.059   0.594   2.379  0.00  0.00    -0.239 N 
ATOM      5  C   UNL     1       4.738   0.726   3.536  0.00  0.00    +0.234 C 
ATOM      6  O   UNL     1       4.211   0.424   4.585  0.00  0.00    -0.274 OA
ATOM      7  H   UNL     1       2.538   0.237   0.392  0.00  0.00    +0.151 HD
ATOM      8  H   UNL     1       4.481   0.835   1.539  0.00  0.00    +0.159 HD
ENDROOT
BRANCH   1  15
ATOM      9  C   UNL     1      -0.019   1.526   0.010  0.00  0.00    +0.009 C 
ATOM     10  C   UNL     1       0.002  -0.004   0.002  0.00  0.00    +0.006 C 
ATOM     11  C   UNL     1       0.718  -0.497  -1.257  0.00  0.00    +0.005 C 
ATOM     12  C   UNL     1       0.739  -2.027  -1.265  0.00  0.00    +0.000 C 
ATOM     13  C   UNL     1       1.479  -2.534  -0.026  0.00  0.00    +0.002 C 
ATOM     14  C   UNL     1       0.763  -2.041   1.233  0.00  0.00    +0.022 C 
ATOM     15  C   UNL     1       0.742  -0.511   1.242  0.00  0.00    +0.077 C 
ENDBRANCH   1  15
BRANCH   5  16
ATOM     16  C   UNL     1       6.152   1.247   3.525  0.00  0.00    +0.181 C 
BRANCH  16  17
ATOM     17  N   UNL     1       6.666   1.296   4.900  0.00  0.00    -0.292 NA
ATOM     18  C   UNL     1       5.936   2.290   5.700  0.00  0.00    +0.100 C 
ATOM     19  C   UNL     1       6.447   2.253   7.143  0.00  0.00    +0.100 C 
ATOM     20  N   UNL     1       7.891   2.529   7.156  0.00  0.00    -0.292 NA
ATOM     21  C   UNL     1       8.620   1.535   6.355  0.00  0.00    +0.100 C 
ATOM     22  C   UNL     1       8.110   1.571   4.913  0.00  0.00    +0.100 C 
BRANCH  20  23
ATOM     23  C   UNL     1       8.405   2.578   8.531  0.00  0.00    +0.180 C 
BRANCH  23  24
ATOM     24  C   UNL     1       9.819   3.099   8.520  0.00  0.00    +0.227 C 
ATOM     25  O   UNL     1      10.346   3.401   7.470  0.00  0.00    -0.274 OA
ATOM     26  N   UNL     1      10.497   3.231   9.677  0.00  0.00    -0.317 N 
ATOM     27  C   UNL     1      11.871   3.738   9.667  0.00  0.00    +0.128 C 
ATOM     28  H   UNL     1      10.075   2.990  10.517  0.00  0.00    +0.148 HD
ENDBRANCH  23  24
ENDBRANCH  20  23
ENDBRANCH  16  17
ENDBRANCH   5  16
TORSDOF 5
