REMARK  Name = ZINC20272003
REMARK  11 active torsions:
REMARK  status: ('A' for Active; 'I' for Inactive)
REMARK    1  A    between atoms: C_1  and  C_2
REMARK    2  A    between atoms: C_3  and  C_9
REMARK    3  A    between atoms: N_5  and  C_7
REMARK    4  A    between atoms: C_9  and  N_10
REMARK    5  A    between atoms: C_13  and  C_16
REMARK    6  A    between atoms: C_16  and  C_18
REMARK    7  A    between atoms: C_16  and  N_26
REMARK    8  A    between atoms: C_18  and  C_19
REMARK    9  A    between atoms: N_26  and  C_27
REMARK   10  A    between atoms: C_28  and  C_30
REMARK   11  A    between atoms: C_34  and  C_35
REMARK                            x       y       z     vdW  Elec       q    Type
REMARK                         _______ _______ _______ _____ _____    ______ ____
ROOT
ATOM      1  C   UNL     1      -1.865  -0.792  -0.097  0.00  0.00    +0.083 C 
ENDROOT
BRANCH   1   5
ATOM      2  N   UNL     1      -0.412  -2.174  -3.872  0.00  0.00    +0.383 N 
ATOM      3  C   UNL     1      -1.492  -1.180  -3.909  0.00  0.00    -0.078 C 
ATOM      4  C   UNL     1      -1.575  -0.464  -2.559  0.00  0.00    -0.013 C 
ATOM      5  C   UNL     1      -1.841  -1.493  -1.457  0.00  0.00    +0.006 C 
ATOM      6  C   UNL     1      -0.728  -2.545  -1.471  0.00  0.00    -0.013 C 
ATOM      7  C   UNL     1      -0.670  -3.200  -2.853  0.00  0.00    -0.078 C 
ATOM      8  H   UNL     1       0.515  -1.652  -3.594  0.00  0.00    -0.081 HD
BRANCH   2   9
ATOM      9  C   UNL     1      -0.212  -2.784  -5.193  0.00  0.00    -0.038 C 
BRANCH   9  12
ATOM     10  C   UNL     1       2.945  -2.694  -5.460  0.00  0.00    +0.068 C 
ATOM     11  C   UNL     1       2.115  -3.922  -5.185  0.00  0.00    +0.063 A 
ATOM     12  C   UNL     1       0.722  -3.960  -5.067  0.00  0.00    -0.005 A 
ATOM     13  C   UNL     1       0.360  -5.243  -4.826  0.00  0.00    +0.128 A 
ATOM     14  N   UNL     1       1.485  -5.987  -4.787  0.00  0.00    -0.256 N 
ATOM     15  N   UNL     1       2.574  -5.135  -5.011  0.00  0.00    -0.175 NA
ATOM     16  C   UNL     1       1.556  -7.432  -4.552  0.00  0.00    +0.174 C 
ATOM     17 CL   UNL     1      -1.261  -5.826  -4.607  0.00  0.00    -0.062 Cl
ENDBRANCH   9  12
ENDBRANCH   2   9
ENDBRANCH   1   5
BRANCH   1  18
ATOM     18  N   UNL     1      -2.926   0.219  -0.088  0.00  0.00    -0.297 N 
ATOM     19  C   UNL     1      -4.311  -0.170  -0.362  0.00  0.00    +0.132 C 
ATOM     20  C   UNL     1      -2.627   1.507   0.173  0.00  0.00    +0.250 C 
ATOM     21  O   UNL     1      -3.518   2.327   0.287  0.00  0.00    -0.270 OA
BRANCH  20  22
ATOM     22  C   UNL     1      -1.220   1.921   0.321  0.00  0.00    +0.077 A 
ATOM     23  C   UNL     1      -0.261   1.465   1.337  0.00  0.00    +0.054 A 
ATOM     24  C   UNL     1       0.888   2.105   1.073  0.00  0.00    +0.196 A 
ATOM     25  O   UNL     1       0.714   2.902   0.007  0.00  0.00    -0.467 OA
ATOM     26  C   UNL     1      -0.537   2.812  -0.455  0.00  0.00    +0.114 A 
ATOM     27  C   UNL     1      -1.095   3.560  -1.638  0.00  0.00    +0.087 C 
ENDBRANCH  20  22
ENDBRANCH   1  18
BRANCH   1  28
ATOM     28  C   UNL     1      -2.132  -1.821   1.003  0.00  0.00    +0.060 C 
BRANCH  28  29
ATOM     29  C   UNL     1      -2.034  -1.153   2.350  0.00  0.00    -0.010 A 
ATOM     30  C   UNL     1      -0.848  -1.198   3.059  0.00  0.00    +0.006 A 
ATOM     31  C   UNL     1      -0.756  -0.581   4.293  0.00  0.00    +0.000 A 
ATOM     32  C   UNL     1      -1.853   0.073   4.823  0.00  0.00    +0.003 A 
ATOM     33  C   UNL     1      -3.041   0.115   4.118  0.00  0.00    +0.038 A 
ATOM     34  C   UNL     1      -3.132  -0.499   2.880  0.00  0.00    +0.127 A 
ATOM     35  F   UNL     1      -4.293  -0.459   2.190  0.00  0.00    -0.205 F 
ENDBRANCH  28  29
ENDBRANCH   1  28
TORSDOF 7
