REMARK  Name = ZINC32095716
REMARK  9 active torsions:
REMARK  status: ('A' for Active; 'I' for Inactive)
REMARK    1  A    between atoms: C_1  and  C_2
REMARK    2  A    between atoms: C_18  and  C_20
REMARK    3  A    between atoms: C_23  and  O_28
REMARK    4  A    between atoms: C_24  and  O_26
REMARK    5  A    between atoms: O_26  and  C_27
REMARK    6  A    between atoms: O_28  and  C_29
REMARK    7  A    between atoms: C_29  and  C_30
REMARK    8  A    between atoms: C_30  and  C_31
REMARK    9  A    between atoms: C_30  and  C_32
REMARK                            x       y       z     vdW  Elec       q    Type
REMARK                         _______ _______ _______ _____ _____    ______ ____
ROOT
ATOM      1  C   UNL     1      -0.018   1.503   0.010  0.00  0.00    +0.068 C 
ATOM      2  C   UNL     1       0.002  -0.004   0.002  0.00  0.00    +0.066 A 
ATOM      3  C   UNL     1       0.008  -0.810  -1.127  0.00  0.00    +0.023 A 
ATOM      4  C   UNL     1       0.033  -2.116  -0.714  0.00  0.00    +0.134 A 
ATOM      5  N   UNL     1       0.033  -2.117   0.636  0.00  0.00    -0.198 N 
ATOM      6  N   UNL     1       0.023  -0.778   1.062  0.00  0.00    -0.168 NA
ATOM      7  C   UNL     1       0.045  -3.246   1.460  0.00  0.00    +0.178 A 
ATOM      8  C   UNL     1       0.549  -3.159   2.757  0.00  0.00    +0.053 A 
ATOM      9  C   UNL     1       0.538  -4.306   3.535  0.00  0.00    +0.045 A 
ATOM     10  C   UNL     1       0.028  -5.470   2.975  0.00  0.00    +0.152 A 
ATOM     11  N   UNL     1      -0.429  -5.460   1.737  0.00  0.00    -0.136 NA
ATOM     12  N   UNL     1      -0.426  -4.399   1.015  0.00  0.00    -0.128 NA
ATOM     13 CL   UNL     1      -0.009  -6.937   3.903  0.00  0.00    -0.060 Cl
ATOM     14  N   UNL     1       0.064  -3.175  -1.620  0.00  0.00    -0.270 N 
ATOM     15  C   UNL     1       0.274  -2.891  -2.923  0.00  0.00    +0.219 C 
ATOM     16  O   UNL     1       0.119  -3.767  -3.747  0.00  0.00    -0.275 OA
ATOM     17  C   UNL     1       0.694  -1.524  -3.384  0.00  0.00    +0.109 C 
ATOM     18  C   UNL     1      -0.014  -0.426  -2.585  0.00  0.00    +0.063 C 
ATOM     19  H   UNL     1      -0.060  -4.090  -1.322  0.00  0.00    +0.156 HD
ENDROOT
BRANCH  18  20
ATOM     20  C   UNL     1      -1.440  -0.296  -3.054  0.00  0.00    -0.036 A 
ATOM     21  C   UNL     1      -2.292  -1.382  -2.980  0.00  0.00    +0.008 A 
ATOM     22  C   UNL     1      -3.601  -1.268  -3.410  0.00  0.00    +0.050 A 
ATOM     23  C   UNL     1      -4.062  -0.062  -3.915  0.00  0.00    +0.162 A 
ATOM     24  C   UNL     1      -3.204   1.031  -3.990  0.00  0.00    +0.162 A 
ATOM     25  C   UNL     1      -1.894   0.911  -3.553  0.00  0.00    +0.053 A 
BRANCH  24  26
ATOM     26  O   UNL     1      -3.651   2.216  -4.485  0.00  0.00    -0.491 OA
ATOM     27  C   UNL     1      -2.715   3.294  -4.531  0.00  0.00    +0.277 C 
ENDBRANCH  24  26
BRANCH  23  28
ATOM     28  O   UNL     1      -5.349   0.051  -4.339  0.00  0.00    -0.488 OA
BRANCH  28  29
ATOM     29  C   UNL     1      -6.172  -1.112  -4.233  0.00  0.00    +0.232 C 
BRANCH  29  30
ATOM     30  C   UNL     1      -7.575  -0.793  -4.754  0.00  0.00    +0.020 C 
ATOM     31  C   UNL     1      -8.420  -2.069  -4.758  0.00  0.00    +0.010 C 
ATOM     32  C   UNL     1      -8.231   0.250  -3.847  0.00  0.00    +0.010 C 
ENDBRANCH  29  30
ENDBRANCH  28  29
ENDBRANCH  23  28
ENDBRANCH  18  20
TORSDOF 5
