REMARK  Name = ZINC20716671
REMARK  2 active torsions:
REMARK  status: ('A' for Active; 'I' for Inactive)
REMARK    1  A    between atoms: C_13  and  C_19
REMARK    2  A    between atoms: C_14  and  N_15
REMARK                            x       y       z     vdW  Elec       q    Type
REMARK                         _______ _______ _______ _____ _____    ______ ____
ROOT
ATOM      1  C   UNL     1      -1.106   1.620   0.492  0.00  0.00    +0.000 A 
ATOM      2  C   UNL     1       0.132   1.000   0.488  0.00  0.00    +0.001 A 
ATOM      3  C   UNL     1       1.282   1.747   0.327  0.00  0.00    +0.010 A 
ATOM      4  C   UNL     1       1.189   3.129   0.176  0.00  0.00    +0.000 A 
ATOM      5  C   UNL     1      -0.062   3.751   0.190  0.00  0.00    -0.038 A 
ATOM      6  C   UNL     1      -1.202   2.993   0.348  0.00  0.00    +0.004 A 
ATOM      7  C   UNL     1      -0.149   5.247   0.035  0.00  0.00    +0.048 C 
ATOM      8  C   UNL     1       1.044   5.906   0.722  0.00  0.00    +0.011 C 
ATOM      9  C   UNL     1       1.051   7.415   0.411  0.00  0.00    +0.012 C 
ATOM     10  C   UNL     1       0.331   8.054   1.625  0.00  0.00    +0.001 C 
ATOM     11  C   UNL     1       0.840   7.201   2.814  0.00  0.00    +0.001 C 
ATOM     12  C   UNL     1       0.912   5.767   2.247  0.00  0.00    +0.012 C 
ATOM     13  C   UNL     1       2.335   5.289   0.261  0.00  0.00    +0.058 C 
ATOM     14  C   UNL     1       2.401   3.955  -0.006  0.00  0.00    +0.056 C 
ENDROOT
BRANCH  14  15
ATOM     15  N   UNL     1       3.585   3.381  -0.441  0.00  0.00    -0.268 N 
ATOM     16  C   UNL     1       3.623   2.723  -1.616  0.00  0.00    +0.301 C 
ATOM     17  O   UNL     1       2.645   2.712  -2.338  0.00  0.00    -0.253 OA
ATOM     18  N   UNL     1       4.745   2.078  -1.991  0.00  0.00    -0.313 N 
ATOM     19  H   UNL     1       4.494   3.463   0.174  0.00  0.00    +0.156 HD
ATOM     20  H   UNL     1       4.776   1.541  -2.951  0.00  0.00    +0.146 HD
ATOM     21  H   UNL     1       5.630   2.089  -1.338  0.00  0.00    +0.146 HD
ENDBRANCH  14  15
BRANCH  13  22
ATOM     22  C   UNL     1       3.500   6.107   0.102  0.00  0.00    +0.097 C 
ATOM     23  N   UNL     1       4.423   6.756  -0.024  0.00  0.00    -0.191 NA
ENDBRANCH  13  22
TORSDOF 2
