REMARK  Name = ZINC26252135
REMARK  11 active torsions:
REMARK  status: ('A' for Active; 'I' for Inactive)
REMARK    1  A    between atoms: C_1  and  N_2
REMARK    2  A    between atoms: N_2  and  S_3
REMARK    3  A    between atoms: S_3  and  C_6
REMARK    4  A    between atoms: C_6  and  C_7
REMARK    5  A    between atoms: C_10  and  C_13
REMARK    6  A    between atoms: C_13  and  N_14
REMARK    7  A    between atoms: N_17  and  C_18
REMARK    8  A    between atoms: C_18  and  C_19
REMARK    9  A    between atoms: C_19  and  N_26
REMARK   10  A    between atoms: N_26  and  C_27
REMARK   11  A    between atoms: N_26  and  C_28
REMARK                            x       y       z     vdW  Elec       q    Type
REMARK                         _______ _______ _______ _____ _____    ______ ____
ROOT
ATOM      1  N   UNL     1      -3.141   7.382   3.393  0.00  0.00    -0.295 N 
ATOM      2  C   UNL     1      -2.596   8.568   3.731  0.00  0.00    +0.300 C 
ATOM      3  O   UNL     1      -1.699   9.038   3.059  0.00  0.00    -0.253 OA
ATOM      4  N   UNL     1      -3.046   9.231   4.814  0.00  0.00    -0.301 N 
ATOM      5  H   UNL     1      -3.952   6.956   4.001  0.00  0.00    +0.151 HD
ATOM      6  H   UNL     1      -3.858   8.805   5.423  0.00  0.00    +0.150 HD
ENDROOT
BRANCH   1   7
ATOM      7  C   UNL     1      -2.652   6.661   2.215  0.00  0.00    +0.141 C 
BRANCH   7  11
ATOM      8  C   UNL     1      -4.830   3.013   1.770  0.00  0.00    -0.025 A 
ATOM      9  C   UNL     1      -3.674   3.040   2.527  0.00  0.00    +0.005 A 
ATOM     10  C   UNL     1      -2.966   4.219   2.668  0.00  0.00    +0.005 A 
ATOM     11  C   UNL     1      -3.421   5.374   2.059  0.00  0.00    -0.030 A 
ATOM     12  C   UNL     1      -4.580   5.349   1.306  0.00  0.00    +0.005 A 
ATOM     13  C   UNL     1      -5.285   4.168   1.162  0.00  0.00    +0.005 A 
BRANCH   8  14
ATOM     14  C   UNL     1      -5.599   1.726   1.613  0.00  0.00    +0.220 C 
BRANCH  14  15
ATOM     15  S   UNL     1      -4.993   0.835   0.154  0.00  0.00    +0.033 S 
ATOM     16  O   UNL     1      -3.664   0.382   0.374  0.00  0.00    -0.158 OA
ATOM     17  O   UNL     1      -5.329   1.547  -1.029  0.00  0.00    -0.158 OA
BRANCH  15  19
ATOM     18  C   UNL     1      -7.348  -0.460  -0.151  0.00  0.00    +0.127 C 
ATOM     19  N   UNL     1      -5.905  -0.546   0.090  0.00  0.00    -0.197 NA
ATOM     20  H   UNL     1      -5.454  -1.503   0.390  0.00  0.00    +0.147 HD
ENDBRANCH  15  19
ENDBRANCH  14  15
ENDBRANCH   8  14
ENDBRANCH   7  11
ENDBRANCH   1   7
BRANCH   4  21
ATOM     21  C   UNL     1      -2.454  10.520   5.182  0.00  0.00    +0.094 C 
BRANCH  21  22
ATOM     22  C   UNL     1      -3.224  11.116   6.362  0.00  0.00    -0.050 C 
ATOM     23  C   UNL     1      -3.331  12.608   6.193  0.00  0.00    -0.010 C 
ATOM     24  C   UNL     1      -2.193  13.187   5.332  0.00  0.00    -0.001 C 
ATOM     25  C   UNL     1      -0.822  12.565   5.657  0.00  0.00    -0.000 C 
ATOM     26  C   UNL     1      -0.605  12.389   7.136  0.00  0.00    -0.000 C 
ATOM     27  C   UNL     1      -1.027  10.958   7.526  0.00  0.00    -0.001 C 
ATOM     28  C   UNL     1      -2.469  10.825   7.675  0.00  0.00    -0.010 C 
BRANCH  22  29
ATOM     29  N   UNL     1      -4.567  10.525   6.424  0.00  0.00    +0.381 N 
ATOM     30  C   UNL     1      -5.296  10.997   7.610  0.00  0.00    -0.096 C 
ATOM     31  C   UNL     1      -5.323  10.805   5.196  0.00  0.00    -0.096 C 
ATOM     32  H   UNL     1      -4.453   9.434   6.510  0.00  0.00    -0.082 HD
ENDBRANCH  22  29
ENDBRANCH  21  22
ENDBRANCH   4  21
TORSDOF 8
