REMARK  Name = ZINC31047353
REMARK  10 active torsions:
REMARK  status: ('A' for Active; 'I' for Inactive)
REMARK    1  A    between atoms: C_1  and  C_2
REMARK    2  A    between atoms: C_2  and  C_3
REMARK    3  A    between atoms: C_3  and  C_5
REMARK    4  A    between atoms: C_3  and  N_13
REMARK    5  A    between atoms: C_8  and  C_12
REMARK    6  A    between atoms: C_9  and  C_11
REMARK    7  A    between atoms: C_14  and  C_16
REMARK    8  A    between atoms: N_21  and  C_23
REMARK    9  A    between atoms: C_23  and  C_24
REMARK   10  A    between atoms: C_26  and  C_29
REMARK                            x       y       z     vdW  Elec       q    Type
REMARK                         _______ _______ _______ _____ _____    ______ ____
ROOT
ATOM      1  C   UNL     1       2.429  -6.445  -2.102  0.00  0.00    +0.058 C 
ATOM      2  C   UNL     1       3.614  -5.487  -2.244  0.00  0.00    +0.009 C 
ATOM      3  C   UNL     1       4.564  -6.018  -3.322  0.00  0.00    -0.018 C 
ATOM      4  C   UNL     1       5.020  -7.429  -2.942  0.00  0.00    -0.078 C 
ATOM      5  N   UNL     1       3.850  -8.307  -2.820  0.00  0.00    +0.386 N 
ATOM      6  C   UNL     1       2.947  -7.843  -1.758  0.00  0.00    -0.065 C 
ATOM      7  H   UNL     1       3.298  -8.266  -3.770  0.00  0.00    -0.081 HD
ENDROOT
BRANCH   1   9
ATOM      8  N   UNL     1       0.943  -4.746  -1.091  0.00  0.00    -0.308 N 
ATOM      9  C   UNL     1       1.519  -5.961  -1.002  0.00  0.00    +0.215 C 
ATOM     10  O   UNL     1       1.307  -6.665  -0.038  0.00  0.00    -0.276 OA
ATOM     11  H   UNL     1       1.136  -4.108  -1.966  0.00  0.00    +0.149 HD
BRANCH   8  12
ATOM     12  C   UNL     1       0.059  -4.275  -0.021  0.00  0.00    +0.103 C 
BRANCH  12  13
ATOM     13  C   UNL     1       0.039  -2.768  -0.013  0.00  0.00    -0.027 A 
ATOM     14  C   UNL     1       0.018  -2.071  -1.207  0.00  0.00    +0.006 A 
ATOM     15  C   UNL     1      -0.006  -0.689  -1.199  0.00  0.00    +0.004 A 
ATOM     16  C   UNL     1       0.002  -0.004   0.002  0.00  0.00    -0.048 A 
ATOM     17  C   UNL     1       0.023  -0.702   1.195  0.00  0.00    -0.047 A 
ATOM     18  C   UNL     1       0.041  -2.084   1.188  0.00  0.00    +0.009 A 
ATOM     19  C   UNL     1       0.025   0.045   2.504  0.00  0.00    +0.044 C 
ATOM     20  C   UNL     1      -0.018   1.503   0.010  0.00  0.00    +0.044 C 
ENDBRANCH  12  13
BRANCH  12  22
ATOM     21  C   UNL     1      -1.359  -6.329  -0.146  0.00  0.00    +0.006 C 
ATOM     22  C   UNL     1      -1.357  -4.803  -0.261  0.00  0.00    +0.024 C 
ENDBRANCH  12  22
ENDBRANCH   8  12
ENDBRANCH   1   9
BRANCH   5  23
ATOM     23  C   UNL     1       4.258  -9.700  -2.592  0.00  0.00    +0.022 C 
BRANCH  23  24
ATOM     24  C   UNL     1       5.364 -10.062  -3.550  0.00  0.00    +0.211 A 
ATOM     25  N   UNL     1       6.650  -9.924  -3.342  0.00  0.00    -0.193 NA
ATOM     26  C   UNL     1       7.250 -10.377  -4.466  0.00  0.00    +0.202 A 
ATOM     27  N   UNL     1       6.303 -10.758  -5.283  0.00  0.00    -0.056 NA
ATOM     28  O   UNL     1       5.217 -10.589  -4.769  0.00  0.00    -0.340 OA
BRANCH  26  29
ATOM     29  C   UNL     1       8.710 -10.429  -4.725  0.00  0.00    +0.023 A 
ATOM     30  C   UNL     1       9.608  -9.979  -3.758  0.00  0.00    +0.013 A 
ATOM     31  C   UNL     1      10.965 -10.036  -4.001  0.00  0.00    +0.021 A 
ATOM     32  C   UNL     1      11.435 -10.528  -5.207  0.00  0.00    +0.041 A 
ATOM     33  C   UNL     1      10.547 -10.970  -6.172  0.00  0.00    +0.021 A 
ATOM     34  C   UNL     1       9.188 -10.923  -5.937  0.00  0.00    +0.013 A 
ATOM     35 CL   UNL     1      13.143 -10.590  -5.509  0.00  0.00    -0.084 Cl
ENDBRANCH  26  29
ENDBRANCH  23  24
ENDBRANCH   5  23
TORSDOF 7
