REMARK  Name = ZINC20357364
REMARK  11 active torsions:
REMARK  status: ('A' for Active; 'I' for Inactive)
REMARK    1  A    between atoms: C_1  and  C_2
REMARK    2  A    between atoms: C_2  and  N_3
REMARK    3  A    between atoms: N_3  and  C_4
REMARK    4  A    between atoms: N_3  and  C_6
REMARK    5  A    between atoms: C_4  and  C_5
REMARK    6  A    between atoms: C_6  and  C_7
REMARK    7  A    between atoms: C_7  and  N_8
REMARK    8  A    between atoms: C_27  and  C_29
REMARK    9  A    between atoms: C_27  and  C_30
REMARK   10  A    between atoms: C_32  and  S_34
REMARK   11  A    between atoms: S_34  and  C_35
REMARK                            x       y       z     vdW  Elec       q    Type
REMARK                         _______ _______ _______ _____ _____    ______ ____
ROOT
ATOM      1  N   UNL     1       4.661   5.886   0.122  0.00  0.00    -0.330 N 
ATOM      2  C   UNL     1       5.170   4.597   0.095  0.00  0.00    +0.138 A 
ATOM      3  C   UNL     1       4.322   3.498   0.103  0.00  0.00    +0.080 A 
ATOM      4  C   UNL     1       4.829   2.194   0.076  0.00  0.00    +0.094 A 
ATOM      5  C   UNL     1       3.827   1.112   0.089  0.00  0.00    +0.038 A 
ATOM      6  C   UNL     1       4.066  -0.284   0.071  0.00  0.00    -0.024 A 
ATOM      7  C   UNL     1       3.013  -1.145   0.090  0.00  0.00    +0.022 A 
ATOM      8  C   UNL     1       1.706  -0.646   0.119  0.00  0.00    +0.128 A 
ATOM      9  N   UNL     1       1.486   0.659   0.134  0.00  0.00    -0.224 NA
ATOM     10  C   UNL     1       2.483   1.519   0.122  0.00  0.00    +0.113 A 
ATOM     11  S   UNL     1       2.562   3.293   0.141  0.00  0.00    -0.064 S 
ATOM     12  N   UNL     1       0.633  -1.526   0.132  0.00  0.00    -0.310 N 
ATOM     13  C   UNL     1      -0.205  -1.354  -1.064  0.00  0.00    +0.134 C 
ATOM     14  C   UNL     1      -1.339  -2.381  -1.039  0.00  0.00    +0.178 C 
ATOM     15  O   UNL     1      -2.086  -2.230   0.172  0.00  0.00    -0.377 OA
ATOM     16  C   UNL     1      -1.302  -2.393   1.356  0.00  0.00    +0.178 C 
ATOM     17  C   UNL     1      -0.167  -1.365   1.355  0.00  0.00    +0.134 C 
ATOM     18  C   UNL     1       3.217  -2.638   0.089  0.00  0.00    +0.199 C 
ATOM     19  O   UNL     1       4.550  -2.954  -0.313  0.00  0.00    -0.369 OA
ATOM     20  C   UNL     1       5.547  -2.243   0.430  0.00  0.00    +0.068 C 
ATOM     21  C   UNL     1       5.490  -0.768   0.026  0.00  0.00    +0.070 C 
ATOM     22  C   UNL     1       6.931  -2.812   0.110  0.00  0.00    +0.041 C 
ATOM     23  C   UNL     1       5.267  -2.378   1.928  0.00  0.00    +0.041 C 
ATOM     24  N   UNL     1       6.176   2.079   0.041  0.00  0.00    -0.221 NA
ATOM     25  C   UNL     1       6.954   3.142   0.034  0.00  0.00    +0.190 A 
ATOM     26  N   UNL     1       6.484   4.383   0.060  0.00  0.00    -0.206 NA
ATOM     27  H   UNL     1       3.574   6.048   0.151  0.00  0.00    +0.147 HD
ENDROOT
BRANCH  25  28
ATOM     28  S   UNL     1       8.699   2.905  -0.012  0.00  0.00    -0.089 S 
ATOM     29  C   UNL     1       9.251   4.629  -0.005  0.00  0.00    +0.093 C 
ENDBRANCH  25  28
BRANCH   1  30
ATOM     30  C   UNL     1       5.572   7.033   0.114  0.00  0.00    +0.084 C 
BRANCH  30  31
ATOM     31  C   UNL     1       4.761   8.329   0.148  0.00  0.00    -0.060 C 
BRANCH  31  32
ATOM     32  N   UNL     1       5.673   9.475   0.262  0.00  0.00    +0.380 N 
ATOM     33  H   UNL     1       6.450   9.217   0.996  0.00  0.00    -0.082 HD
BRANCH  32  35
ATOM     34  C   UNL     1       7.450  10.776  -0.808  0.00  0.00    -0.017 C 
ATOM     35  C   UNL     1       6.335   9.750  -1.020  0.00  0.00    -0.082 C 
ENDBRANCH  32  35
BRANCH  32  36
ATOM     36  C   UNL     1       4.965  10.665   0.754  0.00  0.00    -0.082 C 
ATOM     37  C   UNL     1       4.698  10.515   2.254  0.00  0.00    -0.017 C 
ENDBRANCH  32  36
ENDBRANCH  31  32
ENDBRANCH  30  31
ENDBRANCH   1  30
TORSDOF 6
