REMARK  Name = ZINC11786924
REMARK  10 active torsions:
REMARK  status: ('A' for Active; 'I' for Inactive)
REMARK    1  A    between atoms: C_1  and  C_2
REMARK    2  A    between atoms: C_2  and  C_3
REMARK    3  A    between atoms: C_3  and  C_22
REMARK    4  A    between atoms: N_6  and  C_10
REMARK    5  A    between atoms: C_10  and  C_11
REMARK    6  A    between atoms: C_27  and  C_28
REMARK    7  A    between atoms: C_27  and  N_66
REMARK    8  A    between atoms: C_28  and  C_29
REMARK    9  A    between atoms: C_29  and  C_30
REMARK   10  A    between atoms: C_29  and  C_31
REMARK                            x       y       z     vdW  Elec       q    Type
REMARK                         _______ _______ _______ _____ _____    ______ ____
ROOT
ATOM      1  C   UNL     1       0.813  -2.021  -1.233  0.00  0.00    +0.115 C 
ATOM      2  C   UNL     1      -0.571  -2.622  -1.088  0.00  0.00    +0.247 C 
ATOM      3  O   UNL     1      -1.505  -2.501  -1.851  0.00  0.00    -0.273 OA
ATOM      4  N   UNL     1      -0.546  -3.318   0.066  0.00  0.00    -0.221 N 
ATOM      5  C   UNL     1       0.648  -3.241   0.663  0.00  0.00    +0.309 C 
ATOM      6  O   UNL     1       0.913  -3.787   1.717  0.00  0.00    -0.252 OA
ATOM      7  N   UNL     1       1.523  -2.492  -0.032  0.00  0.00    -0.285 N 
ATOM      8  H   UNL     1       2.442  -2.300   0.212  0.00  0.00    +0.151 HD
ENDROOT
BRANCH   1   9
ATOM      9  C   UNL     1       0.738  -0.493  -1.249  0.00  0.00    +0.018 C 
ATOM     10  C   UNL     1       0.002  -0.004   0.002  0.00  0.00    -0.013 C 
ATOM     11  C   UNL     1      -0.019   1.526   0.010  0.00  0.00    -0.078 C 
ATOM     12  C   UNL     1       2.070   1.619  -1.215  0.00  0.00    -0.078 C 
ATOM     13  C   UNL     1       2.153   0.091  -1.260  0.00  0.00    -0.013 C 
ATOM     14  N   UNL     1       1.373   2.025   0.024  0.00  0.00    +0.380 N 
ATOM     15  H   UNL     1       1.864   1.620   0.830  0.00  0.00    -0.082 HD
BRANCH  14  16
ATOM     16  C   UNL     1       1.380   3.497   0.147  0.00  0.00    -0.079 C 
BRANCH  16  17
ATOM     17  C   UNL     1       2.818   3.965   0.382  0.00  0.00    -0.016 C 
BRANCH  17  18
ATOM     18  C   UNL     1       2.841   5.487   0.535  0.00  0.00    -0.019 C 
ATOM     19  C   UNL     1       2.075   5.884   1.799  0.00  0.00    +0.007 C 
ATOM     20  C   UNL     1       4.289   5.967   0.645  0.00  0.00    +0.007 C 
ENDBRANCH  17  18
ENDBRANCH  16  17
ENDBRANCH  14  16
ENDBRANCH   1   9
BRANCH   1  22
ATOM     21  C   UNL     1       1.561  -4.065  -2.459  0.00  0.00    +0.006 C 
ATOM     22  C   UNL     1       1.498  -2.537  -2.500  0.00  0.00    +0.032 C 
ENDBRANCH   1  22
BRANCH   4  23
ATOM     23  C   UNL     1      -1.687  -4.066   0.600  0.00  0.00    +0.166 C 
BRANCH  23  24
ATOM     24  C   UNL     1      -2.518  -3.152   1.502  0.00  0.00    +0.229 C 
ATOM     25  C   UNL     1      -3.652  -3.958   2.152  0.00  0.00    +0.275 C 
ATOM     26  O   UNL     1      -4.416  -3.072   2.977  0.00  0.00    -0.485 OA
ATOM     27  C   UNL     1      -4.758  -1.873   2.433  0.00  0.00    +0.162 A 
ATOM     28  C   UNL     1      -5.776  -1.129   3.011  0.00  0.00    +0.049 A 
ATOM     29  C   UNL     1      -6.134   0.092   2.472  0.00  0.00    +0.004 A 
ATOM     30  C   UNL     1      -5.477   0.576   1.355  0.00  0.00    +0.004 A 
ATOM     31  C   UNL     1      -4.462  -0.160   0.774  0.00  0.00    +0.049 A 
ATOM     32  C   UNL     1      -4.101  -1.388   1.309  0.00  0.00    +0.163 A 
ATOM     33  O   UNL     1      -3.103  -2.104   0.722  0.00  0.00    -0.480 OA
ENDBRANCH  23  24
ENDBRANCH   4  23
TORSDOF 7
