REMARK  Name = ZINC28308547
REMARK  6 active torsions:
REMARK  status: ('A' for Active; 'I' for Inactive)
REMARK    1  A    between atoms: C_6  and  N_11
REMARK    2  A    between atoms: C_12  and  C_14
REMARK    3  A    between atoms: C_14  and  N_25
REMARK    4  A    between atoms: C_15  and  C_16
REMARK    5  A    between atoms: C_19  and  N_22
REMARK    6  A    between atoms: C_26  and  C_28
REMARK                            x       y       z     vdW  Elec       q    Type
REMARK                         _______ _______ _______ _____ _____    ______ ____
ROOT
ATOM      1  C   UNL     1       2.557   1.381  -0.187  0.00  0.00    +0.097 C 
ATOM      2  C   UNL     1       3.733   1.880   0.261  0.00  0.00    +0.036 C 
ENDROOT
BRANCH   2   3
ATOM      3  C   UNL     1       3.774   3.205   0.900  0.00  0.00    -0.023 A 
ATOM      4  C   UNL     1       2.966   4.242   0.422  0.00  0.00    +0.010 A 
ATOM      5  C   UNL     1       3.007   5.479   1.029  0.00  0.00    +0.033 A 
ATOM      6  C   UNL     1       3.853   5.699   2.103  0.00  0.00    +0.126 A 
ATOM      7  C   UNL     1       4.659   4.679   2.578  0.00  0.00    +0.033 A 
ATOM      8  C   UNL     1       4.626   3.435   1.985  0.00  0.00    +0.010 A 
BRANCH   6   9
ATOM      9  N   UNL     1       3.895   7.031   2.745  0.00  0.00    +0.056 N 
ATOM     10  O   UNL     1       4.637   7.229   3.690  0.00  0.00    -0.126 OA
ATOM     11  O   UNL     1       3.186   7.931   2.330  0.00  0.00    -0.126 OA
ENDBRANCH   6   9
ENDBRANCH   2   3
BRANCH   1  13
ATOM     12  N   UNL     1       0.612   2.185   1.049  0.00  0.00    -0.280 N 
ATOM     13  C   UNL     1       1.332   2.188  -0.090  0.00  0.00    +0.262 C 
ATOM     14  O   UNL     1       0.969   2.858  -1.038  0.00  0.00    -0.268 OA
ATOM     15  H   UNL     1       0.906   1.533   1.885  0.00  0.00    +0.155 HD
BRANCH  12  21
ATOM     16  C   UNL     1      -4.216   5.980   2.701  0.00  0.00    +0.001 A 
ATOM     17  C   UNL     1      -3.464   5.684   3.836  0.00  0.00    +0.001 A 
ATOM     18  C   UNL     1      -2.366   4.884   3.759  0.00  0.00    +0.008 A 
ATOM     19  C   UNL     1      -1.982   4.346   2.518  0.00  0.00    -0.016 A 
ATOM     20  C   UNL     1      -0.855   3.517   2.402  0.00  0.00    +0.031 A 
ATOM     21  C   UNL     1      -0.510   3.010   1.169  0.00  0.00    +0.034 A 
ATOM     22  C   UNL     1      -1.269   3.317   0.032  0.00  0.00    +0.024 A 
ATOM     23  C   UNL     1      -2.367   4.112   0.120  0.00  0.00    +0.010 A 
ATOM     24  C   UNL     1      -2.748   4.647   1.363  0.00  0.00    -0.018 A 
ATOM     25  C   UNL     1      -3.875   5.478   1.483  0.00  0.00    +0.008 A 
ENDBRANCH  12  21
ENDBRANCH   1  13
BRANCH   1  26
ATOM     26  N   UNL     1       2.508   0.099  -0.741  0.00  0.00    -0.277 N 
ATOM     27  C   UNL     1       1.322  -0.443  -1.081  0.00  0.00    +0.249 C 
ATOM     28  O   UNL     1       0.306   0.221  -1.006  0.00  0.00    -0.270 OA
ATOM     29  H   UNL     1       3.438  -0.467  -0.900  0.00  0.00    +0.155 HD
BRANCH  27  30
ATOM     30  C   UNL     1       1.256  -1.845  -1.544  0.00  0.00    +0.051 A 
ATOM     31  C   UNL     1       2.421  -2.608  -1.637  0.00  0.00    +0.014 A 
ATOM     32  C   UNL     1       2.352  -3.917  -2.065  0.00  0.00    +0.001 A 
ATOM     33  C   UNL     1       1.132  -4.472  -2.413  0.00  0.00    +0.001 A 
ATOM     34  C   UNL     1      -0.026  -3.720  -2.329  0.00  0.00    +0.016 A 
ATOM     35  C   UNL     1       0.028  -2.410  -1.897  0.00  0.00    +0.030 A 
ATOM     36 BR   UNL     1      -1.556  -1.383  -1.783  0.00  0.00    -0.050 Br
ENDBRANCH  27  30
ENDBRANCH   1  26
TORSDOF 6
