REMARK  Name = ZINC13565004
REMARK  8 active torsions:
REMARK  status: ('A' for Active; 'I' for Inactive)
REMARK    1  A    between atoms: C_1  and  C_2
REMARK    2  A    between atoms: C_5  and  C_8
REMARK    3  A    between atoms: C_17  and  C_19
REMARK    4  A    between atoms: C_20  and  C_35
REMARK    5  A    between atoms: C_25  and  C_27
REMARK    6  A    between atoms: C_27  and  N_70
REMARK    7  A    between atoms: C_28  and  N_70
REMARK    8  A    between atoms: C_29  and  N_70
REMARK                            x       y       z     vdW  Elec       q    Type
REMARK                         _______ _______ _______ _____ _____    ______ ____
ROOT
ATOM      1  C   UNL     1      -2.506   7.770  -2.153  0.00  0.00    +0.083 A 
ATOM      2  C   UNL     1      -1.958   8.233  -0.989  0.00  0.00    +0.016 A 
ATOM      3  S   UNL     1      -1.218   6.734  -0.354  0.00  0.00    -0.057 S 
ATOM      4  C   UNL     1      -1.703   5.659  -1.697  0.00  0.00    +0.165 A 
ATOM      5  N   UNL     1      -2.364   6.494  -2.477  0.00  0.00    -0.224 NA
ATOM      6  N   UNL     1      -1.455   4.303  -1.870  0.00  0.00    -0.266 N 
ATOM      7  C   UNL     1      -0.751   3.622  -0.945  0.00  0.00    +0.202 C 
ATOM      8  O   UNL     1      -0.333   4.194   0.040  0.00  0.00    -0.277 OA
ATOM      9  C   UNL     1      -1.978   9.620  -0.401  0.00  0.00    +0.054 C 
ATOM     10  H   UNL     1      -1.790   3.845  -2.658  0.00  0.00    +0.157 HD
ENDROOT
BRANCH   1  20
ATOM     11  C   UNL     1      -6.085  12.220  -5.511  0.00  0.00    +0.251 C 
ATOM     12  O   UNL     1      -6.398  12.525  -4.377  0.00  0.00    -0.270 OA
ATOM     13  N   UNL     1      -5.277  11.162  -5.726  0.00  0.00    -0.267 N 
ATOM     14  C   UNL     1      -4.923  10.631  -7.044  0.00  0.00    +0.118 C 
ATOM     15  C   UNL     1      -3.992   9.440  -6.763  0.00  0.00    +0.056 C 
ATOM     16  C   UNL     1      -3.887   9.387  -5.255  0.00  0.00    -0.024 A 
ATOM     17  C   UNL     1      -4.655  10.412  -4.723  0.00  0.00    +0.040 A 
ATOM     18  C   UNL     1      -4.717  10.570  -3.336  0.00  0.00    +0.024 A 
ATOM     19  C   UNL     1      -4.025   9.718  -2.506  0.00  0.00    +0.012 A 
ATOM     20  C   UNL     1      -3.254   8.690  -3.045  0.00  0.00    +0.002 A 
ATOM     21  C   UNL     1      -3.185   8.534  -4.429  0.00  0.00    +0.015 A 
BRANCH  11  26
ATOM     22  C   UNL     1      -8.048  15.292  -9.963  0.00  0.00    +0.044 C 
ATOM     23  C   UNL     1      -7.534  14.488  -8.797  0.00  0.00    -0.050 A 
ATOM     24  C   UNL     1      -7.755  14.929  -7.504  0.00  0.00    +0.004 A 
ATOM     25  C   UNL     1      -7.287  14.197  -6.433  0.00  0.00    +0.013 A 
ATOM     26  C   UNL     1      -6.589  13.009  -6.654  0.00  0.00    +0.037 A 
ATOM     27  C   UNL     1      -6.365  12.572  -7.961  0.00  0.00    +0.013 A 
ATOM     28  C   UNL     1      -6.843  13.310  -9.024  0.00  0.00    +0.004 A 
ENDBRANCH  11  26
ENDBRANCH   1  20
BRANCH   7  29
ATOM     29  C   UNL     1      -0.482   2.151  -1.133  0.00  0.00    +0.019 C 
BRANCH  29  31
ATOM     30  C   UNL     1       1.640   2.246   0.029  0.00  0.00    -0.095 C 
ATOM     31  N   UNL     1       0.286   1.654   0.028  0.00  0.00    +0.385 N 
ATOM     32  H   UNL     1      -0.199   1.929   0.890  0.00  0.00    -0.081 HD
BRANCH  31  33
ATOM     33  C   UNL     1       0.379   0.180  -0.022  0.00  0.00    -0.068 C 
ATOM     34  C   UNL     1      -1.031  -0.409   0.052  0.00  0.00    -0.015 C 
ATOM     35  C   UNL     1      -0.948  -1.936   0.025  0.00  0.00    -0.002 C 
ATOM     36  C   UNL     1      -0.129  -2.424   1.222  0.00  0.00    -0.000 C 
ATOM     37  C   UNL     1       1.281  -1.835   1.148  0.00  0.00    -0.002 C 
ATOM     38  C   UNL     1       1.198  -0.307   1.175  0.00  0.00    -0.015 C 
ENDBRANCH  31  33
ENDBRANCH  29  31
ENDBRANCH   7  29
TORSDOF 5
