REMARK  Name = ZINC12862740
REMARK  9 active torsions:
REMARK  status: ('A' for Active; 'I' for Inactive)
REMARK    1  A    between atoms: C_1  and  C_2
REMARK    2  A    between atoms: C_2  and  C_4
REMARK    3  A    between atoms: C_2  and  N_59
REMARK    4  A    between atoms: N_6  and  C_7
REMARK    5  A    between atoms: C_7  and  C_8
REMARK    6  A    between atoms: C_17  and  C_18
REMARK    7  A    between atoms: C_17  and  N_59
REMARK    8  A    between atoms: C_18  and  C_20
REMARK    9  A    between atoms: C_18  and  C_26
REMARK                            x       y       z     vdW  Elec       q    Type
REMARK                         _______ _______ _______ _____ _____    ______ ____
ROOT
ATOM      1  N   UNL     1       9.677  -1.764   1.042  0.00  0.00    +0.387 N 
ATOM      2  H   UNL     1       9.603  -2.098   2.010  0.00  0.00    -0.085 HD
ATOM      3  H   UNL     1      10.120  -0.838   1.032  0.00  0.00    -0.085 HD
ENDROOT
BRANCH   1   5
ATOM      4  C   UNL     1       8.333  -0.630  -0.670  0.00  0.00    -0.004 C 
ATOM      5  C   UNL     1       8.326  -1.665   0.457  0.00  0.00    +0.013 C 
BRANCH   5   6
ATOM      6  C   UNL     1       7.355  -1.236   1.526  0.00  0.00    +0.199 C 
ATOM      7  O   UNL     1       7.746  -1.037   2.657  0.00  0.00    -0.278 OA
ATOM      8  N   UNL     1       6.051  -1.073   1.226  0.00  0.00    -0.313 N 
ATOM      9  H   UNL     1       5.738  -1.231   0.322  0.00  0.00    +0.149 HD
BRANCH   8  10
ATOM     10  C   UNL     1       5.107  -0.655   2.265  0.00  0.00    +0.139 C 
BRANCH  10  11
ATOM     11  C   UNL     1       3.725  -0.548   1.674  0.00  0.00    -0.027 A 
ATOM     12  C   UNL     1       2.885  -1.646   1.677  0.00  0.00    +0.009 A 
ATOM     13  C   UNL     1       1.617  -1.553   1.135  0.00  0.00    +0.050 A 
ATOM     14  C   UNL     1       1.183  -0.356   0.589  0.00  0.00    +0.166 A 
ATOM     15  C   UNL     1       2.028   0.751   0.586  0.00  0.00    +0.167 A 
ATOM     16  C   UNL     1       3.298   0.650   1.131  0.00  0.00    +0.054 A 
ATOM     17  O   UNL     1       1.376   1.797  -0.001  0.00  0.00    -0.453 OA
ATOM     18  C   UNL     1      -0.018   1.436   0.010  0.00  0.00    +0.466 C 
ATOM     19  O   UNL     1       0.002  -0.004   0.002  0.00  0.00    -0.453 OA
ENDBRANCH  10  11
ENDBRANCH   8  10
ENDBRANCH   5   6
ENDBRANCH   1   5
BRANCH   1  20
ATOM     20  C   UNL     1      10.503  -2.707   0.265  0.00  0.00    -0.069 C 
BRANCH  20  21
ATOM     21  C   UNL     1      11.896  -2.789   0.894  0.00  0.00    +0.034 C 
BRANCH  21  22
ATOM     22  C   UNL     1      12.707  -3.840   0.181  0.00  0.00    -0.017 A 
ATOM     23  C   UNL     1      13.024  -3.856  -1.124  0.00  0.00    +0.087 A 
ATOM     24  N   UNL     1      13.775  -4.964  -1.408  0.00  0.00    -0.360 N 
ATOM     25  H   UNL     1      14.124  -5.191  -2.284  0.00  0.00    +0.165 HD
ATOM     26  C   UNL     1      13.956  -5.712  -0.267  0.00  0.00    +0.047 A 
ATOM     27  C   UNL     1      13.295  -5.041   0.779  0.00  0.00    +0.003 A 
ATOM     28  C   UNL     1      13.310  -5.576   2.068  0.00  0.00    +0.010 A 
ATOM     29  C   UNL     1      13.966  -6.750   2.309  0.00  0.00    +0.001 A 
ATOM     30  C   UNL     1      14.619  -7.416   1.281  0.00  0.00    +0.002 A 
ATOM     31  C   UNL     1      14.617  -6.906   0.000  0.00  0.00    +0.026 A 
ENDBRANCH  21  22
BRANCH  21  32
ATOM     32  C   UNL     1      12.583  -1.454   0.770  0.00  0.00    -0.042 A 
ATOM     33  C   UNL     1      12.818  -0.911  -0.480  0.00  0.00    +0.004 A 
ATOM     34  C   UNL     1      13.444   0.316  -0.593  0.00  0.00    +0.000 A 
ATOM     35  C   UNL     1      13.845   0.996   0.542  0.00  0.00    +0.000 A 
ATOM     36  C   UNL     1      13.614   0.450   1.792  0.00  0.00    +0.000 A 
ATOM     37  C   UNL     1      12.984  -0.775   1.905  0.00  0.00    +0.004 A 
ENDBRANCH  21  32
ENDBRANCH  20  21
ENDBRANCH   1  20
TORSDOF 8
