REMARK  Name = ZINC12801428
REMARK  11 active torsions:
REMARK  status: ('A' for Active; 'I' for Inactive)
REMARK    1  A    between atoms: C_1  and  C_2
REMARK    2  A    between atoms: C_2  and  N_61
REMARK    3  A    between atoms: C_3  and  C_4
REMARK    4  A    between atoms: C_3  and  N_61
REMARK    5  A    between atoms: C_5  and  C_7
REMARK    6  A    between atoms: C_5  and  C_25
REMARK    7  A    between atoms: C_5  and  N_61
REMARK    8  A    between atoms: C_7  and  N_8
REMARK    9  A    between atoms: C_9  and  C_11
REMARK   10  A    between atoms: C_11  and  N_12
REMARK   11  A    between atoms: N_21  and  C_24
REMARK                            x       y       z     vdW  Elec       q    Type
REMARK                         _______ _______ _______ _____ _____    ______ ____
ROOT
ATOM      1  N   UNL     1      -1.220   1.512   1.368  0.00  0.00    -0.315 N 
ATOM      2  C   UNL     1      -1.075   1.274   2.686  0.00  0.00    +0.231 C 
ATOM      3  O   UNL     1      -0.033   0.822   3.110  0.00  0.00    -0.274 OA
ATOM      4  H   UNL     1      -2.054   1.874   1.029  0.00  0.00    +0.149 HD
ENDROOT
BRANCH   1   5
ATOM      5  C   UNL     1      -0.119   1.225   0.446  0.00  0.00    +0.096 C 
BRANCH   5   6
ATOM      6  C   UNL     1      -0.496   1.691  -0.962  0.00  0.00    +0.016 C 
BRANCH   6   7
ATOM      7  C   UNL     1       0.568   1.259  -1.937  0.00  0.00    +0.093 A 
ATOM      8  C   UNL     1       1.552   2.036  -2.423  0.00  0.00    +0.043 A 
ATOM      9  C   UNL     1       2.317   1.230  -3.298  0.00  0.00    +0.041 A 
ATOM     10  C   UNL     1       1.754   0.008  -3.294  0.00  0.00    +0.195 A 
ATOM     11  O   UNL     1       0.698   0.030  -2.463  0.00  0.00    -0.469 OA
ENDBRANCH   6   7
BRANCH   6  12
ATOM     12  N   UNL     1      -1.803   1.104  -1.326  0.00  0.00    +0.387 N 
ATOM     13  H   UNL     1      -2.506   1.404  -0.641  0.00  0.00    -0.081 HD
BRANCH  12  15
ATOM     14  C   UNL     1      -2.732   3.005  -2.550  0.00  0.00    -0.017 C 
ATOM     15  C   UNL     1      -2.210   1.572  -2.668  0.00  0.00    -0.081 C 
ENDBRANCH  12  15
BRANCH  12  16
ATOM     16  C   UNL     1      -1.716  -0.371  -1.311  0.00  0.00    -0.081 C 
ATOM     17  C   UNL     1      -3.133  -0.947  -1.301  0.00  0.00    -0.017 C 
ENDBRANCH  12  16
ENDBRANCH   6  12
ENDBRANCH   5   6
ENDBRANCH   1   5
BRANCH   2  18
ATOM     18  C   UNL     1      -2.209   1.570   3.634  0.00  0.00    +0.213 C 
BRANCH  18  19
ATOM     19  N   UNL     1      -1.805   1.227   5.000  0.00  0.00    -0.215 N 
ATOM     20  C   UNL     1      -1.205   2.085   5.851  0.00  0.00    +0.247 C 
ATOM     21  O   UNL     1      -0.909   3.241   5.640  0.00  0.00    -0.273 OA
ATOM     22  C   UNL     1      -0.980   1.300   7.124  0.00  0.00    +0.115 C 
ATOM     23  C   UNL     1      -1.737   1.939   8.283  0.00  0.00    +0.035 C 
ATOM     24  C   UNL     1      -1.519   1.115   9.554  0.00  0.00    +0.003 C 
ATOM     25  C   UNL     1      -0.023   1.054   9.871  0.00  0.00    +0.000 C 
ATOM     26  C   UNL     1       0.718   0.389   8.710  0.00  0.00    +0.003 C 
ATOM     27  C   UNL     1       0.510   1.210   7.435  0.00  0.00    +0.035 C 
ATOM     28  N   UNL     1      -1.525  -0.030   6.823  0.00  0.00    -0.274 N 
ATOM     29  C   UNL     1      -1.990   0.025   5.561  0.00  0.00    +0.312 C 
ATOM     30  O   UNL     1      -2.516  -0.911   4.992  0.00  0.00    -0.252 OA
ATOM     31  C   UNL     1      -1.562  -1.186   7.722  0.00  0.00    +0.134 C 
ENDBRANCH  18  19
ENDBRANCH   2  18
TORSDOF 8
