REMARK  Name = ZINC53491679
REMARK  8 active torsions:
REMARK  status: ('A' for Active; 'I' for Inactive)
REMARK    1  A    between atoms: C_1  and  C_2
REMARK    2  A    between atoms: C_2  and  C_3
REMARK    3  A    between atoms: C_3  and  C_5
REMARK    4  A    between atoms: C_3  and  C_6
REMARK    5  A    between atoms: C_9  and  C_12
REMARK    6  A    between atoms: C_12  and  C_14
REMARK    7  A    between atoms: C_12  and  N_19
REMARK    8  A    between atoms: C_25  and  C_28
REMARK                            x       y       z     vdW  Elec       q    Type
REMARK                         _______ _______ _______ _____ _____    ______ ____
ROOT
ATOM      1  C   UNL     1       1.212  -6.251  -1.062  0.00  0.00    +0.142 C 
ENDROOT
BRANCH   1   2
ATOM      2  N   UNL     1       2.279  -6.681  -1.969  0.00  0.00    -0.288 N 
ATOM      3  C   UNL     1       2.266  -7.928  -2.481  0.00  0.00    +0.303 C 
ATOM      4  O   UNL     1       1.421  -8.725  -2.120  0.00  0.00    -0.253 OA
ATOM      5  N   UNL     1       3.189  -8.291  -3.393  0.00  0.00    -0.286 N 
ATOM      6  C   UNL     1       4.285  -7.381  -3.753  0.00  0.00    +0.110 C 
ATOM      7  C   UNL     1       4.300  -7.204  -5.274  0.00  0.00    +0.032 C 
ATOM      8  C   UNL     1       4.380  -8.578  -5.943  0.00  0.00    +0.078 C 
ATOM      9  C   UNL     1       3.147  -9.403  -5.565  0.00  0.00    +0.032 C 
ATOM     10  C   UNL     1       3.123  -9.608  -4.042  0.00  0.00    +0.110 C 
ATOM     11  H   UNL     1       2.995  -6.069  -2.200  0.00  0.00    +0.151 HD
BRANCH   8  12
ATOM     12  C   UNL     1       4.428  -8.406  -7.439  0.00  0.00    +0.214 C 
ATOM     13  O   UNL     1       4.402  -7.294  -7.923  0.00  0.00    -0.276 OA
ATOM     14  N   UNL     1       4.501  -9.488  -8.240  0.00  0.00    -0.329 N 
ATOM     15  H   UNL     1       4.522 -10.377  -7.853  0.00  0.00    +0.145 HD
ATOM     16  H   UNL     1       4.533  -9.377  -9.203  0.00  0.00    +0.145 HD
ENDBRANCH   8  12
ENDBRANCH   1   2
BRANCH   1  20
ATOM     17  C   UNL     1       0.846  -1.998  -1.210  0.00  0.00    -0.045 A 
ATOM     18  C   UNL     1      -0.287  -2.787  -1.146  0.00  0.00    +0.004 A 
ATOM     19  C   UNL     1      -0.169  -4.163  -1.098  0.00  0.00    +0.006 A 
ATOM     20  C   UNL     1       1.083  -4.750  -1.115  0.00  0.00    -0.022 A 
ATOM     21  C   UNL     1       2.215  -3.961  -1.181  0.00  0.00    +0.006 A 
ATOM     22  C   UNL     1       2.097  -2.585  -1.233  0.00  0.00    +0.004 A 
BRANCH  17  23
ATOM     23  C   UNL     1       0.716  -0.497  -1.262  0.00  0.00    +0.016 C 
ATOM     24  C   UNL     1      -0.090  -0.097  -2.500  0.00  0.00    +0.012 C 
BRANCH  23  26
ATOM     25  C   UNL     1      -0.022   1.527   0.003  0.00  0.00    +0.004 C 
ATOM     26  C   UNL     1      -0.001  -0.003  -0.004  0.00  0.00    +0.004 C 
ENDBRANCH  23  26
ENDBRANCH  17  23
ENDBRANCH   1  20
BRANCH   1  27
ATOM     27  C   UNL     1       1.545  -6.677   0.344  0.00  0.00    +0.014 A 
ATOM     28  C   UNL     1       0.726  -7.178   1.301  0.00  0.00    +0.013 A 
ATOM     29  C   UNL     1       1.257  -7.504   2.535  0.00  0.00    +0.008 A 
ATOM     30  C   UNL     1       2.581  -7.314   2.751  0.00  0.00    +0.045 A 
ATOM     31  S   UNL     1       3.122  -6.660   1.180  0.00  0.00    -0.099 S 
ENDBRANCH   1  27
TORSDOF 6
