REMARK  Name = ZINC12151911
REMARK  6 active torsions:
REMARK  status: ('A' for Active; 'I' for Inactive)
REMARK    1  A    between atoms: C_1  and  C_2
REMARK    2  A    between atoms: C_6  and  C_13
REMARK    3  A    between atoms: C_13  and  N_62
REMARK    4  A    between atoms: N_16  and  C_19
REMARK    5  A    between atoms: N_27  and  C_30
REMARK    6  A    between atoms: C_30  and  C_31
REMARK                            x       y       z     vdW  Elec       q    Type
REMARK                         _______ _______ _______ _____ _____    ______ ____
ROOT
ATOM      1  C   UNL     1      -3.211   2.800  -1.787  0.00  0.00    -0.059 C 
ATOM      2  C   UNL     1      -3.708   2.830  -3.234  0.00  0.00    +0.086 C 
ATOM      3  N   UNL     1      -5.001   2.137  -3.320  0.00  0.00    -0.333 N 
ATOM      4  C   UNL     1      -4.878   0.742  -2.876  0.00  0.00    +0.086 C 
ATOM      5  C   UNL     1      -4.382   0.712  -1.428  0.00  0.00    -0.059 C 
ATOM      6  N   UNL     1      -3.071   1.392  -1.360  0.00  0.00    +0.384 N 
ATOM      7  H   UNL     1      -2.415   0.916  -1.990  0.00  0.00    -0.081 HD
ENDROOT
BRANCH   3   8
ATOM      8  C   UNL     1      -5.517   2.205  -4.606  0.00  0.00    +0.043 A 
ATOM      9  C   UNL     1      -4.843   1.599  -5.668  0.00  0.00    +0.024 A 
ATOM     10  C   UNL     1      -5.354   1.665  -6.946  0.00  0.00    +0.003 A 
ATOM     11  C   UNL     1      -6.544   2.334  -7.198  0.00  0.00    +0.014 A 
ATOM     12  C   UNL     1      -7.228   2.942  -6.160  0.00  0.00    +0.051 A 
ATOM     13  C   UNL     1      -6.715   2.875  -4.846  0.00  0.00    +0.070 A 
ATOM     14  C   UNL     1      -7.675   3.605  -4.000  0.00  0.00    +0.256 C 
ATOM     15  O   UNL     1      -7.578   3.772  -2.801  0.00  0.00    -0.269 OA
ATOM     16  N   UNL     1      -8.676   4.058  -4.777  0.00  0.00    -0.230 N 
ATOM     17  C   UNL     1      -8.483   3.715  -6.063  0.00  0.00    +0.254 C 
ATOM     18  O   UNL     1      -9.223   3.987  -6.988  0.00  0.00    -0.270 OA
BRANCH  16  19
ATOM     19  C   UNL     1      -9.820   4.831  -4.287  0.00  0.00    +0.152 C 
BRANCH  19  20
ATOM     20  C   UNL     1      -9.494   6.301  -4.343  0.00  0.00    -0.023 A 
ATOM     21  C   UNL     1      -9.779   7.040  -5.476  0.00  0.00    +0.013 A 
ATOM     22  C   UNL     1      -9.473   8.360  -5.493  0.00  0.00    +0.045 A 
ATOM     23  S   UNL     1      -8.759   8.596  -3.874  0.00  0.00    -0.105 S 
ATOM     24  C   UNL     1      -8.922   6.920  -3.281  0.00  0.00    +0.050 A 
ENDBRANCH  19  20
ENDBRANCH  16  19
ENDBRANCH   3   8
BRANCH   6  25
ATOM     25  C   UNL     1      -2.542   1.332   0.019  0.00  0.00    -0.041 C 
BRANCH  25  31
ATOM     26  C   UNL     1       2.664  -0.037  -0.023  0.00  0.00    +0.113 C 
ATOM     27  C   UNL     1       2.377   1.442  -0.013  0.00  0.00    +0.229 C 
ATOM     28  O   UNL     1       3.291   2.237  -0.017  0.00  0.00    -0.273 OA
ATOM     29  N   UNL     1       1.102   1.881   0.002  0.00  0.00    -0.287 N 
ATOM     30  C   UNL     1      -0.013   1.076   0.008  0.00  0.00    +0.096 A 
ATOM     31  C   UNL     1      -1.120   1.830   0.017  0.00  0.00    -0.038 A 
ATOM     32  C   UNL     1      -0.688   3.233   0.026  0.00  0.00    +0.002 A 
ATOM     33  C   UNL     1       0.717   3.210   0.013  0.00  0.00    +0.056 A 
ATOM     34  C   UNL     1       1.421   4.407   0.012  0.00  0.00    +0.027 A 
ATOM     35  C   UNL     1       0.739   5.606   0.025  0.00  0.00    +0.002 A 
ATOM     36  C   UNL     1      -0.648   5.629   0.038  0.00  0.00    +0.001 A 
ATOM     37  C   UNL     1      -1.365   4.453   0.038  0.00  0.00    +0.010 A 
ENDBRANCH  25  31
ENDBRANCH   6  25
TORSDOF 5
