REMARK  Name = ZINC40985131
REMARK  17 active torsions:
REMARK  status: ('A' for Active; 'I' for Inactive)
REMARK    1  A    between atoms: C_1  and  C_2
REMARK    2  A    between atoms: C_2  and  C_3
REMARK    3  A    between atoms: C_3  and  C_4
REMARK    4  A    between atoms: C_4  and  C_5
REMARK    5  A    between atoms: C_5  and  C_7
REMARK    6  A    between atoms: C_5  and  C_9
REMARK    7  A    between atoms: C_7  and  C_8
REMARK    8  A    between atoms: C_9  and  N_10
REMARK    9  A    between atoms: C_11  and  C_13
REMARK   10  A    between atoms: N_16  and  C_19
REMARK   11  A    between atoms: C_19  and  C_20
REMARK   12  A    between atoms: C_21  and  C_35
REMARK   13  A    between atoms: C_23  and  C_25
REMARK   14  A    between atoms: C_28  and  O_31
REMARK   15  A    between atoms: O_31  and  C_32
REMARK   16  A    between atoms: C_32  and  C_33
REMARK   17  A    between atoms: C_32  and  C_34
REMARK                            x       y       z     vdW  Elec       q    Type
REMARK                         _______ _______ _______ _____ _____    ______ ____
ROOT
ATOM      1  C   UNL     1       4.254  -6.384  -5.004  0.00  0.00    +0.071 C 
ATOM      2  C   UNL     1       5.516  -5.516  -4.986  0.00  0.00    -0.006 C 
ATOM      3  C   UNL     1       6.449  -5.960  -6.114  0.00  0.00    -0.078 C 
ATOM      4  N   UNL     1       6.818  -7.368  -5.923  0.00  0.00    +0.383 N 
ATOM      5  C   UNL     1       5.621  -8.213  -6.011  0.00  0.00    -0.078 C 
ATOM      6  C   UNL     1       4.656  -7.856  -4.879  0.00  0.00    -0.006 C 
ATOM      7  H   UNL     1       7.244  -7.483  -5.016  0.00  0.00    -0.081 HD
ENDROOT
BRANCH   1   9
ATOM      8  N   UNL     1       2.886  -4.748  -3.749  0.00  0.00    -0.315 N 
ATOM      9  C   UNL     1       3.365  -6.004  -3.847  0.00  0.00    +0.216 C 
ATOM     10  O   UNL     1       3.080  -6.829  -3.005  0.00  0.00    -0.276 OA
ATOM     11  H   UNL     1       3.114  -4.088  -4.423  0.00  0.00    +0.149 HD
BRANCH   8  12
ATOM     12  C   UNL     1       2.022  -4.380  -2.625  0.00  0.00    +0.107 C 
BRANCH  12  13
ATOM     13  C   UNL     1       1.726  -2.879  -2.679  0.00  0.00    +0.006 C 
BRANCH  13  14
ATOM     14  C   UNL     1       3.023  -2.096  -2.468  0.00  0.00    +0.002 C 
ATOM     15  C   UNL     1       3.576  -2.391  -1.072  0.00  0.00    +0.004 C 
ENDBRANCH  13  14
BRANCH  13  16
ATOM     16  C   UNL     1       0.726  -2.516  -1.580  0.00  0.00    +0.005 C 
BRANCH  16  17
ATOM     17  C   UNL     1       0.335  -1.043  -1.712  0.00  0.00    +0.000 C 
BRANCH  17  19
ATOM     18  C   UNL     1      -1.056   0.793  -0.746  0.00  0.00    +0.004 C 
ATOM     19  C   UNL     1      -0.665  -0.680  -0.613  0.00  0.00    -0.003 C 
ENDBRANCH  17  19
ENDBRANCH  16  17
ENDBRANCH  13  16
ENDBRANCH  12  13
ENDBRANCH   8  12
ENDBRANCH   1   9
BRANCH   4  20
ATOM     20  C   UNL     1       7.775  -7.767  -6.964  0.00  0.00    -0.019 C 
BRANCH  20  21
ATOM     21  C   UNL     1       8.249  -9.172  -6.699  0.00  0.00    +0.066 A 
ATOM     22  C   UNL     1       9.312  -9.523  -5.953  0.00  0.00    +0.124 A 
ATOM     23  O   UNL     1       9.388 -10.868  -5.971  0.00  0.00    -0.440 OA
ATOM     24  C   UNL     1       8.373 -11.325  -6.725  0.00  0.00    +0.228 A 
ATOM     25  N   UNL     1       7.681 -10.298  -7.160  0.00  0.00    -0.216 NA
ATOM     26  C   UNL     1      10.245  -8.584  -5.232  0.00  0.00    +0.088 C 
BRANCH  24  27
ATOM     27  C   UNL     1       8.082 -12.745  -7.011  0.00  0.00    +0.037 A 
ATOM     28  C   UNL     1       6.995 -13.088  -7.819  0.00  0.00    +0.017 A 
ATOM     29  C   UNL     1       6.727 -14.414  -8.084  0.00  0.00    +0.046 A 
ATOM     30  C   UNL     1       7.536 -15.408  -7.548  0.00  0.00    +0.121 A 
ATOM     31  C   UNL     1       8.618 -15.071  -6.745  0.00  0.00    +0.046 A 
ATOM     32  C   UNL     1       8.896 -13.748  -6.479  0.00  0.00    +0.017 A 
BRANCH  30  33
ATOM     33  O   UNL     1       7.268 -16.713  -7.811  0.00  0.00    -0.489 OA
BRANCH  33  34
ATOM     34  C   UNL     1       6.210 -16.986  -8.732  0.00  0.00    +0.167 C 
ATOM     35  C   UNL     1       6.434 -18.356  -9.375  0.00  0.00    +0.051 C 
ATOM     36  C   UNL     1       4.873 -16.983  -7.989  0.00  0.00    +0.051 C 
ENDBRANCH  33  34
ENDBRANCH  30  33
ENDBRANCH  24  27
ENDBRANCH  20  21
ENDBRANCH   4  20
TORSDOF 12
