REMARK  Name = ZINC46907694
REMARK  9 active torsions:
REMARK  status: ('A' for Active; 'I' for Inactive)
REMARK    1  A    between atoms: C_1  and  C_2
REMARK    2  A    between atoms: C_7  and  C_8
REMARK    3  A    between atoms: C_7  and  C_9
REMARK    4  A    between atoms: C_11  and  N_13
REMARK    5  A    between atoms: N_16  and  N_17
REMARK    6  A    between atoms: C_18  and  C_20
REMARK    7  A    between atoms: C_20  and  O_21
REMARK    8  A    between atoms: O_21  and  C_22
REMARK    9  A    between atoms: C_25  and  C_28
REMARK                            x       y       z     vdW  Elec       q    Type
REMARK                         _______ _______ _______ _____ _____    ______ ____
ROOT
ATOM      1  N   UNL     1      -2.268  -0.017   1.012  0.00  0.00    -0.295 N 
ATOM      2  C   UNL     1      -3.606  -0.100   0.874  0.00  0.00    +0.316 C 
ATOM      3  O   UNL     1      -4.084  -0.746  -0.038  0.00  0.00    -0.251 OA
ATOM      4  N   UNL     1      -4.413   0.533   1.748  0.00  0.00    -0.218 N 
ATOM      5  H   UNL     1      -1.886   0.499   1.739  0.00  0.00    +0.151 HD
ATOM      6  H   UNL     1      -5.377   0.473   1.649  0.00  0.00    +0.174 HD
ENDROOT
BRANCH   1  16
ATOM      7  C   UNL     1      -0.019   1.526   0.010  0.00  0.00    +0.013 C 
ATOM      8  C   UNL     1       0.002  -0.004   0.002  0.00  0.00    -0.008 C 
ATOM      9  C   UNL     1       0.744  -0.669  -1.197  0.00  0.00    +0.009 C 
ATOM     10  C   UNL     1       1.062  -2.103  -0.714  0.00  0.00    +0.005 C 
ATOM     11  C   UNL     1       0.481  -2.169   0.732  0.00  0.00    -0.003 C 
ATOM     12  C   UNL     1       0.727  -0.695   1.211  0.00  0.00    -0.025 C 
ATOM     13  C   UNL     1       2.216  -0.348   1.260  0.00  0.00    +0.012 C 
ATOM     14  C   UNL     1       0.031  -0.400   2.541  0.00  0.00    +0.012 C 
ATOM     15  C   UNL     1      -1.065  -2.175   0.532  0.00  0.00    +0.027 C 
ATOM     16  C   UNL     1      -1.389  -0.705   0.062  0.00  0.00    +0.081 C 
ENDBRANCH   1  16
BRANCH   4  17
ATOM     17  N   UNL     1      -3.862   1.278   2.799  0.00  0.00    -0.230 N 
ATOM     18  C   UNL     1      -4.670   1.911   3.672  0.00  0.00    +0.267 C 
ATOM     19  O   UNL     1      -5.874   1.836   3.549  0.00  0.00    -0.271 OA
ATOM     20  H   UNL     1      -2.899   1.338   2.897  0.00  0.00    +0.173 HD
BRANCH  18  21
ATOM     21  C   UNL     1      -4.077   2.712   4.802  0.00  0.00    +0.326 C 
BRANCH  21  22
ATOM     22  O   UNL     1      -5.128   3.283   5.584  0.00  0.00    -0.483 OA
BRANCH  22  23
ATOM     23  C   UNL     1      -4.762   4.040   6.650  0.00  0.00    +0.121 A 
ATOM     24  C   UNL     1      -3.415   4.234   6.932  0.00  0.00    +0.047 A 
ATOM     25  C   UNL     1      -3.039   5.003   8.012  0.00  0.00    +0.022 A 
ATOM     26  C   UNL     1      -4.014   5.587   8.824  0.00  0.00    +0.052 A 
ATOM     27  C   UNL     1      -5.367   5.390   8.537  0.00  0.00    +0.022 A 
ATOM     28  C   UNL     1      -5.735   4.625   7.452  0.00  0.00    +0.047 A 
BRANCH  26  29
ATOM     29  C   UNL     1      -3.628   6.386   9.948  0.00  0.00    +0.099 C 
ATOM     30  N   UNL     1      -3.321   7.020  10.839  0.00  0.00    -0.191 NA
ENDBRANCH  26  29
ENDBRANCH  22  23
ENDBRANCH  21  22
ENDBRANCH  18  21
ENDBRANCH   4  17
TORSDOF 6
