REMARK  Name = ZINC34758540
REMARK  9 active torsions:
REMARK  status: ('A' for Active; 'I' for Inactive)
REMARK    1  A    between atoms: C_1  and  C_2
REMARK    2  A    between atoms: C_5  and  C_30
REMARK    3  A    between atoms: C_6  and  C_8
REMARK    4  A    between atoms: C_8  and  N_9
REMARK    5  A    between atoms: C_17  and  C_29
REMARK    6  A    between atoms: C_18  and  C_28
REMARK    7  A    between atoms: C_22  and  S_24
REMARK    8  A    between atoms: S_24  and  C_25
REMARK    9  A    between atoms: C_25  and  C_26
REMARK                            x       y       z     vdW  Elec       q    Type
REMARK                         _______ _______ _______ _____ _____    ______ ____
ROOT
ATOM      1  N   UNL     1       1.912  -2.553   2.296  0.00  0.00    +0.384 N 
ATOM      2  C   UNL     1       3.087  -1.673   2.326  0.00  0.00    -0.059 C 
ATOM      3  C   UNL     1       4.320  -2.481   2.744  0.00  0.00    +0.088 C 
ATOM      4  N   UNL     1       4.029  -3.148   4.022  0.00  0.00    -0.318 N 
ATOM      5  C   UNL     1       2.782  -3.922   4.133  0.00  0.00    +0.088 C 
ATOM      6  C   UNL     1       1.622  -3.045   3.649  0.00  0.00    -0.059 C 
ATOM      7  C   UNL     1       4.902  -3.051   5.090  0.00  0.00    +0.134 A 
ATOM      8  C   UNL     1       6.031  -3.912   5.175  0.00  0.00    +0.051 A 
ATOM      9  C   UNL     1       6.469  -4.961   4.269  0.00  0.00    -0.028 A 
ATOM     10  C   UNL     1       7.580  -5.653   4.556  0.00  0.00    -0.008 A 
ATOM     11  S   UNL     1       8.132  -4.936   6.093  0.00  0.00    -0.073 S 
ATOM     12  C   UNL     1       6.854  -3.725   6.307  0.00  0.00    +0.115 A 
ATOM     13  N   UNL     1       6.580  -2.809   7.215  0.00  0.00    -0.215 NA
ATOM     14  C   UNL     1       5.512  -2.034   7.083  0.00  0.00    +0.191 A 
ATOM     15  N   UNL     1       4.699  -2.153   6.039  0.00  0.00    -0.206 NA
ATOM     16  C   UNL     1       8.212  -6.772   3.769  0.00  0.00    +0.052 C 
ATOM     17  C   UNL     1       5.682  -5.267   3.021  0.00  0.00    +0.045 C 
ATOM     18  H   UNL     1       2.097  -3.336   1.687  0.00  0.00    -0.081 HD
ENDROOT
BRANCH   1  19
ATOM     19  C   UNL     1       0.754  -1.805   1.790  0.00  0.00    -0.043 C 
BRANCH  19  25
ATOM     20  C   UNL     1       2.099   1.648  -1.574  0.00  0.00    +0.044 C 
ATOM     21  C   UNL     1       1.644   0.248  -1.251  0.00  0.00    -0.050 A 
ATOM     22  C   UNL     1       1.453  -0.669  -2.268  0.00  0.00    +0.003 A 
ATOM     23  C   UNL     1       1.035  -1.953  -1.972  0.00  0.00    +0.004 A 
ATOM     24  C   UNL     1       0.809  -2.320  -0.658  0.00  0.00    -0.049 A 
ATOM     25  C   UNL     1       1.001  -1.404   0.359  0.00  0.00    -0.061 A 
ATOM     26  C   UNL     1       1.423  -0.121   0.063  0.00  0.00    +0.005 A 
ATOM     27  C   UNL     1       0.353  -3.720  -0.335  0.00  0.00    +0.044 C 
ENDBRANCH  19  25
ENDBRANCH   1  19
BRANCH  14  28
ATOM     28  S   UNL     1       5.169  -0.818   8.311  0.00  0.00    -0.082 S 
BRANCH  28  29
ATOM     29  C   UNL     1       6.518  -1.011   9.508  0.00  0.00    +0.104 C 
BRANCH  29  30
ATOM     30  C   UNL     1       6.343  -0.016  10.627  0.00  0.00    -0.023 C 
ATOM     31  C   UNL     1       6.103  -0.435  11.844  0.00  0.00    +0.005 C 
ENDBRANCH  29  30
ENDBRANCH  28  29
ENDBRANCH  14  28
TORSDOF 5
