REMARK  Name = ZINC39325383
REMARK  10 active torsions:
REMARK  status: ('A' for Active; 'I' for Inactive)
REMARK    1  A    between atoms: C_1  and  C_2
REMARK    2  A    between atoms: C_8  and  C_14
REMARK    3  A    between atoms: C_14  and  N_15
REMARK    4  A    between atoms: N_15  and  C_16
REMARK    5  A    between atoms: N_15  and  S_25
REMARK    6  A    between atoms: C_16  and  C_17
REMARK    7  A    between atoms: C_20  and  O_23
REMARK    8  A    between atoms: O_23  and  C_24
REMARK    9  A    between atoms: S_25  and  C_28
REMARK   10  A    between atoms: C_29  and  C_37
REMARK                            x       y       z     vdW  Elec       q    Type
REMARK                         _______ _______ _______ _____ _____    ______ ____
ROOT
ATOM      1  N   UNL     1       1.029  -1.424   6.018  0.00  0.00    -0.171 NA
ENDROOT
BRANCH   1   2
ATOM      2  S   UNL     1       2.178  -0.272   5.707  0.00  0.00    +0.064 S 
ATOM      3  O   UNL     1       2.694  -0.552   4.413  0.00  0.00    -0.153 OA
ATOM      4  O   UNL     1       1.598   0.981   6.040  0.00  0.00    -0.153 OA
BRANCH   2   5
ATOM      5  C   UNL     1       3.499  -0.534   6.843  0.00  0.00    +0.136 A 
ATOM      6  C   UNL     1       4.384  -1.536   6.631  0.00  0.00    -0.022 A 
ATOM      7  C   UNL     1       5.442  -1.772   7.509  0.00  0.00    +0.007 A 
ATOM      8  C   UNL     1       5.629  -1.009   8.612  0.00  0.00    +0.031 A 
ATOM      9  C   UNL     1       4.739   0.061   8.898  0.00  0.00    +0.102 A 
ATOM     10  C   UNL     1       3.637   0.311   7.977  0.00  0.00    +0.126 A 
ATOM     11  N   UNL     1       2.872   1.341   8.343  0.00  0.00    -0.189 NA
ATOM     12  S   UNL     1       3.520   1.903   9.704  0.00  0.00    +0.117 S 
ATOM     13  N   UNL     1       4.767   0.910   9.927  0.00  0.00    -0.191 NA
ATOM     14  C   UNL     1       4.222  -2.417   5.419  0.00  0.00    +0.046 C 
ENDBRANCH   2   5
ENDBRANCH   1   2
BRANCH   1  15
ATOM     15  C   UNL     1       0.927  -2.607   5.160  0.00  0.00    +0.126 C 
BRANCH  15  23
ATOM     16  C   UNL     1      -0.823  -1.143  -0.538  0.00  0.00    +0.045 C 
ATOM     17  C   UNL     1      -0.809  -2.460   0.194  0.00  0.00    -0.029 A 
ATOM     18  C   UNL     1      -0.932  -3.620  -0.503  0.00  0.00    +0.005 A 
ATOM     19  C   UNL     1      -0.926  -4.872   0.112  0.00  0.00    +0.001 A 
ATOM     20  C   UNL     1      -0.796  -4.998   1.457  0.00  0.00    +0.009 A 
ATOM     21  C   UNL     1      -0.660  -3.789   2.270  0.00  0.00    -0.007 A 
ATOM     22  C   UNL     1      -0.527  -3.867   3.624  0.00  0.00    -0.003 C 
ATOM     23  C   UNL     1      -0.392  -2.563   4.386  0.00  0.00    +0.114 C 
ATOM     24  C   UNL     1      -0.415  -1.283   3.582  0.00  0.00    +0.225 C 
ATOM     25  O   UNL     1      -0.310  -0.208   4.142  0.00  0.00    -0.275 OA
ATOM     26  N   UNL     1      -0.550  -1.336   2.268  0.00  0.00    -0.284 N 
ATOM     27  C   UNL     1      -0.664  -2.480   1.593  0.00  0.00    +0.043 A 
ATOM     28  H   UNL     1      -0.562  -0.503   1.770  0.00  0.00    +0.155 HD
ENDBRANCH  15  23
ENDBRANCH   1  15
BRANCH   1  29
ATOM     29  C   UNL     1       0.115  -1.259   7.151  0.00  0.00    +0.144 C 
BRANCH  29  30
ATOM     30  C   UNL     1       0.660  -1.995   8.347  0.00  0.00    -0.031 A 
ATOM     31  C   UNL     1       0.321  -3.319   8.556  0.00  0.00    +0.008 A 
ATOM     32  C   UNL     1       0.819  -3.996   9.653  0.00  0.00    +0.046 A 
ATOM     33  C   UNL     1       1.661  -3.346  10.544  0.00  0.00    +0.120 A 
ATOM     34  C   UNL     1       2.000  -2.018  10.332  0.00  0.00    +0.046 A 
ATOM     35  C   UNL     1       1.504  -1.347   9.231  0.00  0.00    +0.008 A 
BRANCH  33  36
ATOM     36  O   UNL     1       2.152  -4.010  11.624  0.00  0.00    -0.495 OA
ATOM     37  C   UNL     1       3.013  -3.278  12.499  0.00  0.00    +0.277 C 
ENDBRANCH  33  36
ENDBRANCH  29  30
ENDBRANCH   1  29
TORSDOF 7
