REMARK  Name = ZINC02190643
REMARK  12 active torsions:
REMARK  status: ('A' for Active; 'I' for Inactive)
REMARK    1  A    between atoms: C_1  and  C_2
REMARK    2  A    between atoms: C_2  and  C_3
REMARK    3  A    between atoms: C_3  and  O_4
REMARK    4  A    between atoms: O_4  and  C_5
REMARK    5  A    between atoms: C_5  and  C_6
REMARK    6  A    between atoms: C_6  and  O_7
REMARK    7  A    between atoms: O_7  and  C_8
REMARK    8  A    between atoms: C_8  and  C_10
REMARK    9  A    between atoms: C_11  and  C_34
REMARK   10  A    between atoms: C_15  and  C_17
REMARK   11  A    between atoms: C_30  and  C_32
REMARK   12  A    between atoms: C_30  and  C_33
REMARK                            x       y       z     vdW  Elec       q    Type
REMARK                         _______ _______ _______ _____ _____    ______ ____
ROOT
ATOM      1  C   UNL     1      -1.272   2.909   0.419  0.00  0.00    +0.065 C 
ATOM      2  C   UNL     1      -1.208   1.627   0.017  0.00  0.00    +0.016 C 
ATOM      3  N   UNL     1      -0.011   0.966   0.007  0.00  0.00    -0.321 N 
ATOM      4  C   UNL     1       1.169   1.660  -0.000  0.00  0.00    +0.016 C 
ATOM      5  C   UNL     1       1.208   2.950   0.398  0.00  0.00    +0.024 C 
ATOM      6  C   UNL     1      -0.045   3.650   0.862  0.00  0.00    +0.093 C 
ATOM      7  C   UNL     1       2.412   3.674   0.395  0.00  0.00    +0.162 C 
ATOM      8  O   UNL     1       2.409   4.839   0.742  0.00  0.00    -0.292 OA
ATOM      9  C   UNL     1       3.705   3.034  -0.032  0.00  0.00    +0.086 C 
ATOM     10  C   UNL     1       3.636   1.531   0.258  0.00  0.00    -0.023 C 
ATOM     11  C   UNL     1       2.417   0.953  -0.466  0.00  0.00    +0.058 C 
ATOM     12  C   UNL     1       3.495   1.303   1.764  0.00  0.00    +0.011 C 
ATOM     13  C   UNL     1       4.907   0.846  -0.249  0.00  0.00    +0.011 C 
ATOM     14  C   UNL     1      -2.461   0.912  -0.420  0.00  0.00    +0.061 C 
ATOM     15  H   UNL     1       0.010  -0.134   0.006  0.00  0.00    +0.152 HD
ENDROOT
BRANCH   6  16
ATOM     16  C   UNL     1      -0.035   3.735   2.367  0.00  0.00    -0.018 A 
ATOM     17  C   UNL     1       0.007   2.577   3.123  0.00  0.00    +0.055 A 
ATOM     18  C   UNL     1       0.017   2.652   4.506  0.00  0.00    +0.167 A 
ATOM     19  C   UNL     1      -0.016   3.896   5.133  0.00  0.00    +0.167 A 
ATOM     20  C   UNL     1      -0.058   5.051   4.370  0.00  0.00    +0.065 A 
ATOM     21  C   UNL     1      -0.062   4.969   2.989  0.00  0.00    +0.026 A 
ATOM     22 BR   UNL     1      -0.112   6.548   1.950  0.00  0.00    -0.050 Br
ATOM     23  O   UNL     1       0.002   3.704   6.484  0.00  0.00    -0.453 OA
ATOM     24  C   UNL     1      -0.366   2.326   6.681  0.00  0.00    +0.466 C 
ATOM     25  O   UNL     1       0.055   1.682   5.465  0.00  0.00    -0.453 OA
ENDBRANCH   6  16
BRANCH   1  26
ATOM     26  C   UNL     1      -2.521   3.574   0.417  0.00  0.00    +0.338 C 
ATOM     27  O   UNL     1      -3.523   2.985   0.060  0.00  0.00    -0.245 OA
BRANCH  26  28
ATOM     28  O   UNL     1      -2.600   4.862   0.812  0.00  0.00    -0.459 OA
BRANCH  28  29
ATOM     29  C   UNL     1      -3.892   5.471   0.785  0.00  0.00    +0.260 C 
BRANCH  29  30
ATOM     30  C   UNL     1      -3.784   6.920   1.264  0.00  0.00    +0.201 C 
BRANCH  30  31
ATOM     31  O   UNL     1      -2.994   7.669   0.338  0.00  0.00    -0.376 OA
BRANCH  31  32
ATOM     32  C   UNL     1      -2.830   9.043   0.693  0.00  0.00    +0.159 C 
BRANCH  32  34
ATOM     33  C   UNL     1      -1.796  11.216   0.018  0.00  0.00    +0.006 C 
ATOM     34  C   UNL     1      -1.972   9.744  -0.362  0.00  0.00    +0.025 C 
ENDBRANCH  32  34
ENDBRANCH  31  32
ENDBRANCH  30  31
ENDBRANCH  29  30
ENDBRANCH  28  29
ENDBRANCH  26  28
ENDBRANCH   1  26
TORSDOF 8
