REMARK  Name = ZINC06965830
REMARK  4 active torsions:
REMARK  status: ('A' for Active; 'I' for Inactive)
REMARK    1  A    between atoms: C_1  and  C_2
REMARK    2  A    between atoms: C_5  and  C_28
REMARK    3  A    between atoms: C_15  and  C_18
REMARK    4  A    between atoms: C_22  and  N_24
REMARK                            x       y       z     vdW  Elec       q    Type
REMARK                         _______ _______ _______ _____ _____    ______ ____
ROOT
ATOM      1  C   UNL     1      -0.308   4.312  -0.042  0.00  0.00    +0.044 C 
ATOM      2  C   UNL     1      -0.627   2.841   0.044  0.00  0.00    -0.045 A 
ATOM      3  C   UNL     1      -1.936   2.419  -0.076  0.00  0.00    +0.004 A 
ATOM      4  C   UNL     1      -2.237   1.071   0.003  0.00  0.00    +0.005 A 
ATOM      5  C   UNL     1      -1.228   0.154   0.206  0.00  0.00    -0.029 A 
ATOM      6  C   UNL     1       0.095   0.578   0.331  0.00  0.00    +0.035 A 
ATOM      7  C   UNL     1       0.396   1.927   0.251  0.00  0.00    -0.016 A 
ATOM      8  C   UNL     1       1.796   2.452   0.371  0.00  0.00    +0.049 C 
ATOM      9  C   UNL     1       2.303   2.932  -0.970  0.00  0.00    -0.023 C 
ATOM     10  C   UNL     1       3.562   2.610  -1.126  0.00  0.00    -0.030 C 
ATOM     11  C   UNL     1       4.079   1.876   0.096  0.00  0.00    +0.033 C 
ATOM     12  C   UNL     1       2.787   1.338   0.772  0.00  0.00    +0.029 C 
ATOM     13  C   UNL     1       2.390   0.042   0.061  0.00  0.00    +0.105 C 
ATOM     14  N   UNL     1       1.076  -0.391   0.537  0.00  0.00    -0.336 N 
ATOM     15  C   UNL     1      -1.555  -1.314   0.293  0.00  0.00    +0.045 C 
ATOM     16  H   UNL     1       0.810  -1.269   0.117  0.00  0.00    +0.147 HD
ENDROOT
BRANCH  13  17
ATOM     17  C   UNL     1       2.332   0.282  -1.425  0.00  0.00    -0.025 A 
ATOM     18  C   UNL     1       1.115   0.509  -2.042  0.00  0.00    +0.007 A 
ATOM     19  C   UNL     1       1.061   0.730  -3.405  0.00  0.00    +0.022 A 
ATOM     20  C   UNL     1       2.225   0.722  -4.153  0.00  0.00    +0.071 A 
ATOM     21  C   UNL     1       3.442   0.495  -3.536  0.00  0.00    +0.145 A 
ATOM     22  C   UNL     1       3.495   0.281  -2.171  0.00  0.00    +0.039 A 
ATOM     23 CL   UNL     1       2.158   0.999  -5.865  0.00  0.00    -0.081 Cl
BRANCH  21  24
ATOM     24  N   UNL     1       4.687   0.488  -4.336  0.00  0.00    +0.058 N 
ATOM     25  O   UNL     1       5.759   0.287  -3.792  0.00  0.00    -0.126 OA
ATOM     26  O   UNL     1       4.641   0.682  -5.537  0.00  0.00    -0.126 OA
ENDBRANCH  21  24
ENDBRANCH  13  17
TORSDOF 2
