REMARK  Name = ZINC20375547
REMARK  8 active torsions:
REMARK  status: ('A' for Active; 'I' for Inactive)
REMARK    1  A    between atoms: C_1  and  C_2
REMARK    2  A    between atoms: C_2  and  N_3
REMARK    3  A    between atoms: N_3  and  C_4
REMARK    4  A    between atoms: N_3  and  C_6
REMARK    5  A    between atoms: C_4  and  C_5
REMARK    6  A    between atoms: C_9  and  C_12
REMARK    7  A    between atoms: C_20  and  O_40
REMARK    8  A    between atoms: C_24  and  C_26
REMARK                            x       y       z     vdW  Elec       q    Type
REMARK                         _______ _______ _______ _____ _____    ______ ____
ROOT
ATOM      1  C   UNL     1      -1.233   2.025   0.130  0.00  0.00    +0.112 C 
ATOM      2  C   UNL     1      -0.958   2.503   1.565  0.00  0.00    +0.046 C 
ATOM      3  C   UNL     1      -2.144   3.337   2.055  0.00  0.00    +0.008 C 
ATOM      4  C   UNL     1      -1.872   3.827   3.478  0.00  0.00    +0.001 C 
ATOM      5  C   UNL     1      -0.608   4.689   3.486  0.00  0.00    +0.003 C 
ATOM      6  C   UNL     1       0.575   3.860   2.999  0.00  0.00    +0.035 C 
ATOM      7  C   UNL     1       0.310   3.360   1.577  0.00  0.00    +0.072 C 
ATOM      8  C   UNL     1       1.501   2.520   1.109  0.00  0.00    +0.054 C 
ATOM      9  C   UNL     1       1.253   2.043  -0.326  0.00  0.00    +0.111 C 
ATOM     10  N   UNL     1      -0.035   1.338  -0.372  0.00  0.00    -0.293 N 
ATOM     11  C   UNL     1      -0.118   0.089  -0.871  0.00  0.00    +0.228 C 
ATOM     12  O   UNL     1      -1.170  -0.513  -0.828  0.00  0.00    -0.275 OA
ENDROOT
BRANCH  11  13
ATOM     13  C   UNL     1       1.097  -0.560  -1.483  0.00  0.00    +0.142 C 
ATOM     14  C   UNL     1       1.140  -0.246  -2.954  0.00  0.00    +0.011 A 
ATOM     15  C   UNL     1       1.573   1.001  -3.369  0.00  0.00    +0.008 A 
ATOM     16  C   UNL     1       1.620   1.309  -4.715  0.00  0.00    +0.001 A 
ATOM     17  C   UNL     1       1.232   0.370  -5.653  0.00  0.00    +0.004 A 
ATOM     18  C   UNL     1       0.798  -0.875  -5.245  0.00  0.00    +0.046 A 
ATOM     19  C   UNL     1       0.752  -1.189  -3.892  0.00  0.00    +0.133 A 
ATOM     20  O   UNL     1       0.326  -2.417  -3.511  0.00  0.00    -0.455 OA
ATOM     21  C   UNL     1       0.648  -2.898  -2.287  0.00  0.00    +0.133 A 
ATOM     22  C   UNL     1       1.030  -2.047  -1.263  0.00  0.00    +0.011 A 
ATOM     23  C   UNL     1       1.353  -2.564  -0.021  0.00  0.00    +0.008 A 
ATOM     24  C   UNL     1       1.299  -3.927   0.201  0.00  0.00    +0.001 A 
ATOM     25  C   UNL     1       0.919  -4.779  -0.819  0.00  0.00    +0.004 A 
ATOM     26  C   UNL     1       0.594  -4.269  -2.060  0.00  0.00    +0.046 A 
ENDBRANCH  11  13
BRANCH   1  30
ATOM     27  C   UNL     1      -4.542  -0.680   0.126  0.00  0.00    +0.030 A 
ATOM     28  C   UNL     1      -4.533   0.411  -0.734  0.00  0.00    +0.023 A 
ATOM     29  C   UNL     1      -3.462   1.283  -0.730  0.00  0.00    +0.007 A 
ATOM     30  C   UNL     1      -2.400   1.071   0.129  0.00  0.00    -0.027 A 
ATOM     31  C   UNL     1      -2.402  -0.017   0.983  0.00  0.00    +0.007 A 
ATOM     32  C   UNL     1      -3.473  -0.889   0.988  0.00  0.00    +0.023 A 
BRANCH  27  33
ATOM     33  N   UNL     1      -5.624  -1.563   0.125  0.00  0.00    -0.330 N 
BRANCH  33  35
ATOM     34  C   UNL     1      -6.288  -2.314   2.356  0.00  0.00    +0.024 C 
ATOM     35  C   UNL     1      -5.631  -2.713   1.033  0.00  0.00    +0.102 C 
ENDBRANCH  33  35
BRANCH  33  36
ATOM     36  C   UNL     1      -6.751  -1.341  -0.784  0.00  0.00    +0.102 C 
ATOM     37  C   UNL     1      -6.489  -2.062  -2.107  0.00  0.00    +0.024 C 
ENDBRANCH  33  36
ENDBRANCH  27  33
ENDBRANCH   1  30
BRANCH   7  38
ATOM     38  O   UNL     1       0.140   4.476   0.701  0.00  0.00    -0.388 OA
ATOM     39  H   UNL     1       0.952   5.208   0.579  0.00  0.00    +0.210 HD
ENDBRANCH   7  38
TORSDOF 6
