REMARK  Name = ZINC26607726
REMARK  9 active torsions:
REMARK  status: ('A' for Active; 'I' for Inactive)
REMARK    1  A    between atoms: C_4  and  C_6
REMARK    2  A    between atoms: C_7  and  C_8
REMARK    3  A    between atoms: N_10  and  C_11
REMARK    4  A    between atoms: C_12  and  C_36
REMARK    5  A    between atoms: C_14  and  C_17
REMARK    6  A    between atoms: C_19  and  C_33
REMARK    7  A    between atoms: C_20  and  N_23
REMARK    8  A    between atoms: C_24  and  C_26
REMARK    9  A    between atoms: C_27  and  C_28
REMARK                            x       y       z     vdW  Elec       q    Type
REMARK                         _______ _______ _______ _____ _____    ______ ____
ROOT
ATOM      1  C   UNL     1       5.948  -5.070   0.190  0.00  0.00    +0.048 A 
ATOM      2  C   UNL     1       7.319  -5.354   0.314  0.00  0.00    +0.085 A 
ATOM      3  C   UNL     1       7.749  -6.682   0.363  0.00  0.00    +0.025 A 
ATOM      4  C   UNL     1       6.818  -7.711   0.290  0.00  0.00    -0.017 A 
ATOM      5  C   UNL     1       5.458  -7.418   0.167  0.00  0.00    +0.010 A 
ATOM      6  C   UNL     1       5.029  -6.109   0.123  0.00  0.00    +0.025 A 
ENDROOT
BRANCH   4   7
ATOM      7  C   UNL     1       7.271  -9.123   0.341  0.00  0.00    -0.017 A 
ATOM      8  C   UNL     1       6.341 -10.152   0.262  0.00  0.00    +0.025 A 
ATOM      9  C   UNL     1       6.770 -11.480   0.311  0.00  0.00    +0.085 A 
ATOM     10  C   UNL     1       8.141 -11.764   0.440  0.00  0.00    +0.048 A 
ATOM     11  C   UNL     1       9.059 -10.724   0.517  0.00  0.00    +0.025 A 
ATOM     12  C   UNL     1       8.631  -9.415   0.463  0.00  0.00    +0.010 A 
BRANCH  10  13
ATOM     13  N   UNL     1       8.576 -13.082   0.489  0.00  0.00    -0.281 N 
ATOM     14  C   UNL     1       9.630 -13.415   1.261  0.00  0.00    +0.241 C 
ATOM     15  O   UNL     1      10.138 -12.582   1.990  0.00  0.00    -0.270 OA
ATOM     16  H   UNL     1       8.123 -13.763  -0.031  0.00  0.00    +0.155 HD
BRANCH  14  17
ATOM     17  C   UNL     1      10.145 -14.732   1.225  0.00  0.00    +0.071 C 
ATOM     18  C   UNL     1      11.206 -15.067   2.002  0.00  0.00    +0.051 C 
BRANCH  18  19
ATOM     19  C   UNL     1      11.722 -16.385   1.966  0.00  0.00    +0.128 A 
ATOM     20  O   UNL     1      11.260 -17.399   1.204  0.00  0.00    -0.464 OA
ATOM     21  C   UNL     1      11.993 -18.497   1.432  0.00  0.00    +0.195 A 
ATOM     22  C   UNL     1      12.944 -18.211   2.349  0.00  0.00    +0.042 A 
ATOM     23  C   UNL     1      12.790 -16.861   2.698  0.00  0.00    +0.049 A 
ENDBRANCH  18  19
ENDBRANCH  14  17
ENDBRANCH  10  13
BRANCH   9  24
ATOM     24  C   UNL     1       5.792 -12.576   0.229  0.00  0.00    +0.388 C 
ATOM     25  O   UNL     1       4.595 -12.328   0.208  0.00  0.00    -0.241 OA
ATOM     26  O   UNL     1       6.177 -13.736   0.181  0.00  0.00    -0.241 OA
ENDBRANCH   9  24
ENDBRANCH   4   7
BRANCH   1  29
ATOM     27  C   UNL     1       4.343  -3.406   0.716  0.00  0.00    +0.241 C 
ATOM     28  O   UNL     1       3.629  -4.263   1.205  0.00  0.00    -0.270 OA
ATOM     29  N   UNL     1       5.513  -3.751   0.141  0.00  0.00    -0.281 N 
ATOM     30  H   UNL     1       6.050  -3.079  -0.307  0.00  0.00    +0.155 HD
BRANCH  27  32
ATOM     31  C   UNL     1       2.769  -1.701   1.329  0.00  0.00    +0.051 C 
ATOM     32  C   UNL     1       3.946  -2.049   0.751  0.00  0.00    +0.071 C 
BRANCH  31  36
ATOM     33  C   UNL     1       1.230   1.539   1.726  0.00  0.00    +0.042 A 
ATOM     34  C   UNL     1       2.379   1.834   1.078  0.00  0.00    +0.195 A 
ATOM     35  O   UNL     1       3.063   0.701   0.863  0.00  0.00    -0.464 OA
ATOM     36  C   UNL     1       2.371  -0.343   1.365  0.00  0.00    +0.128 A 
ATOM     37  C   UNL     1       1.207   0.149   1.918  0.00  0.00    +0.049 A 
ENDBRANCH  31  36
ENDBRANCH  27  32
ENDBRANCH   1  29
BRANCH   2  38
ATOM     38  C   UNL     1       8.298  -4.257   0.390  0.00  0.00    +0.388 C 
ATOM     39  O   UNL     1       9.496  -4.506   0.399  0.00  0.00    -0.241 OA
ATOM     40  O   UNL     1       7.913  -3.097   0.444  0.00  0.00    -0.241 OA
ENDBRANCH   2  38
TORSDOF 9
