REMARK  Name = ZINC33262783
REMARK  9 active torsions:
REMARK  status: ('A' for Active; 'I' for Inactive)
REMARK    1  A    between atoms: C_1  and  C_2
REMARK    2  A    between atoms: C_2  and  C_3
REMARK    3  A    between atoms: C_2  and  N_4
REMARK    4  A    between atoms: C_8  and  S_13
REMARK    5  A    between atoms: S_13  and  N_16
REMARK    6  A    between atoms: C_20  and  C_23
REMARK    7  A    between atoms: N_25  and  C_26
REMARK    8  A    between atoms: C_26  and  C_27
REMARK    9  A    between atoms: C_27  and  C_28
REMARK                            x       y       z     vdW  Elec       q    Type
REMARK                         _______ _______ _______ _____ _____    ______ ____
ROOT
ATOM      1  N   UNL     1       3.103   0.675  -1.605  0.00  0.00    -0.176 NA
ATOM      2  C   UNL     1       2.672  -0.533  -2.321  0.00  0.00    +0.109 C 
ATOM      3  C   UNL     1       1.946  -0.107  -3.606  0.00  0.00    +0.018 C 
ATOM      4  C   UNL     1       2.860   0.812  -4.420  0.00  0.00    +0.015 C 
ATOM      5  C   UNL     1       3.177   2.069  -3.607  0.00  0.00    +0.091 C 
ATOM      6  C   UNL     1       3.911   1.670  -2.323  0.00  0.00    +0.122 C 
ENDROOT
BRANCH   5   7
ATOM      7  C   UNL     1       4.051   2.988  -4.421  0.00  0.00    +0.217 C 
ATOM      8  O   UNL     1       5.152   3.295  -4.016  0.00  0.00    -0.275 OA
ATOM      9  N   UNL     1       3.608   3.469  -5.600  0.00  0.00    -0.315 N 
ATOM     10  H   UNL     1       2.609   3.191  -5.968  0.00  0.00    +0.149 HD
BRANCH   9  11
ATOM     11  C   UNL     1       4.457   4.362  -6.392  0.00  0.00    +0.108 C 
BRANCH  11  12
ATOM     12  C   UNL     1       3.723   4.760  -7.674  0.00  0.00    +0.049 C 
BRANCH  12  13
ATOM     13  C   UNL     1       4.597   5.679  -8.489  0.00  0.00    -0.072 C 
ATOM     14  C   UNL     1       5.325   5.155  -9.422  0.00  0.00    -0.028 C 
ATOM     15  C   UNL     1       6.250   5.939 -10.306  0.00  0.00    +0.027 C 
ATOM     16  C   UNL     1       5.901   7.427 -10.247  0.00  0.00    +0.004 C 
ATOM     17  C   UNL     1       5.788   7.841  -8.775  0.00  0.00    +0.005 C 
ATOM     18  C   UNL     1       4.564   7.146  -8.172  0.00  0.00    +0.030 C 
ENDBRANCH  12  13
ENDBRANCH  11  12
ENDBRANCH   9  11
ENDBRANCH   5   7
BRANCH   1  19
ATOM     19  S   UNL     1       2.692   0.908  -0.018  0.00  0.00    +0.061 S 
ATOM     20  O   UNL     1       3.663   1.790   0.528  0.00  0.00    -0.153 OA
ATOM     21  O   UNL     1       2.437  -0.378   0.528  0.00  0.00    -0.153 OA
BRANCH  19  26
ATOM     22  N   UNL     1      -2.550   3.552   0.046  0.00  0.00    -0.241 N 
ATOM     23  C   UNL     1      -1.230   3.168   0.031  0.00  0.00    +0.089 A 
ATOM     24  C   UNL     1      -0.023   3.858   0.024  0.00  0.00    +0.031 A 
ATOM     25  C   UNL     1       1.155   3.165   0.008  0.00  0.00    +0.031 A 
ATOM     26  C   UNL     1       1.158   1.776   0.001  0.00  0.00    +0.108 A 
ATOM     27  C   UNL     1      -0.013   1.076   0.008  0.00  0.00    +0.060 A 
ATOM     28  C   UNL     1      -1.234   1.762   0.018  0.00  0.00    +0.115 A 
ATOM     29  N   UNL     1      -2.520   1.356   0.034  0.00  0.00    -0.129 NA
ATOM     30  N   UNL     1      -3.309   2.372   0.047  0.00  0.00    -0.064 NA
BRANCH  22  32
ATOM     31  C   UNL     1      -3.930   5.157  -1.180  0.00  0.00    +0.032 C 
ATOM     32  C   UNL     1      -3.063   4.924   0.059  0.00  0.00    +0.103 C 
ATOM     33  C   UNL     1      -3.905   5.142   1.318  0.00  0.00    +0.032 C 
ENDBRANCH  22  32
ENDBRANCH  19  26
ENDBRANCH   1  19
TORSDOF 7
