REMARK  Name = ZINC23543301
REMARK  7 active torsions:
REMARK  status: ('A' for Active; 'I' for Inactive)
REMARK    1  A    between atoms: C_1  and  C_2
REMARK    2  A    between atoms: C_2  and  C_4
REMARK    3  A    between atoms: C_2  and  S_20
REMARK    4  A    between atoms: C_10  and  C_15
REMARK    5  A    between atoms: S_20  and  C_21
REMARK    6  A    between atoms: C_24  and  C_27
REMARK    7  A    between atoms: N_25  and  N_26
REMARK                            x       y       z     vdW  Elec       q    Type
REMARK                         _______ _______ _______ _____ _____    ______ ____
ROOT
ATOM      1  C   UNL     1       0.731  -0.503   1.223  0.00  0.00    +0.124 A 
ATOM      2  N   UNL     1       2.053  -0.799   1.136  0.00  0.00    -0.309 N 
ATOM      3  H   UNL     1       2.511  -0.685   0.289  0.00  0.00    +0.170 HD
ATOM      4  C   UNL     1       2.741  -1.247   2.203  0.00  0.00    +0.260 A 
ATOM      5  O   UNL     1       3.928  -1.508   2.109  0.00  0.00    -0.267 OA
ATOM      6  C   UNL     1       2.058  -1.412   3.449  0.00  0.00    +0.080 A 
ATOM      7  C   UNL     1       2.576  -1.876   4.732  0.00  0.00    +0.010 A 
ATOM      8  C   UNL     1       1.728  -1.950   5.788  0.00  0.00    +0.057 A 
ATOM      9  S   UNL     1       0.175  -1.397   5.111  0.00  0.00    -0.076 S 
ATOM     10  C   UNL     1       0.693  -1.081   3.443  0.00  0.00    +0.116 A 
ATOM     11  N   UNL     1       0.081  -0.639   2.348  0.00  0.00    -0.225 NA
ENDROOT
BRANCH   7  12
ATOM     12  C   UNL     1       3.997  -2.257   4.877  0.00  0.00    +0.021 A 
ATOM     13  C   UNL     1       4.902  -1.865   5.826  0.00  0.00    +0.016 A 
ATOM     14  C   UNL     1       6.188  -2.359   5.758  0.00  0.00    +0.008 A 
ATOM     15  C   UNL     1       6.516  -3.214   4.756  0.00  0.00    +0.046 A 
ATOM     16  S   UNL     1       4.976  -3.355   3.865  0.00  0.00    -0.097 S 
ENDBRANCH   7  12
BRANCH   1  18
ATOM     17  C   UNL     1      -0.019   1.526   0.010  0.00  0.00    +0.027 C 
ATOM     18  C   UNL     1       0.002  -0.004   0.002  0.00  0.00    +0.117 C 
BRANCH  18  19
ATOM     19  S   UNL     1       0.851  -0.589  -1.490  0.00  0.00    -0.074 S 
BRANCH  19  20
ATOM     20  C   UNL     1      -0.189  -0.057  -2.809  0.00  0.00    +0.209 A 
ATOM     21  N   UNL     1      -1.312   0.614  -2.696  0.00  0.00    -0.121 NA
ATOM     22  N   UNL     1      -1.808   0.835  -3.860  0.00  0.00    -0.123 NA
ATOM     23  C   UNL     1      -1.040   0.322  -4.779  0.00  0.00    +0.255 A 
ATOM     24  N   UNL     1       0.022  -0.259  -4.143  0.00  0.00    -0.220 N 
BRANCH  23  25
ATOM     25  C   UNL     1      -1.274   0.367  -6.267  0.00  0.00    +0.454 C 
ATOM     26  F   UNL     1      -2.252   1.325  -6.556  0.00  0.00    -0.163 F 
ATOM     27  F   UNL     1      -0.082   0.706  -6.916  0.00  0.00    -0.163 F 
ATOM     28  F   UNL     1      -1.705  -0.888  -6.709  0.00  0.00    -0.163 F 
ENDBRANCH  23  25
BRANCH  24  29
ATOM     29  N   UNL     1       1.075  -0.910  -4.721  0.00  0.00    -0.295 N 
ATOM     30  H   UNL     1       0.878  -1.894  -4.827  0.00  0.00    +0.163 HD
ATOM     31  H   UNL     1       1.316  -0.492  -5.607  0.00  0.00    +0.163 HD
ENDBRANCH  24  29
ENDBRANCH  19  20
ENDBRANCH  18  19
ENDBRANCH   1  18
TORSDOF 6
