REMARK  Name = ZINC20504047
REMARK  8 active torsions:
REMARK  status: ('A' for Active; 'I' for Inactive)
REMARK    1  A    between atoms: C_1  and  O_2
REMARK    2  A    between atoms: O_2  and  C_3
REMARK    3  A    between atoms: C_3  and  C_5
REMARK    4  A    between atoms: C_21  and  C_36
REMARK    5  A    between atoms: C_24  and  N_27
REMARK    6  A    between atoms: N_27  and  C_28
REMARK    7  A    between atoms: C_28  and  C_29
REMARK    8  A    between atoms: C_29  and  C_30
REMARK                            x       y       z     vdW  Elec       q    Type
REMARK                         _______ _______ _______ _____ _____    ______ ____
ROOT
ATOM      1  C   UNL     1      -1.244  -2.135   0.003  0.00  0.00    +0.172 C 
ATOM      2  C   UNL     1      -0.665  -2.663  -1.318  0.00  0.00    +0.068 C 
ATOM      3  C   UNL     1      -1.645  -2.350  -2.420  0.00  0.00    -0.016 A 
ATOM      4  C   UNL     1      -1.445  -2.356  -3.852  0.00  0.00    +0.003 A 
ATOM      5  C   UNL     1      -0.337  -2.638  -4.656  0.00  0.00    +0.010 A 
ATOM      6  C   UNL     1      -0.513  -2.541  -6.014  0.00  0.00    +0.001 A 
ATOM      7  C   UNL     1      -1.728  -2.182  -6.574  0.00  0.00    +0.002 A 
ATOM      8  C   UNL     1      -2.841  -1.898  -5.803  0.00  0.00    +0.026 A 
ATOM      9  C   UNL     1      -2.692  -1.988  -4.421  0.00  0.00    +0.047 A 
ATOM     10  N   UNL     1      -3.565  -1.779  -3.391  0.00  0.00    -0.356 N 
ATOM     11  H   UNL     1      -4.493  -1.516  -3.491  0.00  0.00    +0.166 HD
ATOM     12  C   UNL     1      -2.932  -1.996  -2.197  0.00  0.00    +0.038 A 
ATOM     13  C   UNL     1      -3.519  -1.873  -0.813  0.00  0.00    +0.103 C 
ATOM     14  N   UNL     1      -2.638  -2.571   0.134  0.00  0.00    -0.274 NA
ATOM     15  C   UNL     1      -3.127  -2.424   1.510  0.00  0.00    +0.087 C 
ATOM     16  C   UNL     1      -4.510  -3.070   1.627  0.00  0.00    +0.008 C 
ATOM     17  C   UNL     1      -5.472  -2.401   0.643  0.00  0.00    -0.068 C 
ATOM     18  C   UNL     1      -4.911  -2.507  -0.779  0.00  0.00    +0.009 C 
ENDROOT
BRANCH  15  19
ATOM     19  C   UNL     1      -2.172  -3.103   2.458  0.00  0.00    -0.029 A 
ATOM     20  C   UNL     1      -1.596  -4.311   2.112  0.00  0.00    +0.005 A 
ATOM     21  C   UNL     1      -0.720  -4.934   2.982  0.00  0.00    +0.002 A 
ATOM     22  C   UNL     1      -0.420  -4.349   4.198  0.00  0.00    +0.020 A 
ATOM     23  C   UNL     1      -0.996  -3.140   4.545  0.00  0.00    +0.041 A 
ATOM     24  C   UNL     1      -1.868  -2.514   3.671  0.00  0.00    +0.025 A 
ATOM     25 CL   UNL     1      -0.620  -2.406   6.072  0.00  0.00    -0.084 Cl
ENDBRANCH  15  19
BRANCH  17  26
ATOM     26  N   UNL     1      -5.627  -0.983   0.996  0.00  0.00    +0.381 N 
ATOM     27  H   UNL     1      -4.719  -0.544   1.033  0.00  0.00    -0.086 HD
ATOM     28  H   UNL     1      -6.195  -0.523   0.301  0.00  0.00    -0.086 HD
BRANCH  26  29
ATOM     29  C   UNL     1      -6.277  -0.874   2.309  0.00  0.00    -0.076 C 
BRANCH  29  30
ATOM     30  C   UNL     1      -6.439   0.602   2.678  0.00  0.00    +0.038 C 
BRANCH  30  31
ATOM     31  C   UNL     1      -7.105   0.713   4.025  0.00  0.00    +0.057 A 
ATOM     32  C   UNL     1      -6.630   1.388   5.089  0.00  0.00    +0.107 A 
ATOM     33  N   UNL     1      -7.543   1.230   6.097  0.00  0.00    -0.351 N 
ATOM     34  H   UNL     1      -7.482   1.600   6.992  0.00  0.00    +0.166 HD
ATOM     35  C   UNL     1      -8.544   0.464   5.613  0.00  0.00    +0.196 A 
ATOM     36  N   UNL     1      -8.278   0.163   4.372  0.00  0.00    -0.241 NA
ENDBRANCH  30  31
ENDBRANCH  29  30
ENDBRANCH  26  29
ENDBRANCH  17  26
BRANCH   1  37
ATOM     37  C   UNL     1      -1.185  -0.630   0.010  0.00  0.00    +0.325 C 
ATOM     38  O   UNL     1      -2.163   0.011   0.315  0.00  0.00    -0.249 OA
BRANCH  37  40
ATOM     39  C   UNL     1      -0.063   1.428  -0.293  0.00  0.00    +0.280 C 
ATOM     40  O   UNL     1      -0.047  -0.001  -0.322  0.00  0.00    -0.467 OA
ENDBRANCH  37  40
ENDBRANCH   1  37
TORSDOF 7
