REMARK  Name = ZINC36202242
REMARK  13 active torsions:
REMARK  status: ('A' for Active; 'I' for Inactive)
REMARK    1  A    between atoms: C_1  and  O_2
REMARK    2  A    between atoms: O_2  and  C_3
REMARK    3  A    between atoms: C_3  and  C_4
REMARK    4  A    between atoms: C_4  and  C_5
REMARK    5  A    between atoms: C_5  and  N_6
REMARK    6  A    between atoms: N_6  and  C_7
REMARK    7  A    between atoms: N_6  and  C_15
REMARK    8  A    between atoms: C_7  and  C_8
REMARK    9  A    between atoms: C_15  and  C_16
REMARK   10  A    between atoms: C_19  and  C_21
REMARK   11  A    between atoms: C_21  and  C_22
REMARK   12  A    between atoms: C_21  and  C_27
REMARK   13  A    between atoms: C_21  and  O_32
REMARK                            x       y       z     vdW  Elec       q    Type
REMARK                         _______ _______ _______ _____ _____    ______ ____
ROOT
ATOM      1  C   UNL     1       3.536  -4.035  -2.563  0.00  0.00    +0.089 A 
ATOM      2  C   UNL     1       4.370  -4.778  -1.813  0.00  0.00    +0.043 A 
ATOM      3  C   UNL     1       5.566  -4.038  -1.674  0.00  0.00    +0.048 A 
ATOM      4  C   UNL     1       5.392  -2.886  -2.347  0.00  0.00    +0.147 A 
ATOM      5  O   UNL     1       4.163  -2.893  -2.888  0.00  0.00    -0.463 OA
ENDROOT
BRANCH   1   6
ATOM      6  C   UNL     1       2.139  -4.422  -2.973  0.00  0.00    -0.003 C 
BRANCH   6   7
ATOM      7  N   UNL     1       1.198  -4.067  -1.902  0.00  0.00    +0.387 N 
ATOM      8  H   UNL     1       1.502  -4.485  -1.036  0.00  0.00    -0.081 HD
BRANCH   7   9
ATOM      9  C   UNL     1       1.155  -2.606  -1.753  0.00  0.00    -0.076 C 
BRANCH   9  10
ATOM     10  C   UNL     1       0.272  -2.242  -0.558  0.00  0.00    +0.009 C 
BRANCH  10  11
ATOM     11  C   UNL     1       0.226  -0.721  -0.402  0.00  0.00    +0.157 C 
BRANCH  11  13
ATOM     12  C   UNL     1      -0.708   1.025   0.949  0.00  0.00    +0.193 C 
ATOM     13  O   UNL     1      -0.598  -0.380   0.715  0.00  0.00    -0.383 OA
ENDBRANCH  11  13
ENDBRANCH  10  11
ENDBRANCH   9  10
ENDBRANCH   7   9
BRANCH   7  14
ATOM     14  C   UNL     1      -0.142  -4.564  -2.243  0.00  0.00    -0.040 C 
BRANCH  14  15
ATOM     15  C   UNL     1      -0.127  -6.071  -2.268  0.00  0.00    -0.029 A 
ATOM     16  C   UNL     1      -0.110  -6.742  -3.476  0.00  0.00    +0.004 A 
ATOM     17  C   UNL     1      -0.096  -8.124  -3.499  0.00  0.00    +0.000 A 
ATOM     18  C   UNL     1      -0.100  -8.837  -2.314  0.00  0.00    +0.003 A 
ATOM     19  C   UNL     1      -0.116  -8.168  -1.105  0.00  0.00    +0.038 A 
ATOM     20  C   UNL     1      -0.125  -6.783  -1.081  0.00  0.00    +0.125 A 
ATOM     21  F   UNL     1      -0.137  -6.128   0.101  0.00  0.00    -0.205 F 
ENDBRANCH  14  15
ENDBRANCH   7  14
ENDBRANCH   6   7
ENDBRANCH   1   6
BRANCH   4  22
ATOM     22  C   UNL     1       6.406  -1.779  -2.476  0.00  0.00    +0.186 C 
BRANCH  22  23
ATOM     23  C   UNL     1       6.208  -1.068  -3.790  0.00  0.00    +0.034 A 
ATOM     24  C   UNL     1       7.125  -0.445  -4.570  0.00  0.00    +0.015 A 
ATOM     25  C   UNL     1       6.712   0.146  -5.749  0.00  0.00    +0.008 A 
ATOM     26  C   UNL     1       5.401   0.086  -6.090  0.00  0.00    +0.045 A 
ATOM     27  S   UNL     1       4.706  -0.833  -4.727  0.00  0.00    -0.098 S 
ENDBRANCH  22  23
BRANCH  22  28
ATOM     28  C   UNL     1       6.229  -0.800  -1.344  0.00  0.00    +0.034 A 
ATOM     29  C   UNL     1       7.156  -0.018  -0.739  0.00  0.00    +0.015 A 
ATOM     30  C   UNL     1       6.761   0.814   0.291  0.00  0.00    +0.008 A 
ATOM     31  C   UNL     1       5.459   0.823   0.667  0.00  0.00    +0.045 A 
ATOM     32  S   UNL     1       4.743  -0.366  -0.456  0.00  0.00    -0.098 S 
ENDBRANCH  22  28
BRANCH  22  33
ATOM     33  O   UNL     1       7.723  -2.331  -2.427  0.00  0.00    -0.371 OA
ATOM     34  H   UNL     1       7.921  -2.805  -1.608  0.00  0.00    +0.212 HD
ENDBRANCH  22  33
ENDBRANCH   4  22
TORSDOF 12
