REMARK  Name = ZINC20837133
REMARK  10 active torsions:
REMARK  status: ('A' for Active; 'I' for Inactive)
REMARK    1  A    between atoms: C_1  and  C_2
REMARK    2  A    between atoms: C_2  and  C_3
REMARK    3  A    between atoms: C_2  and  C_4
REMARK    4  A    between atoms: C_2  and  C_5
REMARK    5  A    between atoms: N_7  and  N_8
REMARK    6  A    between atoms: C_9  and  C_11
REMARK    7  A    between atoms: C_11  and  S_12
REMARK    8  A    between atoms: S_12  and  C_13
REMARK    9  A    between atoms: N_18  and  N_19
REMARK   10  A    between atoms: C_20  and  C_21
REMARK                            x       y       z     vdW  Elec       q    Type
REMARK                         _______ _______ _______ _____ _____    ______ ____
ROOT
ATOM      1  C   UNL     1       9.374   0.522  -0.410  0.00  0.00    +0.211 A 
ATOM      2  N   UNL     1       8.473  -0.498  -0.290  0.00  0.00    -0.186 NA
ATOM      3  C   UNL     1       7.220   0.046  -0.264  0.00  0.00    +0.232 A 
ATOM      4  N   UNL     1       7.340   1.347  -0.369  0.00  0.00    -0.245 N 
ATOM      5  N   UNL     1       8.705   1.649  -0.455  0.00  0.00    -0.144 NA
ATOM      6  N   UNL     1       6.027  -0.657  -0.152  0.00  0.00    -0.205 N 
ATOM      7  H   UNL     1       6.041  -1.754  -0.075  0.00  0.00    +0.177 HD
ATOM      8  H   UNL     1       6.443   1.983  -0.375  0.00  0.00    +0.192 HD
ENDROOT
BRANCH   6   9
ATOM      9  N   UNL     1       4.807   0.031  -0.138  0.00  0.00    -0.188 NA
ATOM     10  C   UNL     1       3.708  -0.617  -0.035  0.00  0.00    +0.139 C 
BRANCH  10  11
ATOM     11  C   UNL     1       2.425   0.107  -0.020  0.00  0.00    +0.002 A 
ATOM     12  C   UNL     1       1.155  -0.641  -0.029  0.00  0.00    +0.010 A 
ATOM     13  C   UNL     1       0.002  -0.004  -0.014  0.00  0.00    +0.009 A 
ATOM     14  C   UNL     1      -0.018   1.468   0.010  0.00  0.00    -0.017 A 
ATOM     15  C   UNL     1      -1.290   2.210   0.020  0.00  0.00    +0.009 A 
ATOM     16  C   UNL     1      -1.287   3.529   0.050  0.00  0.00    +0.009 A 
ATOM     17  C   UNL     1      -0.011   4.264   0.056  0.00  0.00    -0.017 A 
ATOM     18  C   UNL     1       0.016   5.737   0.079  0.00  0.00    +0.008 A 
ATOM     19  C   UNL     1       1.173   6.368   0.086  0.00  0.00    +0.001 A 
ATOM     20  C   UNL     1       2.439   5.614   0.069  0.00  0.00    +0.008 A 
ATOM     21  C   UNL     1       2.418   4.299   0.048  0.00  0.00    -0.017 A 
ATOM     22  C   UNL     1       1.120   3.600   0.041  0.00  0.00    -0.002 A 
ATOM     23  C   UNL     1       1.116   2.128   0.017  0.00  0.00    -0.002 A 
ATOM     24  C   UNL     1       2.410   1.422   0.002  0.00  0.00    -0.008 A 
ATOM     25  C   UNL     1       3.657   2.201   0.011  0.00  0.00    +0.010 A 
ATOM     26  C   UNL     1       3.660   3.513   0.032  0.00  0.00    +0.009 A 
ENDBRANCH  10  11
ENDBRANCH   6   9
BRANCH   1  27
ATOM     27  S   UNL     1      11.126   0.353  -0.489  0.00  0.00    -0.075 S 
BRANCH  27  28
ATOM     28  C   UNL     1      11.725   2.059  -0.641  0.00  0.00    +0.174 C 
BRANCH  28  30
ATOM     29  N   UNL     1      13.899   3.221  -0.838  0.00  0.00    -0.234 N 
ATOM     30  C   UNL     1      13.230   2.058  -0.720  0.00  0.00    +0.239 C 
ATOM     31  O   UNL     1      13.838   1.010  -0.678  0.00  0.00    -0.273 OA
ATOM     32  H   UNL     1      13.347   4.172  -0.876  0.00  0.00    +0.173 HD
BRANCH  29  35
ATOM     33  C   UNL     1      15.968   4.384  -1.028  0.00  0.00    +0.234 C 
ATOM     34  O   UNL     1      15.359   5.432  -1.070  0.00  0.00    -0.274 OA
ATOM     35  N   UNL     1      15.298   3.220  -0.911  0.00  0.00    -0.234 N 
ATOM     36  H   UNL     1      15.850   2.270  -0.872  0.00  0.00    +0.173 HD
BRANCH  33  38
ATOM     37  C   UNL     1      17.978   5.822  -1.235  0.00  0.00    +0.020 C 
ATOM     38  C   UNL     1      17.473   4.383  -1.107  0.00  0.00    +0.040 C 
ATOM     39  C   UNL     1      18.049   3.751   0.162  0.00  0.00    +0.020 C 
ATOM     40  C   UNL     1      17.919   3.575  -2.327  0.00  0.00    +0.020 C 
ENDBRANCH  33  38
ENDBRANCH  29  35
ENDBRANCH  28  30
ENDBRANCH  27  28
ENDBRANCH   1  27
TORSDOF 7
