REMARK  Name = ZINC13498672
REMARK  13 active torsions:
REMARK  status: ('A' for Active; 'I' for Inactive)
REMARK    1  A    between atoms: C_1  and  C_2
REMARK    2  A    between atoms: C_2  and  C_3
REMARK    3  A    between atoms: C_2  and  C_4
REMARK    4  A    between atoms: C_4  and  C_6
REMARK    5  A    between atoms: C_4  and  N_17
REMARK    6  A    between atoms: N_10  and  C_11
REMARK    7  A    between atoms: C_11  and  C_12
REMARK    8  A    between atoms: N_17  and  C_18
REMARK    9  A    between atoms: N_17  and  C_25
REMARK   10  A    between atoms: C_18  and  C_19
REMARK   11  A    between atoms: C_25  and  C_26
REMARK   12  A    between atoms: C_30  and  O_38
REMARK   13  A    between atoms: O_38  and  C_39
REMARK                            x       y       z     vdW  Elec       q    Type
REMARK                         _______ _______ _______ _____ _____    ______ ____
ROOT
ATOM      1  N   UNL     1      -2.047   0.378  -1.255  0.00  0.00    -0.284 NA
ENDROOT
BRANCH   1   2
ATOM      2  C   UNL     1      -1.941   0.027   0.168  0.00  0.00    +0.130 C 
BRANCH   2   3
ATOM      3  C   UNL     1      -2.901   0.872   0.966  0.00  0.00    +0.169 A 
ATOM      4  N   UNL     1      -2.777   2.146   1.245  0.00  0.00    -0.112 NA
ATOM      5  N   UNL     1      -3.799   2.502   1.944  0.00  0.00    -0.023 NA
ATOM      6  N   UNL     1      -4.572   1.487   2.119  0.00  0.00    -0.043 NA
ATOM      7  N   UNL     1      -4.056   0.464   1.526  0.00  0.00    -0.220 N 
BRANCH   7   8
ATOM      8  C   UNL     1      -4.618  -0.887   1.475  0.00  0.00    +0.221 C 
BRANCH   8   9
ATOM      9  C   UNL     1      -4.228  -1.641   2.720  0.00  0.00    +0.126 A 
ATOM     10  C   UNL     1      -4.972  -1.758   3.835  0.00  0.00    +0.046 A 
ATOM     11  C   UNL     1      -4.227  -2.543   4.744  0.00  0.00    +0.041 A 
ATOM     12  C   UNL     1      -3.073  -2.860   4.131  0.00  0.00    +0.195 A 
ATOM     13  O   UNL     1      -3.081  -2.316   2.903  0.00  0.00    -0.466 OA
ENDBRANCH   8   9
ENDBRANCH   7   8
ENDBRANCH   2   3
BRANCH   2  15
ATOM     14  C   UNL     1      -0.139   1.744   0.384  0.00  0.00    +0.009 C 
ATOM     15  C   UNL     1      -0.513   0.284   0.651  0.00  0.00    +0.008 C 
ATOM     16  C   UNL     1      -0.423   0.002   2.152  0.00  0.00    +0.009 C 
ENDBRANCH   2  15
ENDBRANCH   1   2
BRANCH   1  17
ATOM     17  C   UNL     1      -3.453   0.509  -1.661  0.00  0.00    +0.120 C 
BRANCH  17  18
ATOM     18  C   UNL     1      -3.541   1.368  -2.897  0.00  0.00    -0.033 A 
ATOM     19  C   UNL     1      -3.587   2.744  -2.780  0.00  0.00    +0.005 A 
ATOM     20  C   UNL     1      -3.668   3.532  -3.913  0.00  0.00    +0.000 A 
ATOM     21  C   UNL     1      -3.701   2.943  -5.163  0.00  0.00    +0.000 A 
ATOM     22  C   UNL     1      -3.654   1.566  -5.280  0.00  0.00    +0.000 A 
ATOM     23  C   UNL     1      -3.569   0.779  -4.147  0.00  0.00    +0.005 A 
ENDBRANCH  17  18
ENDBRANCH   1  17
BRANCH   1  24
ATOM     24  C   UNL     1      -1.347  -0.604  -2.093  0.00  0.00    +0.126 C 
BRANCH  24  25
ATOM     25  C   UNL     1      -1.858  -1.987  -1.780  0.00  0.00    +0.031 A 
ATOM     26  C   UNL     1      -2.842  -2.530  -2.538  0.00  0.00    +0.020 A 
ATOM     27  C   UNL     1      -3.317  -3.876  -2.208  0.00  0.00    +0.002 A 
ATOM     28  C   UNL     1      -4.330  -4.487  -2.955  0.00  0.00    +0.055 A 
ATOM     29  C   UNL     1      -4.753  -5.757  -2.617  0.00  0.00    +0.121 A 
ATOM     30  C   UNL     1      -4.178  -6.427  -1.540  0.00  0.00    +0.047 A 
ATOM     31  C   UNL     1      -3.180  -5.835  -0.798  0.00  0.00    +0.030 A 
ATOM     32  C   UNL     1      -2.738  -4.557  -1.121  0.00  0.00    +0.049 A 
ATOM     33  N   UNL     1      -1.739  -3.947  -0.390  0.00  0.00    -0.322 N 
ATOM     34  H   UNL     1      -1.340  -4.417   0.360  0.00  0.00    +0.169 HD
ATOM     35  C   UNL     1      -1.306  -2.714  -0.704  0.00  0.00    +0.254 A 
ATOM     36  O   UNL     1      -0.418  -2.208  -0.039  0.00  0.00    -0.268 OA
BRANCH  29  37
ATOM     37  O   UNL     1      -5.738  -6.356  -3.338  0.00  0.00    -0.495 OA
ATOM     38  C   UNL     1      -6.129  -7.670  -2.936  0.00  0.00    +0.277 C 
ENDBRANCH  29  37
ENDBRANCH  24  25
ENDBRANCH   1  24
TORSDOF 10
