REMARK  Name = ZINC20570684
REMARK  10 active torsions:
REMARK  status: ('A' for Active; 'I' for Inactive)
REMARK    1  A    between atoms: C_1  and  C_2
REMARK    2  A    between atoms: C_5  and  S_8
REMARK    3  A    between atoms: S_8  and  N_11
REMARK    4  A    between atoms: N_11  and  C_12
REMARK    5  A    between atoms: C_16  and  C_18
REMARK    6  A    between atoms: N_20  and  C_21
REMARK    7  A    between atoms: C_22  and  C_32
REMARK    8  A    between atoms: C_27  and  C_31
REMARK    9  A    between atoms: C_32  and  O_34
REMARK   10  A    between atoms: O_34  and  C_35
REMARK                            x       y       z     vdW  Elec       q    Type
REMARK                         _______ _______ _______ _____ _____    ______ ____
ROOT
ATOM      1  C   UNL     1      -5.843  -9.193   0.208  0.00  0.00    +0.049 A 
ATOM      2  C   UNL     1      -5.003 -10.196   0.678  0.00  0.00    +0.024 A 
ATOM      3  C   UNL     1      -3.707  -9.899   1.053  0.00  0.00    +0.003 A 
ATOM      4  C   UNL     1      -3.237  -8.604   0.964  0.00  0.00    +0.013 A 
ATOM      5  C   UNL     1      -4.072  -7.590   0.492  0.00  0.00    +0.039 A 
ATOM      6  C   UNL     1      -5.382  -7.888   0.119  0.00  0.00    +0.037 A 
ENDROOT
BRANCH   5   7
ATOM      7  C   UNL     1      -3.571  -6.202   0.396  0.00  0.00    +0.249 C 
ATOM      8  O   UNL     1      -4.300  -5.320  -0.015  0.00  0.00    -0.270 OA
ATOM      9  N   UNL     1      -2.307  -5.915   0.763  0.00  0.00    -0.275 N 
ATOM     10  H   UNL     1      -1.647  -6.713   1.134  0.00  0.00    +0.156 HD
BRANCH   9  11
ATOM     11  C   UNL     1      -1.837  -4.615   0.672  0.00  0.00    +0.087 A 
ATOM     12  C   UNL     1      -0.579  -4.127   0.999  0.00  0.00    +0.091 A 
ATOM     13  C   UNL     1      -0.340  -2.706   0.809  0.00  0.00    -0.021 A 
ATOM     14  C   UNL     1      -1.390  -2.006   0.327  0.00  0.00    -0.004 A 
ATOM     15  S   UNL     1      -2.678  -3.203   0.124  0.00  0.00    -0.077 S 
ATOM     16  C   UNL     1      -1.437  -0.538   0.031  0.00  0.00    +0.046 C 
ATOM     17  C   UNL     1       0.002  -0.004   0.002  0.00  0.00    -0.009 C 
ATOM     18  C   UNL     1       0.742  -0.514   1.242  0.00  0.00    +0.008 C 
ATOM     19  C   UNL     1       0.984  -2.020   1.120  0.00  0.00    +0.037 C 
ATOM     20  C   UNL     1      -0.019   1.526   0.010  0.00  0.00    +0.008 C 
BRANCH  12  21
ATOM     21  C   UNL     1       0.468  -5.011   1.516  0.00  0.00    +0.342 C 
ATOM     22  O   UNL     1       0.575  -5.191   2.714  0.00  0.00    -0.245 OA
BRANCH  21  23
ATOM     23  O   UNL     1       1.314  -5.624   0.663  0.00  0.00    -0.464 OA
ATOM     24  C   UNL     1       2.327  -6.486   1.246  0.00  0.00    +0.280 C 
ENDBRANCH  21  23
ENDBRANCH  12  21
ENDBRANCH   9  11
ENDBRANCH   5   7
BRANCH   1  25
ATOM     25  N   UNL     1      -7.153  -9.499  -0.170  0.00  0.00    -0.216 N 
ATOM     26  H   UNL     1      -7.564  -9.092  -1.106  0.00  0.00    +0.174 HD
BRANCH  25  27
ATOM     27  S   UNL     1      -8.086 -10.473   0.790  0.00  0.00    +0.072 S 
ATOM     28  O   UNL     1      -9.355 -10.571   0.158  0.00  0.00    -0.150 OA
ATOM     29  O   UNL     1      -7.298 -11.614   1.099  0.00  0.00    -0.150 OA
BRANCH  27  34
ATOM     30  C   UNL     1      -8.973  -7.534   5.985  0.00  0.00    +0.044 C 
ATOM     31  C   UNL     1      -8.751  -8.268   4.688  0.00  0.00    -0.050 A 
ATOM     32  C   UNL     1      -9.638  -8.103   3.640  0.00  0.00    +0.005 A 
ATOM     33  C   UNL     1      -9.435  -8.777   2.450  0.00  0.00    +0.029 A 
ATOM     34  C   UNL     1      -8.345  -9.614   2.307  0.00  0.00    +0.109 A 
ATOM     35  C   UNL     1      -7.461  -9.783   3.356  0.00  0.00    +0.029 A 
ATOM     36  C   UNL     1      -7.661  -9.106   4.545  0.00  0.00    +0.005 A 
ENDBRANCH  27  34
ENDBRANCH  25  27
ENDBRANCH   1  25
TORSDOF 7
