REMARK  Name = ZINC38688979
REMARK  14 active torsions:
REMARK  status: ('A' for Active; 'I' for Inactive)
REMARK    1  A    between atoms: C_1  and  C_2
REMARK    2  A    between atoms: C_2  and  O_3
REMARK    3  A    between atoms: O_3  and  C_4
REMARK    4  A    between atoms: C_9  and  C_34
REMARK    5  A    between atoms: C_11  and  N_14
REMARK    6  A    between atoms: C_15  and  C_17
REMARK    7  A    between atoms: C_17  and  N_18
REMARK    8  A    between atoms: N_21  and  C_26
REMARK    9  A    between atoms: C_23  and  C_25
REMARK   10  A    between atoms: C_29  and  O_32
REMARK   11  A    between atoms: O_32  and  C_33
REMARK   12  A    between atoms: C_34  and  O_36
REMARK   13  A    between atoms: O_36  and  C_37
REMARK   14  A    between atoms: C_37  and  C_38
REMARK                            x       y       z     vdW  Elec       q    Type
REMARK                         _______ _______ _______ _____ _____    ______ ____
ROOT
ATOM      1  N   UNL     1      -4.881  -5.250  -1.232  0.00  0.00    -0.285 N 
ATOM      2  C   UNL     1      -5.825  -4.360  -0.863  0.00  0.00    +0.231 C 
ATOM      3  O   UNL     1      -5.605  -3.171  -0.953  0.00  0.00    -0.274 OA
ATOM      4  H   UNL     1      -5.070  -6.200  -1.195  0.00  0.00    +0.155 HD
ENDROOT
BRANCH   1  11
ATOM      5  C   UNL     1      -1.118  -7.481  -2.282  0.00  0.00    +0.121 A 
ATOM      6  C   UNL     1      -0.071  -6.639  -2.682  0.00  0.00    +0.047 A 
ATOM      7  C   UNL     1      -0.216  -5.293  -2.733  0.00  0.00    +0.029 A 
ATOM      8  C   UNL     1      -1.456  -4.701  -2.377  0.00  0.00    +0.045 A 
ATOM      9  N   UNL     1      -1.843  -3.441  -2.344  0.00  0.00    -0.367 N 
ATOM     10  C   UNL     1      -3.238  -3.381  -1.898  0.00  0.00    +0.234 C 
ATOM     11  C   UNL     1      -3.662  -4.812  -1.657  0.00  0.00    +0.053 C 
ATOM     12  C   UNL     1      -2.555  -5.587  -1.958  0.00  0.00    +0.021 A 
ATOM     13  C   UNL     1      -2.334  -6.986  -1.932  0.00  0.00    +0.057 A 
ATOM     14  H   UNL     1      -1.292  -2.677  -2.576  0.00  0.00    +0.161 HD
BRANCH  10  15
ATOM     15  C   UNL     1      -4.098  -2.756  -2.967  0.00  0.00    +0.336 C 
ATOM     16  O   UNL     1      -3.966  -3.092  -4.121  0.00  0.00    -0.248 OA
BRANCH  15  17
ATOM     17  O   UNL     1      -5.009  -1.827  -2.639  0.00  0.00    -0.463 OA
BRANCH  17  18
ATOM     18  C   UNL     1      -5.789  -1.278  -3.703  0.00  0.00    +0.229 C 
ATOM     19  C   UNL     1      -6.765  -0.244  -3.139  0.00  0.00    +0.048 C 
ENDBRANCH  17  18
ENDBRANCH  15  17
ENDBRANCH  10  15
BRANCH   5  20
ATOM     20  O   UNL     1      -0.913  -8.826  -2.250  0.00  0.00    -0.492 OA
BRANCH  20  22
ATOM     21  C   UNL     1       0.422 -10.820  -2.529  0.00  0.00    +0.048 C 
ATOM     22  C   UNL     1       0.383  -9.294  -2.627  0.00  0.00    +0.225 C 
ENDBRANCH  20  22
ENDBRANCH   5  20
ENDBRANCH   1  11
BRANCH   2  23
ATOM     23  C   UNL     1      -7.152  -4.844  -0.338  0.00  0.00    +0.181 C 
BRANCH  23  24
ATOM     24  N   UNL     1      -7.960  -3.693   0.085  0.00  0.00    -0.288 NA
ATOM     25  C   UNL     1      -9.394  -3.965  -0.088  0.00  0.00    +0.104 C 
ATOM     26  C   UNL     1     -10.190  -2.685   0.190  0.00  0.00    +0.120 C 
ATOM     27  N   UNL     1      -9.809  -2.175   1.516  0.00  0.00    -0.327 N 
ATOM     28  C   UNL     1      -8.378  -2.007   1.811  0.00  0.00    +0.123 C 
ATOM     29  C   UNL     1      -7.653  -3.313   1.470  0.00  0.00    +0.071 C 
ATOM     30  C   UNL     1      -6.143  -3.114   1.621  0.00  0.00    +0.026 C 
BRANCH  27  31
ATOM     31  C   UNL     1     -10.781  -1.859   2.470  0.00  0.00    +0.030 A 
ATOM     32  C   UNL     1     -10.409  -1.272   3.673  0.00  0.00    +0.027 A 
ATOM     33  C   UNL     1     -11.370  -0.960   4.615  0.00  0.00    +0.047 A 
ATOM     34  C   UNL     1     -12.706  -1.232   4.360  0.00  0.00    +0.120 A 
ATOM     35  C   UNL     1     -13.078  -1.818   3.159  0.00  0.00    +0.047 A 
ATOM     36  C   UNL     1     -12.120  -2.126   2.214  0.00  0.00    +0.027 A 
BRANCH  34  37
ATOM     37  O   UNL     1     -13.651  -0.924   5.288  0.00  0.00    -0.495 OA
ATOM     38  C   UNL     1     -15.008  -1.232   4.959  0.00  0.00    +0.277 C 
ENDBRANCH  34  37
ENDBRANCH  27  31
ENDBRANCH  23  24
ENDBRANCH   2  23
TORSDOF 10
