REMARK  Name = ZINC63361873
REMARK  10 active torsions:
REMARK  status: ('A' for Active; 'I' for Inactive)
REMARK    1  A    between atoms: C_1  and  C_2
REMARK    2  A    between atoms: C_2  and  C_3
REMARK    3  A    between atoms: C_2  and  O_4
REMARK    4  A    between atoms: O_4  and  C_5
REMARK    5  A    between atoms: C_5  and  C_6
REMARK    6  A    between atoms: C_6  and  C_7
REMARK    7  A    between atoms: C_7  and  N_8
REMARK    8  A    between atoms: C_9  and  C_11
REMARK    9  A    between atoms: C_16  and  N_17
REMARK   10  A    between atoms: C_20  and  C_36
REMARK                            x       y       z     vdW  Elec       q    Type
REMARK                         _______ _______ _______ _____ _____    ______ ____
ROOT
ATOM      1  N   UNL     1      -5.825  -7.553  -2.921  0.00  0.00    -0.192 N 
ATOM      2  C   UNL     1      -5.122  -8.530  -2.311  0.00  0.00    +0.253 C 
ATOM      3  O   UNL     1      -5.150  -8.827  -1.136  0.00  0.00    -0.272 OA
ATOM      4  C   UNL     1      -4.293  -9.176  -3.398  0.00  0.00    +0.137 C 
ATOM      5  C   UNL     1      -2.804  -9.076  -3.072  0.00  0.00    +0.139 C 
ATOM      6  C   UNL     1      -2.185  -8.109  -4.070  0.00  0.00    -0.034 C 
ATOM      7  C   UNL     1      -1.589  -7.162  -3.349  0.00  0.00    -0.001 A 
ATOM      8  C   UNL     1      -0.776  -6.001  -3.744  0.00  0.00    +0.010 A 
ATOM      9  C   UNL     1      -0.322  -5.216  -2.732  0.00  0.00    +0.001 A 
ATOM     10  C   UNL     1      -0.593  -5.467  -1.383  0.00  0.00    +0.002 A 
ATOM     11  C   UNL     1      -1.328  -6.513  -0.930  0.00  0.00    +0.026 A 
ATOM     12  C   UNL     1      -1.856  -7.413  -1.901  0.00  0.00    +0.043 A 
ATOM     13  N   UNL     1      -2.572  -8.504  -1.744  0.00  0.00    -0.375 N 
ATOM     14  C   UNL     1      -2.335  -8.241  -5.566  0.00  0.00    +0.052 C 
ATOM     15  C   UNL     1      -3.841  -8.402  -5.854  0.00  0.00    +0.115 C 
ATOM     16  N   UNL     1      -4.555  -8.326  -4.577  0.00  0.00    -0.268 N 
ATOM     17  C   UNL     1      -5.525  -7.470  -4.225  0.00  0.00    +0.317 C 
ATOM     18  O   UNL     1      -6.067  -6.704  -4.997  0.00  0.00    -0.252 OA
ATOM     19  C   UNL     1      -4.728 -10.622  -3.644  0.00  0.00    +0.044 C 
ATOM     20  H   UNL     1      -2.896  -8.868  -0.905  0.00  0.00    +0.160 HD
ENDROOT
BRANCH   1  26
ATOM     21  C   UNL     1      -6.345  -5.525  -1.697  0.00  0.00    +0.059 A 
ATOM     22  C   UNL     1      -7.285  -4.712  -1.060  0.00  0.00    +0.015 A 
ATOM     23  C   UNL     1      -8.604  -5.105  -0.998  0.00  0.00    +0.001 A 
ATOM     24  C   UNL     1      -9.004  -6.303  -1.567  0.00  0.00    +0.002 A 
ATOM     25  C   UNL     1      -8.086  -7.117  -2.200  0.00  0.00    +0.025 A 
ATOM     26  C   UNL     1      -6.754  -6.734  -2.276  0.00  0.00    +0.058 A 
BRANCH  21  28
ATOM     27  N   UNL     1      -4.541  -3.946  -1.209  0.00  0.00    -0.311 N 
ATOM     28  C   UNL     1      -4.930  -5.110  -1.767  0.00  0.00    +0.246 C 
ATOM     29  O   UNL     1      -4.116  -5.818  -2.327  0.00  0.00    -0.270 OA
ATOM     30  H   UNL     1      -5.191  -3.381  -0.762  0.00  0.00    +0.149 HD
BRANCH  27  31
ATOM     31  C   UNL     1      -3.137  -3.534  -1.278  0.00  0.00    +0.107 C 
BRANCH  31  32
ATOM     32  C   UNL     1      -2.965  -2.187  -0.574  0.00  0.00    +0.047 C 
BRANCH  32  33
ATOM     33  C   UNL     1      -1.499  -1.757  -0.646  0.00  0.00    +0.161 C 
BRANCH  33  34
ATOM     34  O   UNL     1      -1.339  -0.499   0.012  0.00  0.00    -0.377 OA
BRANCH  34  36
ATOM     35  C   UNL     1      -0.019   1.526   0.010  0.00  0.00    +0.037 C 
ATOM     36  C   UNL     1       0.002  -0.004   0.002  0.00  0.00    +0.112 C 
ATOM     37  C   UNL     1       0.742  -0.511   1.242  0.00  0.00    +0.037 C 
ENDBRANCH  34  36
ENDBRANCH  33  34
ENDBRANCH  32  33
ENDBRANCH  31  32
ENDBRANCH  27  31
ENDBRANCH  21  28
ENDBRANCH   1  26
TORSDOF 7
