REMARK  Name = ZINC35558148
REMARK  6 active torsions:
REMARK  status: ('A' for Active; 'I' for Inactive)
REMARK    1  A    between atoms: C_5  and  N_7
REMARK    2  A    between atoms: C_8  and  C_10
REMARK    3  A    between atoms: N_13  and  S_16
REMARK    4  A    between atoms: S_16  and  C_19
REMARK    5  A    between atoms: C_21  and  C_24
REMARK    6  A    between atoms: C_26  and  C_29
REMARK                            x       y       z     vdW  Elec       q    Type
REMARK                         _______ _______ _______ _____ _____    ______ ____
ROOT
ATOM      1  C   UNL     1       0.117  -4.269   0.191  0.00  0.00    +0.078 C 
ATOM      2  C   UNL     1       0.788  -4.852  -1.054  0.00  0.00    +0.030 C 
ATOM      3  C   UNL     1       0.849  -6.378  -0.929  0.00  0.00    +0.110 C 
ATOM      4  N   UNL     1      -0.506  -6.887  -0.680  0.00  0.00    -0.176 NA
ATOM      5  C   UNL     1      -1.276  -6.327   0.440  0.00  0.00    +0.110 C 
ATOM      6  C   UNL     1      -1.313  -4.802   0.299  0.00  0.00    +0.030 C 
ENDROOT
BRANCH   1   8
ATOM      7  N   UNL     1       1.237  -2.073  -0.019  0.00  0.00    -0.285 N 
ATOM      8  C   UNL     1       0.086  -2.766   0.087  0.00  0.00    +0.220 C 
ATOM      9  O   UNL     1      -0.976  -2.179   0.098  0.00  0.00    -0.275 OA
ATOM     10  H   UNL     1       2.080  -2.545  -0.108  0.00  0.00    +0.155 HD
BRANCH   7  15
ATOM     11  C   UNL     1       0.152   1.371   0.639  0.00  0.00    +0.002 A 
ATOM     12  C   UNL     1       1.172   2.080   0.036  0.00  0.00    +0.004 A 
ATOM     13  C   UNL     1       2.221   1.418  -0.589  0.00  0.00    -0.042 A 
ATOM     14  C   UNL     1       2.248   0.043  -0.605  0.00  0.00    -0.023 A 
ATOM     15  C   UNL     1       1.216  -0.674   0.001  0.00  0.00    +0.037 A 
ATOM     16  C   UNL     1       0.171  -0.009   0.622  0.00  0.00    +0.023 A 
ATOM     17  C   UNL     1       3.362  -0.740  -1.250  0.00  0.00    +0.037 C 
ATOM     18  C   UNL     1       4.153   0.144  -2.212  0.00  0.00    +0.005 C 
ATOM     19  C   UNL     1       4.553   1.426  -1.473  0.00  0.00    +0.005 C 
ATOM     20  C   UNL     1       3.295   2.257  -1.233  0.00  0.00    +0.035 C 
ENDBRANCH   7  15
ENDBRANCH   1   8
BRANCH   4  21
ATOM     21  S   UNL     1      -1.155  -8.068  -1.643  0.00  0.00    +0.067 S 
ATOM     22  O   UNL     1      -2.567  -7.947  -1.539  0.00  0.00    -0.152 OA
ATOM     23  O   UNL     1      -0.473  -7.996  -2.888  0.00  0.00    -0.152 OA
BRANCH  21  24
ATOM     24  C   UNL     1      -0.728  -9.619  -0.924  0.00  0.00    +0.143 A 
ATOM     25  C   UNL     1      -1.410 -10.347  -0.011  0.00  0.00    +0.048 A 
ATOM     26  C   UNL     1      -0.826 -11.551   0.382  0.00  0.00    +0.031 A 
ATOM     27  C   UNL     1       0.369 -11.898  -0.172  0.00  0.00    +0.058 A 
ATOM     28  S   UNL     1       0.709 -10.630  -1.220  0.00  0.00    -0.076 S 
BRANCH  26  29
ATOM     29  C   UNL     1      -1.487 -12.429   1.377  0.00  0.00    +0.203 A 
ATOM     30  N   UNL     1      -1.009 -13.603   1.828  0.00  0.00    -0.191 NA
ATOM     31  C   UNL     1      -1.835 -14.117   2.695  0.00  0.00    +0.231 A 
ATOM     32  O   UNL     1      -2.877 -13.287   2.832  0.00  0.00    -0.337 OA
ATOM     33  N   UNL     1      -2.632 -12.188   1.969  0.00  0.00    -0.056 NA
BRANCH  31  34
ATOM     34  C   UNL     1      -1.648 -15.424   3.420  0.00  0.00    +0.078 C 
ATOM     35  C   UNL     1      -2.825 -15.949   4.245  0.00  0.00    +0.014 C 
ATOM     36  C   UNL     1      -1.590 -15.382   4.949  0.00  0.00    +0.014 C 
ENDBRANCH  31  34
ENDBRANCH  26  29
ENDBRANCH  21  24
ENDBRANCH   4  21
TORSDOF 6
