REMARK  Name = ZINC53065486
REMARK  5 active torsions:
REMARK  status: ('A' for Active; 'I' for Inactive)
REMARK    1  A    between atoms: C_1  and  C_2
REMARK    2  A    between atoms: N_12  and  C_13
REMARK    3  A    between atoms: C_13  and  C_14
REMARK    4  A    between atoms: N_16  and  C_17
REMARK    5  A    between atoms: C_22  and  C_23
REMARK                            x       y       z     vdW  Elec       q    Type
REMARK                         _______ _______ _______ _____ _____    ______ ____
ROOT
ATOM      1  C   UNL     1       0.705   1.043   3.078  0.00  0.00    +0.235 C 
ATOM      2  O   UNL     1      -0.479   0.791   3.152  0.00  0.00    -0.274 OA
ATOM      3  N   UNL     1       1.264   1.917   3.939  0.00  0.00    -0.284 N 
ATOM      4  H   UNL     1       2.221   2.069   3.922  0.00  0.00    +0.155 HD
ENDROOT
BRANCH   3   5
ATOM      5  C   UNL     1       0.465   2.600   4.853  0.00  0.00    +0.046 A 
ATOM      6  C   UNL     1      -0.639   1.977   5.419  0.00  0.00    +0.024 A 
ATOM      7  C   UNL     1      -1.429   2.656   6.324  0.00  0.00    +0.002 A 
ATOM      8  C   UNL     1      -1.128   3.962   6.676  0.00  0.00    +0.001 A 
ATOM      9  C   UNL     1      -0.036   4.597   6.125  0.00  0.00    +0.015 A 
ATOM     10  C   UNL     1       0.776   3.921   5.212  0.00  0.00    +0.058 A 
BRANCH  10  11
ATOM     11  C   UNL     1       1.950   4.592   4.623  0.00  0.00    +0.243 C 
ATOM     12  O   UNL     1       2.595   4.038   3.754  0.00  0.00    -0.270 OA
ATOM     13  N   UNL     1       2.309   5.820   5.049  0.00  0.00    -0.325 N 
ATOM     14  H   UNL     1       1.794   6.261   5.743  0.00  0.00    +0.145 HD
ATOM     15  H   UNL     1       3.081   6.261   4.662  0.00  0.00    +0.145 HD
ENDBRANCH  10  11
ENDBRANCH   3   5
BRANCH   1  16
ATOM     16  C   UNL     1       1.552   0.380   2.023  0.00  0.00    +0.201 C 
BRANCH  16  27
ATOM     17  C   UNL     1       0.028   1.503   0.011  0.00  0.00    +0.028 C 
ATOM     18  C   UNL     1       0.040  -0.026   0.012  0.00  0.00    +0.071 C 
ATOM     19  C   UNL     1      -1.399  -0.557   0.032  0.00  0.00    +0.027 C 
ATOM     20  C   UNL     1      -1.363  -2.084  -0.037  0.00  0.00    +0.039 C 
ATOM     21  C   UNL     1      -0.438  -2.638   1.014  0.00  0.00    -0.026 A 
ATOM     22  C   UNL     1      -0.583  -3.958   1.407  0.00  0.00    +0.005 A 
ATOM     23  C   UNL     1       0.253  -4.495   2.366  0.00  0.00    +0.000 A 
ATOM     24  C   UNL     1       1.241  -3.718   2.941  0.00  0.00    +0.002 A 
ATOM     25  C   UNL     1       1.393  -2.401   2.556  0.00  0.00    +0.023 A 
ATOM     26  C   UNL     1       0.552  -1.857   1.591  0.00  0.00    +0.034 A 
ATOM     27  N   UNL     1       0.717  -0.518   1.220  0.00  0.00    -0.318 N 
ENDBRANCH  16  27
ENDBRANCH   1  16
TORSDOF 4
