REMARK  Name = ZINC67172199
REMARK  2 active torsions:
REMARK  status: ('A' for Active; 'I' for Inactive)
REMARK    1  A    between atoms: C_1  and  C_2
REMARK    2  A    between atoms: C_3  and  C_10
REMARK                            x       y       z     vdW  Elec       q    Type
REMARK                         _______ _______ _______ _____ _____    ______ ____
ROOT
ATOM      1  C   UNL     1      -0.018   1.503   0.010  0.00  0.00    +0.050 C 
ATOM      2  C   UNL     1       0.002  -0.004   0.002  0.00  0.00    +0.029 A 
ATOM      3  C   UNL     1      -1.181  -0.722   0.004  0.00  0.00    +0.086 A 
ATOM      4  C   UNL     1      -1.122  -2.134  -0.005  0.00  0.00    +0.048 A 
ATOM      5  C   UNL     1       0.079  -2.758  -0.014  0.00  0.00    +0.102 A 
ATOM      6  N   UNL     1       1.236  -2.049  -0.015  0.00  0.00    -0.328 N 
ATOM      7  C   UNL     1       1.227  -0.703  -0.013  0.00  0.00    +0.252 A 
ATOM      8  O   UNL     1       2.280  -0.087  -0.020  0.00  0.00    -0.268 OA
ATOM      9 BR   UNL     1      -2.718  -3.148  -0.002  0.00  0.00    -0.048 Br
ATOM     10  H   UNL     1       2.084  -2.521  -0.022  0.00  0.00    +0.168 HD
ENDROOT
BRANCH   3  11
ATOM     11  C   UNL     1      -2.488  -0.022   0.015  0.00  0.00    +0.388 C 
ATOM     12  O   UNL     1      -2.526   1.199   0.022  0.00  0.00    -0.241 OA
ATOM     13  O   UNL     1      -3.526  -0.666   0.016  0.00  0.00    -0.241 OA
ENDBRANCH   3  11
TORSDOF 1
