REMARK  Name = ZINC35290388
REMARK  4 active torsions:
REMARK  status: ('A' for Active; 'I' for Inactive)
REMARK    1  A    between atoms: C_1  and  C_2
REMARK    2  A    between atoms: C_5  and  C_8
REMARK    3  A    between atoms: C_10  and  C_13
REMARK    4  A    between atoms: N_22  and  C_23
REMARK                            x       y       z     vdW  Elec       q    Type
REMARK                         _______ _______ _______ _____ _____    ______ ____
ROOT
ATOM      1  C   UNL     1       0.576  -8.133   1.102  0.00  0.00    +0.166 C 
ATOM      2  C   UNL     1       1.647  -9.226   1.165  0.00  0.00    +0.032 C 
ATOM      3  C   UNL     1       1.327 -10.184   2.314  0.00  0.00    +0.004 C 
ATOM      4  C   UNL     1      -0.029 -10.850   2.063  0.00  0.00    +0.019 C 
ATOM      5  C   UNL     1      -1.119  -9.775   2.011  0.00  0.00    +0.110 C 
ATOM      6  N   UNL     1      -0.746  -8.767   1.008  0.00  0.00    -0.274 N 
ATOM      7  C   UNL     1      -1.599  -8.434   0.019  0.00  0.00    +0.307 C 
ATOM      8  O   UNL     1      -1.252  -7.651  -0.844  0.00  0.00    -0.252 OA
ATOM      9  N   UNL     1      -2.836  -8.969  -0.013  0.00  0.00    -0.267 N 
ATOM     10  H   UNL     1      -3.136  -9.540   0.711  0.00  0.00    +0.156 HD
ENDROOT
BRANCH   9  11
ATOM     11  C   UNL     1      -3.688  -8.699  -1.093  0.00  0.00    +0.070 A 
ATOM     12  C   UNL     1      -3.550  -7.518  -1.809  0.00  0.00    +0.029 A 
ATOM     13  C   UNL     1      -4.391  -7.255  -2.874  0.00  0.00    +0.040 A 
ATOM     14  C   UNL     1      -5.370  -8.167  -3.227  0.00  0.00    +0.126 A 
ATOM     15  C   UNL     1      -5.511  -9.346  -2.515  0.00  0.00    +0.078 A 
ATOM     16  C   UNL     1      -4.668  -9.617  -1.452  0.00  0.00    +0.147 A 
ATOM     17  F   UNL     1      -4.801 -10.770  -0.761  0.00  0.00    -0.203 F 
ATOM     18  F   UNL     1      -6.191  -7.906  -4.268  0.00  0.00    -0.205 F 
ENDBRANCH   9  11
BRANCH   1  21
ATOM     19  C   UNL     1       1.107  -5.520  -1.360  0.00  0.00    +0.202 A 
ATOM     20  N   UNL     1       0.897  -5.967  -0.109  0.00  0.00    -0.190 NA
ATOM     21  C   UNL     1       0.808  -7.266  -0.109  0.00  0.00    +0.248 A 
ATOM     22  O   UNL     1       0.958  -7.703  -1.366  0.00  0.00    -0.336 OA
ATOM     23  N   UNL     1       1.148  -6.549  -2.171  0.00  0.00    -0.056 NA
BRANCH  19  28
ATOM     24  C   UNL     1       1.700  -0.003  -2.902  0.00  0.00    +0.044 C 
ATOM     25  C   UNL     1       1.545  -1.446  -2.498  0.00  0.00    -0.050 A 
ATOM     26  C   UNL     1       1.610  -2.441  -3.458  0.00  0.00    +0.004 A 
ATOM     27  C   UNL     1       1.468  -3.764  -3.094  0.00  0.00    +0.012 A 
ATOM     28  C   UNL     1       1.260  -4.098  -1.758  0.00  0.00    +0.022 A 
ATOM     29  C   UNL     1       1.196  -3.093  -0.795  0.00  0.00    +0.012 A 
ATOM     30  C   UNL     1       1.344  -1.772  -1.169  0.00  0.00    +0.004 A 
ENDBRANCH  19  28
ENDBRANCH   1  21
TORSDOF 3
