REMARK  Name = ZINC38897784
REMARK  7 active torsions:
REMARK  status: ('A' for Active; 'I' for Inactive)
REMARK    1  A    between atoms: C_1  and  C_2
REMARK    2  A    between atoms: C_3  and  C_31
REMARK    3  A    between atoms: C_4  and  C_23
REMARK    4  A    between atoms: C_10  and  C_11
REMARK    5  A    between atoms: C_27  and  O_29
REMARK    6  A    between atoms: O_29  and  C_30
REMARK    7  A    between atoms: N_33  and  C_34
REMARK                            x       y       z     vdW  Elec       q    Type
REMARK                         _______ _______ _______ _____ _____    ______ ____
ROOT
ATOM      1  C   UNL     1      -0.036   0.605  -0.878  0.00  0.00    +0.066 C 
ATOM      2  C   UNL     1      -0.144  -0.690  -0.114  0.00  0.00    +0.051 C 
ATOM      3  C   UNL     1      -1.362  -1.110   0.335  0.00  0.00    +0.063 C 
ATOM      4  C   UNL     1      -1.428  -2.414   1.096  0.00  0.00    +0.160 C 
ATOM      5  N   UNL     1      -0.147  -3.148   1.300  0.00  0.00    -0.275 N 
ATOM      6  C   UNL     1      -0.003  -4.313   1.945  0.00  0.00    +0.268 A 
ATOM      7  O   UNL     1      -0.959  -4.882   2.435  0.00  0.00    -0.266 OA
ATOM      8  C   UNL     1       1.357  -4.884   2.041  0.00  0.00    +0.080 A 
ATOM      9  C   UNL     1       1.778  -6.054   2.642  0.00  0.00    +0.026 C 
ATOM     10  S   UNL     1       2.309  -3.649   1.169  0.00  0.00    -0.046 S 
ATOM     11  C   UNL     1       0.969  -2.546   0.764  0.00  0.00    +0.178 A 
ATOM     12  N   UNL     1       0.947  -1.415   0.110  0.00  0.00    -0.228 NA
ENDROOT
BRANCH   9  13
ATOM     13  C   UNL     1       3.128  -6.407   2.614  0.00  0.00    -0.018 C 
ATOM     14  C   UNL     1       3.714  -7.547   3.163  0.00  0.00    +0.003 A 
ATOM     15  C   UNL     1       3.183  -8.643   3.876  0.00  0.00    +0.010 A 
ATOM     16  C   UNL     1       4.009  -9.634   4.300  0.00  0.00    +0.001 A 
ATOM     17  C   UNL     1       5.385  -9.600   4.049  0.00  0.00    +0.002 A 
ATOM     18  C   UNL     1       5.963  -8.581   3.372  0.00  0.00    +0.026 A 
ATOM     19  C   UNL     1       5.163  -7.506   2.895  0.00  0.00    +0.043 A 
ATOM     20  N   UNL     1       5.476  -6.419   2.225  0.00  0.00    -0.380 N 
ATOM     21  C   UNL     1       4.263  -5.635   1.976  0.00  0.00    +0.149 C 
ATOM     22  H   UNL     1       6.370  -6.177   1.936  0.00  0.00    +0.160 HD
ENDBRANCH   9  13
BRANCH   4  23
ATOM     23  C   UNL     1      -2.018  -2.129   2.453  0.00  0.00    -0.016 A 
ATOM     24  C   UNL     1      -1.263  -1.483   3.414  0.00  0.00    +0.006 A 
ATOM     25  C   UNL     1      -1.802  -1.221   4.660  0.00  0.00    +0.004 A 
ATOM     26  C   UNL     1      -3.098  -1.604   4.947  0.00  0.00    +0.045 A 
ATOM     27  C   UNL     1      -3.858  -2.252   3.985  0.00  0.00    +0.120 A 
ATOM     28  C   UNL     1      -3.317  -2.509   2.734  0.00  0.00    +0.051 A 
BRANCH  27  29
ATOM     29  O   UNL     1      -5.133  -2.630   4.266  0.00  0.00    -0.495 OA
ATOM     30  C   UNL     1      -5.627  -2.327   5.572  0.00  0.00    +0.277 C 
ENDBRANCH  27  29
ENDBRANCH   4  23
BRANCH   3  31
ATOM     31  C   UNL     1      -2.524  -0.350   0.097  0.00  0.00    +0.248 C 
ATOM     32  O   UNL     1      -3.297  -0.680  -0.786  0.00  0.00    -0.270 OA
ATOM     33  N   UNL     1      -2.781   0.741   0.845  0.00  0.00    -0.282 N 
ATOM     34  H   UNL     1      -2.127   1.052   1.489  0.00  0.00    +0.155 HD
BRANCH  33  35
ATOM     35  C   UNL     1      -3.992   1.424   0.692  0.00  0.00    +0.034 A 
ATOM     36  C   UNL     1      -4.543   1.588  -0.572  0.00  0.00    +0.023 A 
ATOM     37  C   UNL     1      -5.739   2.264  -0.719  0.00  0.00    +0.002 A 
ATOM     38  C   UNL     1      -6.387   2.776   0.390  0.00  0.00    +0.000 A 
ATOM     39  C   UNL     1      -5.840   2.615   1.650  0.00  0.00    +0.002 A 
ATOM     40  C   UNL     1      -4.648   1.935   1.805  0.00  0.00    +0.023 A 
ENDBRANCH  33  35
ENDBRANCH   3  31
TORSDOF 5
