REMARK  Name = ZINC14464374
REMARK  5 active torsions:
REMARK  status: ('A' for Active; 'I' for Inactive)
REMARK    1  A    between atoms: C_1  and  C_2
REMARK    2  A    between atoms: C_2  and  C_4
REMARK    3  A    between atoms: C_4  and  O_5
REMARK    4  A    between atoms: O_5  and  C_6
REMARK    5  A    between atoms: C_19  and  C_22
REMARK                            x       y       z     vdW  Elec       q    Type
REMARK                         _______ _______ _______ _____ _____    ______ ____
ROOT
ATOM      1  C   UNL     1       1.027  -0.728   0.014  0.00  0.00    +0.121 A 
ATOM      2  C   UNL     1       2.251  -0.075   0.014  0.00  0.00    +0.047 A 
ATOM      3  C   UNL     1       2.288   1.305   0.014  0.00  0.00    +0.027 A 
ATOM      4  C   UNL     1       1.104   2.034   0.015  0.00  0.00    +0.032 A 
ATOM      5  C   UNL     1      -0.119   1.388   0.019  0.00  0.00    -0.016 A 
ATOM      6  C   UNL     1      -0.150  -0.000   0.016  0.00  0.00    +0.051 A 
ATOM      7  C   UNL     1      -1.432   2.124   0.033  0.00  0.00    +0.049 C 
ATOM      8  C   UNL     1      -2.177   1.705   1.292  0.00  0.00    -0.023 C 
ATOM      9  C   UNL     1      -1.988   2.580   2.248  0.00  0.00    -0.030 C 
ATOM     10  C   UNL     1      -1.094   3.708   1.765  0.00  0.00    +0.033 C 
ATOM     11  C   UNL     1      -1.253   3.640   0.228  0.00  0.00    +0.029 C 
ATOM     12  C   UNL     1      -0.014   4.166  -0.472  0.00  0.00    +0.105 C 
ATOM     13  N   UNL     1       1.165   3.435   0.005  0.00  0.00    -0.336 N 
ATOM     14  H   UNL     1       1.960   3.904   0.303  0.00  0.00    +0.147 HD
ENDROOT
BRANCH  12  15
ATOM     15  C   UNL     1      -0.158   3.971  -1.960  0.00  0.00    -0.019 A 
ATOM     16  C   UNL     1       0.489   2.948  -2.582  0.00  0.00    +0.006 A 
ATOM     17  C   UNL     1       0.363   2.748  -3.955  0.00  0.00    +0.001 A 
ATOM     18  C   UNL     1      -0.400   3.579  -4.717  0.00  0.00    +0.008 A 
ATOM     19  C   UNL     1      -1.078   4.650  -4.111  0.00  0.00    -0.018 A 
ATOM     20  C   UNL     1      -0.955   4.849  -2.713  0.00  0.00    -0.013 A 
ATOM     21  C   UNL     1      -1.633   5.922  -2.108  0.00  0.00    +0.009 A 
ATOM     22  C   UNL     1      -2.396   6.752  -2.870  0.00  0.00    +0.001 A 
ATOM     23  C   UNL     1      -2.516   6.557  -4.245  0.00  0.00    +0.001 A 
ATOM     24  C   UNL     1      -1.875   5.529  -4.865  0.00  0.00    +0.008 A 
ENDBRANCH  12  15
BRANCH   1  25
ATOM     25  O   UNL     1       0.984  -2.088   0.010  0.00  0.00    -0.488 OA
BRANCH  25  26
ATOM     26  C   UNL     1       2.236  -2.776   0.008  0.00  0.00    +0.259 C 
BRANCH  26  28
ATOM     27  C   UNL     1       3.157  -5.219   0.001  0.00  0.00    +0.042 C 
ATOM     28  C   UNL     1       1.992  -4.263   0.004  0.00  0.00    -0.043 C 
ATOM     29  C   UNL     1       0.766  -4.726   0.004  0.00  0.00    +0.011 C 
ENDBRANCH  26  28
ENDBRANCH  25  26
ENDBRANCH   1  25
TORSDOF 4
