REMARK  Name = ZINC13273611
REMARK  7 active torsions:
REMARK  status: ('A' for Active; 'I' for Inactive)
REMARK    1  A    between atoms: C_4  and  N_7
REMARK    2  A    between atoms: C_13  and  C_31
REMARK    3  A    between atoms: C_17  and  S_18
REMARK    4  A    between atoms: S_18  and  C_19
REMARK    5  A    between atoms: C_22  and  S_27
REMARK    6  A    between atoms: C_24  and  C_25
REMARK    7  A    between atoms: S_27  and  N_30
REMARK                            x       y       z     vdW  Elec       q    Type
REMARK                         _______ _______ _______ _____ _____    ______ ____
ROOT
ATOM      1  N   UNL     1       5.978   4.714   0.239  0.00  0.00    -0.255 N 
ATOM      2  C   UNL     1       7.225   4.854   0.747  0.00  0.00    +0.267 A 
ATOM      3  O   UNL     1       7.593   5.906   1.235  0.00  0.00    -0.267 OA
ATOM      4  C   UNL     1       8.119   3.687   0.686  0.00  0.00    +0.065 A 
ATOM      5  C   UNL     1       9.421   3.737   1.184  0.00  0.00    +0.016 A 
ATOM      6  C   UNL     1      10.221   2.633   1.108  0.00  0.00    +0.016 A 
ATOM      7  C   UNL     1       9.746   1.446   0.535  0.00  0.00    +0.065 A 
ATOM      8  C   UNL     1       8.452   1.374   0.033  0.00  0.00    +0.043 A 
ATOM      9  C   UNL     1       7.625   2.498   0.105  0.00  0.00    +0.080 A 
ATOM     10  N   UNL     1       6.356   2.472  -0.368  0.00  0.00    -0.222 NA
ATOM     11  C   UNL     1       5.580   3.525  -0.307  0.00  0.00    +0.181 A 
ENDROOT
BRANCH   1  15
ATOM     12  C   UNL     1       3.332   7.932   0.338  0.00  0.00    +0.000 A 
ATOM     13  C   UNL     1       4.231   7.809  -0.707  0.00  0.00    +0.002 A 
ATOM     14  C   UNL     1       5.109   6.744  -0.742  0.00  0.00    +0.026 A 
ATOM     15  C   UNL     1       5.089   5.796   0.272  0.00  0.00    +0.052 A 
ATOM     16  C   UNL     1       4.183   5.919   1.317  0.00  0.00    +0.026 A 
ATOM     17  C   UNL     1       3.311   6.990   1.349  0.00  0.00    +0.002 A 
ENDBRANCH   1  15
BRANCH   7  18
ATOM     18  C   UNL     1      10.628   0.260   0.464  0.00  0.00    +0.387 C 
ATOM     19  O   UNL     1      10.221  -0.771  -0.033  0.00  0.00    -0.241 OA
ATOM     20  O   UNL     1      11.883   0.325   0.949  0.00  0.00    -0.241 OA
ENDBRANCH   7  18
BRANCH  11  21
ATOM     21  S   UNL     1       3.945   3.402  -0.952  0.00  0.00    -0.050 S 
BRANCH  21  22
ATOM     22  C   UNL     1       4.009   1.782  -1.642  0.00  0.00    +0.030 A 
ATOM     23  C   UNL     1       3.447   0.710  -0.960  0.00  0.00    +0.018 A 
ATOM     24  C   UNL     1       3.504  -0.558  -1.500  0.00  0.00    +0.029 A 
ATOM     25  C   UNL     1       4.114  -0.773  -2.726  0.00  0.00    +0.106 A 
ATOM     26  C   UNL     1       4.672   0.278  -3.420  0.00  0.00    +0.044 A 
ATOM     27  C   UNL     1       4.623   1.569  -2.887  0.00  0.00    +0.079 A 
BRANCH  27  28
ATOM     28  C   UNL     1       5.218   2.698  -3.623  0.00  0.00    +0.388 C 
ATOM     29  O   UNL     1       5.173   3.819  -3.156  0.00  0.00    -0.241 OA
ATOM     30  O   UNL     1       5.811   2.487  -4.815  0.00  0.00    -0.241 OA
ENDBRANCH  27  28
BRANCH  25  31
ATOM     31  S   UNL     1       4.177  -2.400  -3.400  0.00  0.00    +0.056 S 
ATOM     32  O   UNL     1       3.104  -3.124  -2.814  0.00  0.00    -0.153 OA
ATOM     33  O   UNL     1       4.317  -2.252  -4.806  0.00  0.00    -0.153 OA
BRANCH  31  34
ATOM     34  N   UNL     1       5.575  -3.102  -2.856  0.00  0.00    -0.204 NA
ATOM     35  H   UNL     1       6.172  -2.606  -2.275  0.00  0.00    +0.144 HD
ATOM     36  H   UNL     1       5.796  -4.009  -3.119  0.00  0.00    +0.144 HD
ENDBRANCH  31  34
ENDBRANCH  25  31
ENDBRANCH  21  22
ENDBRANCH  11  21
TORSDOF 7
