REMARK  Name = ZINC02256809
REMARK  4 active torsions:
REMARK  status: ('A' for Active; 'I' for Inactive)
REMARK    1  A    between atoms: C_1  and  S_2
REMARK    2  A    between atoms: S_2  and  C_3
REMARK    3  A    between atoms: C_6  and  C_29
REMARK    4  A    between atoms: C_17  and  C_19
REMARK                            x       y       z     vdW  Elec       q    Type
REMARK                         _______ _______ _______ _____ _____    ______ ____
ROOT
ATOM      1  C   UNL     1       0.993   0.095  -1.700  0.00  0.00    +0.210 A 
ATOM      2  N   UNL     1       1.139  -1.161  -2.060  0.00  0.00    -0.141 NA
ATOM      3  N   UNL     1       1.854  -1.156  -3.258  0.00  0.00    -0.220 N 
ATOM      4  C   UNL     1       2.280  -2.272  -4.094  0.00  0.00    +0.179 C 
ATOM      5  C   UNL     1       3.292  -1.804  -5.111  0.00  0.00    +0.026 C 
ATOM      6  C   UNL     1       3.511  -0.511  -5.355  0.00  0.00    +0.050 C 
ATOM      7  C   UNL     1       4.532  -0.147  -6.367  0.00  0.00    +0.038 A 
ATOM      8  C   UNL     1       4.584   1.125  -6.922  0.00  0.00    +0.013 A 
ATOM      9  C   UNL     1       5.555   1.420  -7.860  0.00  0.00    +0.001 A 
ATOM     10  C   UNL     1       6.470   0.455  -8.244  0.00  0.00    +0.004 A 
ATOM     11  C   UNL     1       6.424  -0.815  -7.697  0.00  0.00    +0.046 A 
ATOM     12  C   UNL     1       5.457  -1.123  -6.759  0.00  0.00    +0.131 A 
ATOM     13  O   UNL     1       5.375  -2.358  -6.201  0.00  0.00    -0.479 OA
ATOM     14  C   UNL     1       4.071  -2.843  -5.885  0.00  0.00    +0.234 C 
ATOM     15  N   UNL     1       2.818   0.503  -4.684  0.00  0.00    -0.283 N 
ATOM     16  C   UNL     1       2.106   0.144  -3.551  0.00  0.00    +0.220 A 
ATOM     17  N   UNL     1       1.577   0.883  -2.614  0.00  0.00    -0.187 NA
ATOM     18  H   UNL     1       2.836   1.421  -4.999  0.00  0.00    +0.155 HD
ENDROOT
BRANCH  14  19
ATOM     19  C   UNL     1       3.338  -3.166  -7.161  0.00  0.00    -0.003 A 
ATOM     20  C   UNL     1       3.344  -2.263  -8.208  0.00  0.00    +0.010 A 
ATOM     21  C   UNL     1       2.672  -2.558  -9.380  0.00  0.00    +0.039 A 
ATOM     22  C   UNL     1       1.992  -3.758  -9.503  0.00  0.00    +0.123 A 
ATOM     23  C   UNL     1       1.986  -4.661  -8.454  0.00  0.00    +0.039 A 
ATOM     24  C   UNL     1       2.663  -4.366  -7.286  0.00  0.00    +0.010 A 
ATOM     25  F   UNL     1       1.335  -4.048 -10.648  0.00  0.00    -0.205 F 
ENDBRANCH  14  19
BRANCH   4  26
ATOM     26  C   UNL     1       1.085  -2.845  -4.811  0.00  0.00    +0.019 A 
ATOM     27  C   UNL     1       0.573  -4.098  -4.750  0.00  0.00    +0.013 A 
ATOM     28  C   UNL     1      -0.545  -4.403  -5.503  0.00  0.00    +0.008 A 
ATOM     29  C   UNL     1      -1.097  -3.439  -6.280  0.00  0.00    +0.045 A 
ATOM     30  S   UNL     1      -0.030  -2.046  -5.953  0.00  0.00    -0.099 S 
ENDBRANCH   4  26
BRANCH   1  32
ATOM     31  C   UNL     1       0.295   2.460  -0.335  0.00  0.00    +0.093 C 
ATOM     32  S   UNL     1       0.156   0.653  -0.253  0.00  0.00    -0.088 S 
ENDBRANCH   1  32
TORSDOF 3
