REMARK  Name = ZINC09382009
REMARK  9 active torsions:
REMARK  status: ('A' for Active; 'I' for Inactive)
REMARK    1  A    between atoms: C_1  and  C_2
REMARK    2  A    between atoms: C_5  and  C_36
REMARK    3  A    between atoms: C_6  and  N_8
REMARK    4  A    between atoms: C_9  and  C_25
REMARK    5  A    between atoms: C_12  and  S_13
REMARK    6  A    between atoms: S_13  and  C_14
REMARK    7  A    between atoms: C_14  and  C_15
REMARK    8  A    between atoms: C_19  and  C_21
REMARK    9  A    between atoms: C_25  and  C_26
REMARK                            x       y       z     vdW  Elec       q    Type
REMARK                         _______ _______ _______ _____ _____    ______ ____
ROOT
ATOM      1  N   UNL     1      -0.138   8.683  -2.321  0.00  0.00    -0.274 N 
ATOM      2  C   UNL     1      -0.148   9.862  -1.624  0.00  0.00    +0.144 A 
ATOM      3  N   UNL     1      -0.132   9.562  -0.356  0.00  0.00    -0.133 NA
ATOM      4  N   UNL     1      -0.118   8.286  -0.203  0.00  0.00    -0.122 NA
ATOM      5  C   UNL     1      -0.116   7.695  -1.375  0.00  0.00    +0.196 A 
ENDROOT
BRANCH   1  11
ATOM      6  C   UNL     1      -2.671   8.164  -6.506  0.00  0.00    +0.044 C 
ATOM      7  C   UNL     1      -1.362   8.268  -5.767  0.00  0.00    -0.048 A 
ATOM      8  C   UNL     1      -0.169   8.205  -6.463  0.00  0.00    +0.004 A 
ATOM      9  C   UNL     1       1.034   8.301  -5.788  0.00  0.00    +0.005 A 
ATOM     10  C   UNL     1       1.048   8.459  -4.416  0.00  0.00    -0.026 A 
ATOM     11  C   UNL     1      -0.148   8.522  -3.715  0.00  0.00    +0.053 A 
ATOM     12  C   UNL     1      -1.355   8.420  -4.394  0.00  0.00    +0.030 A 
ATOM     13  C   UNL     1       2.359   8.563  -3.681  0.00  0.00    +0.046 C 
ENDBRANCH   1  11
BRANCH   5  14
ATOM     14  S   UNL     1      -0.095   5.958  -1.674  0.00  0.00    -0.081 S 
BRANCH  14  15
ATOM     15  C   UNL     1      -0.070   5.347   0.030  0.00  0.00    +0.112 C 
BRANCH  15  16
ATOM     16  C   UNL     1      -0.050   3.840   0.022  0.00  0.00    -0.037 A 
ATOM     17  C   UNL     1       1.157   3.165   0.008  0.00  0.00    +0.004 A 
ATOM     18  C   UNL     1       1.175   1.783   0.000  0.00  0.00    +0.001 A 
ATOM     19  C   UNL     1      -0.013   1.076   0.008  0.00  0.00    +0.012 A 
ATOM     20  C   UNL     1      -1.219   1.750   0.017  0.00  0.00    +0.055 A 
ATOM     21  C   UNL     1      -1.238   3.133   0.030  0.00  0.00    +0.016 A 
BRANCH  20  22
ATOM     22  C   UNL     1      -2.514   0.979   0.019  0.00  0.00    +0.417 C 
ATOM     23  F   UNL     1      -2.239  -0.392   0.010  0.00  0.00    -0.166 F 
ATOM     24  F   UNL     1      -3.246   1.301   1.167  0.00  0.00    -0.166 F 
ATOM     25  F   UNL     1      -3.257   1.314  -1.118  0.00  0.00    -0.166 F 
ENDBRANCH  20  22
ENDBRANCH  15  16
ENDBRANCH  14  15
ENDBRANCH   5  14
BRANCH   2  26
ATOM     26  C   UNL     1      -0.172  11.248  -2.214  0.00  0.00    +0.130 C 
BRANCH  26  27
ATOM     27  C   UNL     1      -1.601  11.691  -2.398  0.00  0.00    +0.033 A 
ATOM     28  C   UNL     1      -2.208  12.435  -1.448  0.00  0.00    +0.091 A 
ATOM     29  C   UNL     1      -3.551  12.839  -1.644  0.00  0.00    +0.254 A 
ATOM     30  O   UNL     1      -4.120  13.510  -0.802  0.00  0.00    -0.268 OA
ATOM     31  N   UNL     1      -4.194  12.474  -2.772  0.00  0.00    -0.275 N 
ATOM     32  H   UNL     1      -5.142  12.755  -2.917  0.00  0.00    +0.173 HD
ATOM     33  C   UNL     1      -3.564  11.732  -3.702  0.00  0.00    +0.327 A 
ATOM     34  O   UNL     1      -4.157  11.411  -4.714  0.00  0.00    -0.247 OA
ATOM     35  N   UNL     1      -2.287  11.347  -3.531  0.00  0.00    -0.311 N 
ATOM     36  H   UNL     1      -1.834  10.803  -4.238  0.00  0.00    +0.170 HD
ENDBRANCH  26  27
ENDBRANCH   2  26
TORSDOF 7
