REMARK  Name = ZINC12536992
REMARK  7 active torsions:
REMARK  status: ('A' for Active; 'I' for Inactive)
REMARK    1  A    between atoms: C_1  and  C_2
REMARK    2  A    between atoms: C_2  and  C_29
REMARK    3  A    between atoms: C_6  and  C_18
REMARK    4  A    between atoms: C_11  and  S_15
REMARK    5  A    between atoms: S_15  and  C_16
REMARK    6  A    between atoms: C_23  and  O_24
REMARK    7  A    between atoms: O_24  and  C_25
REMARK                            x       y       z     vdW  Elec       q    Type
REMARK                         _______ _______ _______ _____ _____    ______ ____
ROOT
ATOM      1  C   UNL     1      -2.530   4.536  -3.469  0.00  0.00    +0.011 C 
ATOM      2  C   UNL     1      -2.242   6.031  -3.616  0.00  0.00    -0.023 C 
ATOM      3  C   UNL     1      -2.771   6.781  -2.392  0.00  0.00    +0.058 C 
ATOM      4  C   UNL     1      -2.067   6.287  -1.151  0.00  0.00    +0.017 C 
ATOM      5  C   UNL     1      -0.795   5.839  -1.205  0.00  0.00    +0.024 C 
ATOM      6  C   UNL     1      -0.082   5.350   0.031  0.00  0.00    +0.094 C 
ATOM      7  C   UNL     1      -0.768   5.823   1.277  0.00  0.00    +0.044 A 
ATOM      8  C   UNL     1      -0.103   5.808   2.502  0.00  0.00    +0.126 A 
ATOM      9  N   UNL     1      -0.746   6.234   3.587  0.00  0.00    -0.207 NA
ATOM     10  C   UNL     1      -1.997   6.667   3.510  0.00  0.00    +0.191 A 
ATOM     11  N   UNL     1      -2.656   6.694   2.361  0.00  0.00    -0.206 NA
ATOM     12  C   UNL     1      -2.074   6.284   1.238  0.00  0.00    +0.133 A 
ATOM     13  N   UNL     1      -2.754   6.312   0.032  0.00  0.00    -0.302 N 
ATOM     14  N   UNL     1       1.204   5.355   2.590  0.00  0.00    -0.343 N 
ATOM     15  C   UNL     1      -0.089   5.811  -2.421  0.00  0.00    +0.162 C 
ATOM     16  O   UNL     1       1.060   5.417  -2.434  0.00  0.00    -0.292 OA
ATOM     17  C   UNL     1      -0.729   6.259  -3.707  0.00  0.00    +0.086 C 
ATOM     18  C   UNL     1      -2.920   6.564  -4.880  0.00  0.00    +0.011 C 
ATOM     19  H   UNL     1      -3.724   6.351   0.025  0.00  0.00    +0.153 HD
ATOM     20  H   UNL     1       1.658   5.348   3.447  0.00  0.00    +0.144 HD
ATOM     21  H   UNL     1       1.665   5.046   1.794  0.00  0.00    +0.144 HD
ENDROOT
BRANCH   6  22
ATOM     22  C   UNL     1      -0.057   3.844   0.022  0.00  0.00    +0.006 A 
ATOM     23  C   UNL     1      -1.242   3.132   0.030  0.00  0.00    +0.008 A 
ATOM     24  C   UNL     1      -1.220   1.750   0.017  0.00  0.00    +0.001 A 
ATOM     25  C   UNL     1      -0.013   1.076   0.008  0.00  0.00    +0.004 A 
ATOM     26  C   UNL     1       1.174   1.782   0.000  0.00  0.00    +0.046 A 
ATOM     27  C   UNL     1       1.155   3.169   0.008  0.00  0.00    +0.124 A 
BRANCH  27  28
ATOM     28  O   UNL     1       2.321   3.867   0.001  0.00  0.00    -0.495 OA
ATOM     29  C   UNL     1       3.531   3.107  -0.014  0.00  0.00    +0.277 C 
ENDBRANCH  27  28
ENDBRANCH   6  22
BRANCH  10  30
ATOM     30  S   UNL     1      -2.804   7.220   4.976  0.00  0.00    -0.089 S 
ATOM     31  C   UNL     1      -1.478   6.964   6.181  0.00  0.00    +0.093 C 
ENDBRANCH  10  30
TORSDOF 3
