REMARK  Name = ZINC08739828
REMARK  5 active torsions:
REMARK  status: ('A' for Active; 'I' for Inactive)
REMARK    1  A    between atoms: C_1  and  N_53
REMARK    2  A    between atoms: C_3  and  C_25
REMARK    3  A    between atoms: C_5  and  C_17
REMARK    4  A    between atoms: C_17  and  C_19
REMARK    5  A    between atoms: C_28  and  N_31
REMARK                            x       y       z     vdW  Elec       q    Type
REMARK                         _______ _______ _______ _____ _____    ______ ____
ROOT
ATOM      1  C   UNL     1       8.293  -0.280   0.691  0.00  0.00    -0.094 C 
ATOM      2  C   UNL     1       6.309  -0.053  -0.704  0.00  0.00    -0.068 C 
ATOM      3  C   UNL     1       4.789  -0.257  -0.476  0.00  0.00    +0.012 C 
ATOM      4  C   UNL     1       4.655  -0.167   1.063  0.00  0.00    +0.068 C 
ATOM      5  C   UNL     1       6.055  -0.487   1.599  0.00  0.00    +0.050 C 
ATOM      6  C   UNL     1       6.017  -1.656   2.546  0.00  0.00    -0.027 A 
ATOM      7  C   UNL     1       5.635  -2.972   2.407  0.00  0.00    +0.004 A 
ATOM      8  C   UNL     1       5.714  -3.833   3.487  0.00  0.00    +0.000 A 
ATOM      9  C   UNL     1       6.178  -3.368   4.705  0.00  0.00    +0.002 A 
ATOM     10  C   UNL     1       6.562  -2.051   4.848  0.00  0.00    +0.023 A 
ATOM     11  C   UNL     1       6.486  -1.178   3.765  0.00  0.00    +0.036 A 
ATOM     12  N   UNL     1       6.812   0.175   3.660  0.00  0.00    -0.286 N 
ATOM     13  C   UNL     1       6.590   0.657   2.422  0.00  0.00    +0.212 C 
ATOM     14  O   UNL     1       6.783   1.793   2.043  0.00  0.00    -0.277 OA
ATOM     15  H   UNL     1       7.159   0.707   4.393  0.00  0.00    +0.155 HD
ATOM     16  N   UNL     1       6.899  -0.758   0.440  0.00  0.00    +0.391 N 
ATOM     17  H   UNL     1       6.918  -1.767   0.252  0.00  0.00    -0.080 HD
ENDROOT
BRANCH   3  18
ATOM     18  C   UNL     1       3.997   0.837  -1.145  0.00  0.00    -0.045 A 
ATOM     19  C   UNL     1       2.659   1.005  -0.843  0.00  0.00    +0.006 A 
ATOM     20  C   UNL     1       1.933   2.008  -1.457  0.00  0.00    +0.033 A 
ATOM     21  C   UNL     1       2.545   2.844  -2.372  0.00  0.00    +0.126 A 
ATOM     22  C   UNL     1       3.884   2.676  -2.674  0.00  0.00    +0.033 A 
ATOM     23  C   UNL     1       4.610   1.672  -2.061  0.00  0.00    +0.006 A 
BRANCH  21  24
ATOM     24  N   UNL     1       1.766   3.914  -3.034  0.00  0.00    +0.056 N 
ATOM     25  O   UNL     1       0.585   4.059  -2.773  0.00  0.00    -0.126 OA
ATOM     26  O   UNL     1       2.306   4.650  -3.841  0.00  0.00    -0.126 OA
ENDBRANCH  21  24
ENDBRANCH   3  18
BRANCH   4  27
ATOM     27  C   UNL     1       4.241   1.223   1.473  0.00  0.00    +0.166 C 
ATOM     28  O   UNL     1       4.632   2.182   0.844  0.00  0.00    -0.292 OA
BRANCH  27  29
ATOM     29  C   UNL     1       3.362   1.416   2.638  0.00  0.00    +0.018 A 
ATOM     30  C   UNL     1       2.904   0.311   3.363  0.00  0.00    +0.011 A 
ATOM     31  C   UNL     1       2.084   0.500   4.456  0.00  0.00    +0.001 A 
ATOM     32  C   UNL     1       1.706   1.778   4.829  0.00  0.00    +0.000 A 
ATOM     33  C   UNL     1       2.151   2.876   4.113  0.00  0.00    +0.001 A 
ATOM     34  C   UNL     1       2.975   2.704   3.021  0.00  0.00    +0.011 A 
ENDBRANCH  27  29
ENDBRANCH   4  27
TORSDOF 4
