REMARK  Name = ZINC63635109
REMARK  12 active torsions:
REMARK  status: ('A' for Active; 'I' for Inactive)
REMARK    1  A    between atoms: C_1  and  C_2
REMARK    2  A    between atoms: C_2  and  O_3
REMARK    3  A    between atoms: O_3  and  C_4
REMARK    4  A    between atoms: C_4  and  C_6
REMARK    5  A    between atoms: C_7  and  C_34
REMARK    6  A    between atoms: C_9  and  C_33
REMARK    7  A    between atoms: C_10  and  S_12
REMARK    8  A    between atoms: S_12  and  N_15
REMARK    9  A    between atoms: C_19  and  C_22
REMARK   10  A    between atoms: N_24  and  C_25
REMARK   11  A    between atoms: C_28  and  C_32
REMARK   12  A    between atoms: C_30  and  C_31
REMARK                            x       y       z     vdW  Elec       q    Type
REMARK                         _______ _______ _______ _____ _____    ______ ____
ROOT
ATOM      1  N   UNL     1       4.259  -0.046   4.295  0.00  0.00    -0.179 NA
ATOM      2  C   UNL     1       3.771   1.142   5.009  0.00  0.00    +0.109 C 
ATOM      3  C   UNL     1       3.561   0.780   6.483  0.00  0.00    +0.018 C 
ATOM      4  C   UNL     1       4.857   0.195   7.049  0.00  0.00    +0.015 C 
ATOM      5  C   UNL     1       5.219  -1.081   6.285  0.00  0.00    +0.091 C 
ATOM      6  C   UNL     1       5.444  -0.744   4.813  0.00  0.00    +0.121 C 
ENDROOT
BRANCH   5   7
ATOM      7  C   UNL     1       6.477  -1.675   6.865  0.00  0.00    +0.222 C 
ATOM      8  O   UNL     1       7.459  -1.815   6.168  0.00  0.00    -0.275 OA
ATOM      9  N   UNL     1       6.511  -2.050   8.160  0.00  0.00    -0.285 N 
ATOM     10  H   UNL     1       5.755  -1.865   8.738  0.00  0.00    +0.155 HD
BRANCH   9  11
ATOM     11  C   UNL     1       7.637  -2.707   8.669  0.00  0.00    +0.036 A 
ATOM     12  C   UNL     1       8.469  -3.423   7.818  0.00  0.00    +0.024 A 
ATOM     13  C   UNL     1       9.579  -4.070   8.323  0.00  0.00    +0.005 A 
ATOM     14  C   UNL     1       9.863  -4.005   9.675  0.00  0.00    -0.050 A 
ATOM     15  C   UNL     1       9.037  -3.293  10.525  0.00  0.00    +0.008 A 
ATOM     16  C   UNL     1       7.928  -2.638  10.024  0.00  0.00    -0.029 A 
ATOM     17  C   UNL     1       7.032  -1.857  10.950  0.00  0.00    +0.045 C 
ATOM     18  C   UNL     1      11.075  -4.713  10.223  0.00  0.00    +0.044 C 
ENDBRANCH   9  11
ENDBRANCH   5   7
BRANCH   1  19
ATOM     19  S   UNL     1       3.484  -0.592   2.937  0.00  0.00    +0.044 S 
ATOM     20  O   UNL     1       4.451  -1.386   2.263  0.00  0.00    -0.157 OA
ATOM     21  O   UNL     1       2.954   0.577   2.328  0.00  0.00    -0.157 OA
BRANCH  19  26
ATOM     22  C   UNL     1       2.678  -2.719   4.478  0.00  0.00    +0.088 C 
ATOM     23  C   UNL     1       2.097  -2.473   5.676  0.00  0.00    +0.050 C 
ATOM     24  N   UNL     1       1.280  -1.413   5.630  0.00  0.00    -0.258 NA
ATOM     25  C   UNL     1       1.217  -0.851   4.467  0.00  0.00    +0.046 C 
ATOM     26  C   UNL     1       2.139  -1.639   3.557  0.00  0.00    +0.230 C 
ATOM     27  C   UNL     1       0.394   0.354   4.092  0.00  0.00    +0.063 C 
ATOM     28  C   UNL     1       2.340  -3.296   6.915  0.00  0.00    +0.066 C 
BRANCH  22  29
ATOM     29  C   UNL     1       3.592  -3.752   4.157  0.00  0.00    +0.339 C 
ATOM     30  O   UNL     1       3.933  -4.550   5.010  0.00  0.00    -0.245 OA
BRANCH  29  31
ATOM     31  O   UNL     1       4.085  -3.852   2.904  0.00  0.00    -0.462 OA
BRANCH  31  33
ATOM     32  C   UNL     1       5.449  -4.870   1.188  0.00  0.00    +0.048 C 
ATOM     33  C   UNL     1       5.002  -4.918   2.651  0.00  0.00    +0.229 C 
ENDBRANCH  31  33
ENDBRANCH  29  31
ENDBRANCH  22  29
ENDBRANCH  19  26
ENDBRANCH   1  19
TORSDOF 7
