REMARK  Name = ZINC15861784
REMARK  4 active torsions:
REMARK  status: ('A' for Active; 'I' for Inactive)
REMARK    1  A    between atoms: C_3  and  N_9
REMARK    2  A    between atoms: C_6  and  C_7
REMARK    3  A    between atoms: N_11  and  C_12
REMARK    4  A    between atoms: C_22  and  N_32
REMARK                            x       y       z     vdW  Elec       q    Type
REMARK                         _______ _______ _______ _____ _____    ______ ____
ROOT
ATOM      1  N   UNL     1      -0.536   5.408   2.423  0.00  0.00    -0.254 N 
ATOM      2  C   UNL     1      -0.950   6.158   1.353  0.00  0.00    +0.098 C 
ATOM      3  N   UNL     1      -1.180   5.708   0.164  0.00  0.00    -0.369 N 
ATOM      4  C   UNL     1      -1.095   7.599   1.794  0.00  0.00    +0.131 C 
ATOM      5  C   UNL     1      -0.694   7.565   3.278  0.00  0.00    +0.038 C 
ATOM      6  C   UNL     1      -0.363   6.119   3.546  0.00  0.00    +0.069 C 
ATOM      7  S   UNL     1       0.118   5.526   4.951  0.00  0.00    -0.039 S 
ATOM      8  C   UNL     1       0.529   8.446   3.512  0.00  0.00    +0.015 C 
ATOM      9  C   UNL     1       0.179   9.902   3.195  0.00  0.00    +0.001 C 
ATOM     10  C   UNL     1      -0.976  10.355   4.091  0.00  0.00    +0.000 C 
ATOM     11  C   UNL     1      -2.201   9.477   3.830  0.00  0.00    +0.001 C 
ATOM     12  C   UNL     1      -1.860   8.019   4.149  0.00  0.00    +0.015 C 
ATOM     13  H   UNL     1      -0.508   4.960  -0.282  0.00  0.00    +0.161 HD
ENDROOT
BRANCH   3  14
ATOM     14  C   UNL     1      -2.337   6.195  -0.592  0.00  0.00    +0.040 C 
ATOM     15  C   UNL     1      -3.199   5.008  -1.026  0.00  0.00    +0.031 C 
ATOM     16  C   UNL     1      -4.407   5.516  -1.815  0.00  0.00    -0.008 C 
ATOM     17  C   UNL     1      -3.925   6.276  -3.053  0.00  0.00    +0.007 C 
ATOM     18  C   UNL     1      -3.063   7.463  -2.619  0.00  0.00    -0.008 C 
ATOM     19  C   UNL     1      -1.855   6.955  -1.830  0.00  0.00    +0.031 C 
ATOM     20  C   UNL     1      -3.891   8.399  -1.736  0.00  0.00    +0.007 C 
ATOM     21  C   UNL     1      -4.373   7.639  -0.499  0.00  0.00    -0.008 C 
ATOM     22  C   UNL     1      -5.235   6.452  -0.933  0.00  0.00    +0.007 C 
ATOM     23  C   UNL     1      -3.165   7.131   0.290  0.00  0.00    +0.031 C 
ENDBRANCH   3  14
BRANCH   1  26
ATOM     24  C   UNL     1       0.929   2.181   1.459  0.00  0.00    +0.021 A 
ATOM     25  C   UNL     1       0.699   3.537   1.530  0.00  0.00    +0.025 A 
ATOM     26  C   UNL     1      -0.310   4.031   2.349  0.00  0.00    +0.040 A 
ATOM     27  C   UNL     1      -1.094   3.158   3.096  0.00  0.00    +0.025 A 
ATOM     28  C   UNL     1      -0.874   1.801   3.025  0.00  0.00    +0.021 A 
ATOM     29  C   UNL     1       0.139   1.300   2.203  0.00  0.00    +0.052 A 
BRANCH  29  30
ATOM     30  C   UNL     1       0.371  -0.111   2.127  0.00  0.00    +0.099 C 
ATOM     31  N   UNL     1       0.555  -1.230   2.066  0.00  0.00    -0.191 NA
ENDBRANCH  29  30
ENDBRANCH   1  26
BRANCH   4  32
ATOM     32  N   UNL     1      -0.187   8.466   1.032  0.00  0.00    -0.292 NA
ATOM     33  C   UNL     1      -0.914   9.590   0.429  0.00  0.00    +0.085 C 
ATOM     34  C   UNL     1       0.081  10.547  -0.231  0.00  0.00    +0.015 C 
ATOM     35  C   UNL     1       0.872   9.793  -1.304  0.00  0.00    +0.002 C 
ATOM     36  C   UNL     1       1.581   8.599  -0.659  0.00  0.00    +0.015 C 
ATOM     37  C   UNL     1       0.543   7.698   0.015  0.00  0.00    +0.085 C 
ENDBRANCH   4  32
TORSDOF 4
