REMARK  Name = ZINC38652758
REMARK  8 active torsions:
REMARK  status: ('A' for Active; 'I' for Inactive)
REMARK    1  A    between atoms: C_1  and  C_2
REMARK    2  A    between atoms: C_2  and  C_29
REMARK    3  A    between atoms: CA_3  and  C_26
REMARK    4  A    between atoms: CA_9  and  N_13
REMARK    5  A    between atoms: C_14  and  C_15
REMARK    6  A    between atoms: C_14  and  O_25
REMARK    7  A    between atoms: C_15  and  C_17
REMARK    8  A    between atoms: C_15  and  C_22
REMARK                            x       y       z     vdW  Elec       q    Type
REMARK                         _______ _______ _______ _____ _____    ______ ____
ROOT
ATOM      1  C   UNL     1       0.563   0.989  -1.469  0.00  0.00    +0.025 C 
ATOM      2  C   UNL     1       0.401  -0.451  -0.980  0.00  0.00    +0.042 C 
ATOM      3  CA  UNL     1       1.279  -1.437  -1.802  0.00  0.00    +0.206 C 
ATOM      4  N   UNL     1       1.601  -2.636  -1.023  0.00  0.00    -0.270 N 
ATOM      5  C   UNL     1       1.668  -2.460   0.434  0.00  0.00    +0.169 C 
ATOM      6  S   UNL     1       1.187  -0.700   0.675  0.00  0.00    -0.127 S 
ATOM      7  CA  UNL     1       3.166  -2.690   0.339  0.00  0.00    +0.225 C 
ATOM      8  C   UNL     1       2.864  -3.103  -1.071  0.00  0.00    +0.245 C 
ATOM      9  O   UNL     1       3.515  -3.652  -1.934  0.00  0.00    -0.273 OA
ATOM     10  C   UNL     1      -1.069  -0.875  -0.975  0.00  0.00    +0.025 C 
ENDROOT
BRANCH   3  11
ATOM     11  C   UNL     1       0.532  -1.845  -3.046  0.00  0.00    +0.377 C 
ATOM     12  O   UNL     1       0.655  -1.196  -4.071  0.00  0.00    -0.244 OA
ATOM     13  OXT UNL     1      -0.195  -2.823  -3.028  0.00  0.00    -0.244 OA
ENDBRANCH   3  11
BRANCH   7  14
ATOM     14  N   UNL     1       3.966  -1.468   0.449  0.00  0.00    -0.238 NA
ATOM     15  C   UNL     1       4.749  -1.298   1.460  0.00  0.00    +0.202 C 
BRANCH  15  16
ATOM     16  O   UNL     1       5.387  -0.121   1.629  0.00  0.00    -0.495 OA
ATOM     17  H   UNL     1       5.951  -0.089   2.414  0.00  0.00    +0.293 HD
ENDBRANCH  15  16
BRANCH  15  18
ATOM     18  C   UNL     1       4.953  -2.415   2.451  0.00  0.00    +0.217 C 
BRANCH  18  19
ATOM     19  C   UNL     1       3.979  -2.259   3.590  0.00  0.00    -0.018 A 
ATOM     20  C   UNL     1       3.063  -3.255   3.871  0.00  0.00    +0.012 A 
ATOM     21  C   UNL     1       2.200  -3.084   4.903  0.00  0.00    +0.045 A 
ATOM     22  S   UNL     1       2.673  -1.474   5.515  0.00  0.00    -0.105 S 
ATOM     23  C   UNL     1       3.991  -1.142   4.358  0.00  0.00    +0.050 A 
ENDBRANCH  18  19
BRANCH  18  24
ATOM     24  C   UNL     1       6.361  -2.363   2.984  0.00  0.00    +0.372 C 
ATOM     25  O   UNL     1       6.672  -1.516   3.805  0.00  0.00    -0.245 OA
ATOM     26  O   UNL     1       7.191  -3.168   2.595  0.00  0.00    -0.245 OA
ENDBRANCH  18  24
ENDBRANCH  15  18
ENDBRANCH   7  14
TORSDOF 6
