REMARK  Name = ZINC04164363
REMARK  3 active torsions:
REMARK  status: ('A' for Active; 'I' for Inactive)
REMARK    1  A    between atoms: C_6  and  C_7
REMARK    2  A    between atoms: C_10  and  C_20
REMARK    3  A    between atoms: C_14  and  C_17
REMARK                            x       y       z     vdW  Elec       q    Type
REMARK                         _______ _______ _______ _____ _____    ______ ____
ROOT
ATOM      1  C   UNL     1      -0.082   6.158   0.036  0.00  0.00    +0.104 C 
ATOM      2  C   UNL     1      -0.228   6.675  -1.400  0.00  0.00    +0.063 C 
ATOM      3  C   UNL     1      -1.443   5.997  -2.049  0.00  0.00    +0.215 C 
ATOM      4  N   UNL     1      -2.556   6.060  -1.093  0.00  0.00    -0.238 N 
ATOM      5  C   UNL     1      -2.411   6.351   0.219  0.00  0.00    +0.132 A 
ATOM      6  C   UNL     1      -3.678   6.315   0.789  0.00  0.00    +0.122 A 
ATOM      7  C   UNL     1      -4.587   5.988  -0.249  0.00  0.00    +0.151 A 
ATOM      8  N   UNL     1      -3.908   5.841  -1.353  0.00  0.00    -0.177 NA
ATOM      9  N   UNL     1      -1.216   6.628   0.846  0.00  0.00    -0.322 N 
ATOM     10  H   UNL     1      -1.190   6.226   1.771  0.00  0.00    +0.148 HD
ENDROOT
BRANCH   1  16
ATOM     11  C   UNL     1       1.047   3.978  -0.453  0.00  0.00    +0.006 A 
ATOM     12  C   UNL     1       1.066   2.596  -0.461  0.00  0.00    +0.015 A 
ATOM     13  C   UNL     1      -0.023   1.887   0.012  0.00  0.00    +0.018 A 
ATOM     14  C   UNL     1      -1.134   2.561   0.488  0.00  0.00    +0.015 A 
ATOM     15  C   UNL     1      -1.150   3.943   0.500  0.00  0.00    +0.006 A 
ATOM     16  C   UNL     1      -0.061   4.651   0.027  0.00  0.00    -0.027 A 
ATOM     17 BR   UNL     1       0.002  -0.004   0.002  0.00  0.00    -0.050 Br
ENDBRANCH   1  16
BRANCH   3  18
ATOM     18  C   UNL     1      -1.822   6.735  -3.335  0.00  0.00    +0.412 C 
ATOM     19  F   UNL     1      -0.744   6.703  -4.226  0.00  0.00    -0.168 F 
ATOM     20  F   UNL     1      -2.929   6.112  -3.921  0.00  0.00    -0.168 F 
ATOM     21  F   UNL     1      -2.139   8.064  -3.034  0.00  0.00    -0.168 F 
ENDBRANCH   3  18
BRANCH   6  22
ATOM     22  C   UNL     1      -4.012   6.567   2.194  0.00  0.00    +0.391 C 
ATOM     23  O   UNL     1      -3.132   6.841   2.988  0.00  0.00    -0.240 OA
ATOM     24  O   UNL     1      -5.294   6.496   2.606  0.00  0.00    -0.240 OA
ENDBRANCH   6  22
TORSDOF 3
