REMARK  Name = ZINC08726482
REMARK  5 active torsions:
REMARK  status: ('A' for Active; 'I' for Inactive)
REMARK    1  A    between atoms: C_1  and  N_2
REMARK    2  A    between atoms: N_9  and  C_12
REMARK    3  A    between atoms: C_12  and  C_13
REMARK    4  A    between atoms: C_13  and  C_14
REMARK    5  A    between atoms: N_16  and  C_17
REMARK                            x       y       z     vdW  Elec       q    Type
REMARK                         _______ _______ _______ _____ _____    ______ ____
ROOT
ATOM      1  C   UNL     1      -0.843   3.320   1.438  0.00  0.00    +0.215 C 
ATOM      2  O   UNL     1      -0.401   4.119   0.639  0.00  0.00    -0.276 OA
ATOM      3  N   UNL     1      -0.704   1.998   1.216  0.00  0.00    -0.310 N 
ATOM      4  H   UNL     1      -1.058   1.359   1.854  0.00  0.00    +0.149 HD
ENDROOT
BRANCH   3   5
ATOM      5  C   UNL     1      -0.019   1.526   0.010  0.00  0.00    +0.035 C 
ATOM      6  C   UNL     1       1.417   2.055  -0.000  0.00  0.00    +0.029 C 
ATOM      7  C   UNL     1       2.133   1.562  -1.259  0.00  0.00    -0.008 C 
ATOM      8  C   UNL     1       2.154   0.032  -1.268  0.00  0.00    +0.007 C 
ATOM      9  C   UNL     1       0.718  -0.497  -1.257  0.00  0.00    -0.008 C 
ATOM     10  C   UNL     1       0.002  -0.004   0.002  0.00  0.00    +0.029 C 
ATOM     11  C   UNL     1      -0.022   0.009  -2.496  0.00  0.00    +0.007 C 
ATOM     12  C   UNL     1      -0.043   1.539  -2.488  0.00  0.00    -0.008 C 
ATOM     13  C   UNL     1       1.393   2.069  -2.499  0.00  0.00    +0.007 C 
ATOM     14  C   UNL     1      -0.759   2.033  -1.229  0.00  0.00    +0.029 C 
ENDBRANCH   3   5
BRANCH   1  15
ATOM     15  C   UNL     1      -1.549   3.806   2.677  0.00  0.00    +0.117 C 
BRANCH  15  16
ATOM     16  C   UNL     1      -1.570   5.336   2.686  0.00  0.00    +0.136 C 
BRANCH  16  25
ATOM     17  C   UNL     1      -5.180   6.837   5.756  0.00  0.00    +0.154 C 
ATOM     18  N   UNL     1      -3.854   6.473   5.251  0.00  0.00    -0.295 N 
ATOM     19  C   UNL     1      -2.667   6.503   5.979  0.00  0.00    +0.070 A 
ATOM     20  C   UNL     1      -2.362   6.849   7.287  0.00  0.00    +0.028 A 
ATOM     21  C   UNL     1      -1.057   6.775   7.731  0.00  0.00    +0.002 A 
ATOM     22  C   UNL     1      -0.051   6.357   6.876  0.00  0.00    +0.002 A 
ATOM     23  C   UNL     1      -0.345   6.010   5.572  0.00  0.00    +0.028 A 
ATOM     24  C   UNL     1      -1.653   6.082   5.117  0.00  0.00    +0.070 A 
ATOM     25  N   UNL     1      -2.255   5.809   3.891  0.00  0.00    -0.292 N 
ATOM     26  C   UNL     1      -3.574   6.058   4.001  0.00  0.00    +0.330 A 
ATOM     27  O   UNL     1      -4.389   5.926   3.107  0.00  0.00    -0.246 OA
ENDBRANCH  16  25
ENDBRANCH  15  16
ENDBRANCH   1  15
TORSDOF 4
