REMARK  Name = ZINC33729261
REMARK  14 active torsions:
REMARK  status: ('A' for Active; 'I' for Inactive)
REMARK    1  A    between atoms: C_1  and  C_2
REMARK    2  A    between atoms: C_2  and  C_3
REMARK    3  A    between atoms: C_3  and  C_5
REMARK    4  A    between atoms: C_3  and  N_23
REMARK    5  A    between atoms: N_15  and  C_16
REMARK    6  A    between atoms: C_20  and  C_22
REMARK    7  A    between atoms: N_23  and  C_24
REMARK    8  A    between atoms: N_27  and  C_28
REMARK    9  A    between atoms: C_29  and  C_37
REMARK   10  A    between atoms: C_33  and  C_34
REMARK   11  A    between atoms: C_34  and  C_35
REMARK   12  A    between atoms: C_34  and  C_36
REMARK   13  A    between atoms: C_37  and  C_38
REMARK   14  A    between atoms: C_37  and  C_39
REMARK                            x       y       z     vdW  Elec       q    Type
REMARK                         _______ _______ _______ _____ _____    ______ ____
ROOT
ATOM      1  C   UNL     1      -3.258   4.848   0.802  0.00  0.00    +0.143 C 
ENDROOT
BRANCH   1   2
ATOM      2  C   UNL     1      -2.068   4.428  -0.021  0.00  0.00    +0.138 A 
ATOM      3  N   UNL     1      -0.955   5.080   0.128  0.00  0.00    -0.231 NA
ATOM      4  C   UNL     1       0.156   4.763  -0.583  0.00  0.00    +0.078 A 
ATOM      5  C   UNL     1       1.352   5.467  -0.426  0.00  0.00    +0.028 A 
ATOM      6  C   UNL     1       2.455   5.111  -1.169  0.00  0.00    +0.002 A 
ATOM      7  C   UNL     1       2.395   4.059  -2.073  0.00  0.00    +0.001 A 
ATOM      8  C   UNL     1       1.227   3.348  -2.245  0.00  0.00    +0.015 A 
ATOM      9  C   UNL     1       0.099   3.692  -1.503  0.00  0.00    +0.065 A 
ATOM     10  C   UNL     1      -1.174   2.971  -1.645  0.00  0.00    +0.266 A 
ATOM     11  O   UNL     1      -1.290   2.039  -2.420  0.00  0.00    -0.267 OA
ATOM     12  N   UNL     1      -2.212   3.382  -0.880  0.00  0.00    -0.263 N 
BRANCH  12  13
ATOM     13  C   UNL     1      -3.447   2.729  -0.976  0.00  0.00    +0.051 A 
ATOM     14  C   UNL     1      -4.353   2.795   0.075  0.00  0.00    +0.026 A 
ATOM     15  C   UNL     1      -5.573   2.155  -0.026  0.00  0.00    +0.002 A 
ATOM     16  C   UNL     1      -5.888   1.440  -1.168  0.00  0.00    +0.003 A 
ATOM     17  C   UNL     1      -4.988   1.373  -2.215  0.00  0.00    -0.048 A 
ATOM     18  C   UNL     1      -3.769   2.016  -2.123  0.00  0.00    +0.029 A 
ATOM     19  C   UNL     1      -5.338   0.598  -3.460  0.00  0.00    +0.044 C 
ENDBRANCH  12  13
ENDBRANCH   1   2
BRANCH   1  20
ATOM     20  N   UNL     1      -3.482   3.870   1.870  0.00  0.00    -0.278 N 
ATOM     21  C   UNL     1      -3.297   2.442   1.606  0.00  0.00    +0.134 C 
ATOM     22  C   UNL     1      -3.860   4.286   3.095  0.00  0.00    +0.307 C 
ATOM     23  O   UNL     1      -4.105   5.461   3.290  0.00  0.00    -0.252 OA
ATOM     24  N   UNL     1      -3.965   3.399   4.104  0.00  0.00    -0.269 N 
ATOM     25  H   UNL     1      -3.650   2.356   3.955  0.00  0.00    +0.156 HD
BRANCH  24  26
ATOM     26  C   UNL     1      -4.476   3.805   5.342  0.00  0.00    +0.042 A 
ATOM     27  C   UNL     1      -3.980   3.251   6.515  0.00  0.00    -0.023 A 
ATOM     28  C   UNL     1      -4.482   3.658   7.736  0.00  0.00    +0.006 A 
ATOM     29  C   UNL     1      -5.485   4.608   7.790  0.00  0.00    +0.001 A 
ATOM     30  C   UNL     1      -5.985   5.158   6.624  0.00  0.00    +0.006 A 
ATOM     31  C   UNL     1      -5.483   4.760   5.400  0.00  0.00    -0.023 A 
BRANCH  31  32
ATOM     32  C   UNL     1      -6.028   5.359   4.130  0.00  0.00    +0.015 C 
ATOM     33  C   UNL     1      -7.526   5.063   4.028  0.00  0.00    +0.012 C 
ATOM     34  C   UNL     1      -5.808   6.873   4.144  0.00  0.00    +0.012 C 
ENDBRANCH  31  32
BRANCH  27  35
ATOM     35  C   UNL     1      -2.891   2.211   6.457  0.00  0.00    +0.015 C 
ATOM     36  C   UNL     1      -1.710   2.660   7.319  0.00  0.00    +0.012 C 
ATOM     37  C   UNL     1      -3.429   0.879   6.982  0.00  0.00    +0.012 C 
ENDBRANCH  27  35
ENDBRANCH  24  26
ENDBRANCH   1  20
BRANCH   1  39
ATOM     38  C   UNL     1      -5.731   4.502   0.710  0.00  0.00    +0.006 C 
ATOM     39  C   UNL     1      -4.497   4.919  -0.093  0.00  0.00    +0.027 C 
ENDBRANCH   1  39
TORSDOF 7
