REMARK  Name = ZINC01907133
REMARK  13 active torsions:
REMARK  status: ('A' for Active; 'I' for Inactive)
REMARK    1  A    between atoms: C_1  and  C_2
REMARK    2  A    between atoms: C_4  and  O_12
REMARK    3  A    between atoms: C_5  and  C_9
REMARK    4  A    between atoms: C_9  and  C_10
REMARK    5  A    between atoms: C_9  and  C_11
REMARK    6  A    between atoms: O_12  and  C_13
REMARK    7  A    between atoms: C_13  and  C_14
REMARK    8  A    between atoms: C_14  and  O_16
REMARK    9  A    between atoms: O_16  and  C_17
REMARK   10  A    between atoms: C_22  and  C_28
REMARK   11  A    between atoms: N_30  and  C_31
REMARK   12  A    between atoms: C_31  and  C_32
REMARK   13  A    between atoms: C_31  and  C_33
REMARK                            x       y       z     vdW  Elec       q    Type
REMARK                         _______ _______ _______ _____ _____    ______ ____
ROOT
ATOM      1  C   UNL     1       0.045  -0.003   0.022  0.00  0.00    +0.135 A 
ATOM      2  C   UNL     1      -0.443  -0.727  -1.065  0.00  0.00    +0.047 A 
ATOM      3  C   UNL     1      -0.383  -2.089  -1.070  0.00  0.00    +0.015 A 
ATOM      4  C   UNL     1       0.162  -2.770   0.031  0.00  0.00    +0.019 A 
ATOM      5  C   UNL     1       0.222  -4.184   0.033  0.00  0.00    +0.031 A 
ATOM      6  C   UNL     1       0.766  -4.827   1.133  0.00  0.00    +0.122 A 
ATOM      7  C   UNL     1       1.258  -4.018   2.253  0.00  0.00    +0.350 A 
ATOM      8  O   UNL     1       1.739  -4.561   3.230  0.00  0.00    -0.244 OA
ATOM      9  O   UNL     1       1.179  -2.677   2.202  0.00  0.00    -0.422 OA
ATOM     10  C   UNL     1       0.651  -2.043   1.133  0.00  0.00    +0.143 A 
ATOM     11  C   UNL     1       0.586  -0.656   1.116  0.00  0.00    +0.093 A 
ENDROOT
BRANCH   6  12
ATOM     12  C   UNL     1       0.848  -6.296   1.178  0.00  0.00    +0.251 C 
ATOM     13  O   UNL     1       1.327  -6.849   2.150  0.00  0.00    -0.270 OA
ATOM     14  N   UNL     1       0.392  -7.028   0.143  0.00  0.00    -0.309 N 
ATOM     15  H   UNL     1      -0.042  -6.528  -0.736  0.00  0.00    +0.149 HD
BRANCH  14  16
ATOM     16  C   UNL     1       0.474  -8.490   0.187  0.00  0.00    +0.067 C 
ATOM     17  C   UNL     1      -0.744  -9.047   0.927  0.00  0.00    +0.027 C 
ATOM     18  C   UNL     1       0.500  -9.043  -1.239  0.00  0.00    +0.027 C 
ENDBRANCH  14  16
ENDBRANCH   6  12
BRANCH   1  19
ATOM     19  O   UNL     1      -0.016   1.353   0.009  0.00  0.00    -0.423 OA
BRANCH  19  20
ATOM     20  C   UNL     1       1.149   2.015  -0.083  0.00  0.00    +0.350 C 
ATOM     21  O   UNL     1       2.178   1.406  -0.257  0.00  0.00    -0.247 OA
BRANCH  20  22
ATOM     22  C   UNL     1       1.172   3.518   0.028  0.00  0.00    +0.349 C 
BRANCH  22  23
ATOM     23  O   UNL     1       2.517   3.984  -0.102  0.00  0.00    -0.480 OA
BRANCH  23  27
ATOM     24  C   UNL     1       0.669   8.466   0.468  0.00  0.00    +0.045 C 
ATOM     25  C   UNL     1       1.840   7.541   0.253  0.00  0.00    -0.033 A 
ATOM     26  C   UNL     1       1.637   6.177   0.174  0.00  0.00    +0.050 A 
ATOM     27  C   UNL     1       2.714   5.327  -0.024  0.00  0.00    +0.125 A 
ATOM     28  C   UNL     1       3.995   5.848  -0.136  0.00  0.00    -0.002 A 
ATOM     29  C   UNL     1       4.194   7.213  -0.062  0.00  0.00    +0.023 A 
ATOM     30  C   UNL     1       3.117   8.059   0.135  0.00  0.00    +0.021 A 
ATOM     31 BR   UNL     1       3.392   9.927   0.244  0.00  0.00    -0.050 Br
BRANCH  28  32
ATOM     32  C   UNL     1       5.169   4.926  -0.344  0.00  0.00    +0.016 C 
ATOM     33  C   UNL     1       5.864   5.275  -1.662  0.00  0.00    +0.012 C 
ATOM     34  C   UNL     1       6.157   5.088   0.813  0.00  0.00    +0.012 C 
ENDBRANCH  28  32
ENDBRANCH  23  27
ENDBRANCH  22  23
ENDBRANCH  20  22
ENDBRANCH  19  20
ENDBRANCH   1  19
TORSDOF 8
