REMARK  Name = ZINC67416274
REMARK  8 active torsions:
REMARK  status: ('A' for Active; 'I' for Inactive)
REMARK    1  A    between atoms: C_1  and  C_2
REMARK    2  A    between atoms: C_11  and  C_12
REMARK    3  A    between atoms: C_12  and  C_13
REMARK    4  A    between atoms: C_13  and  N_14
REMARK    5  A    between atoms: C_24  and  C_26
REMARK    6  A    between atoms: C_26  and  C_27
REMARK    7  A    between atoms: C_26  and  C_28
REMARK    8  A    between atoms: C_26  and  C_29
REMARK                            x       y       z     vdW  Elec       q    Type
REMARK                         _______ _______ _______ _____ _____    ______ ____
ROOT
ATOM      1  N   UNL     1       1.950  -8.413  -1.156  0.00  0.00    -0.299 N 
ATOM      2  C   UNL     1       3.059  -8.831  -1.797  0.00  0.00    +0.302 C 
ATOM      3  O   UNL     1       4.157  -8.550  -1.358  0.00  0.00    -0.253 OA
ATOM      4  N   UNL     1       2.951  -9.562  -2.924  0.00  0.00    -0.284 N 
ATOM      5  C   UNL     1       4.100 -10.025  -3.621  0.00  0.00    +0.111 C 
ATOM      6  C   UNL     1       4.725  -8.986  -4.608  0.00  0.00    +0.038 C 
ATOM      7  C   UNL     1       3.543  -8.213  -5.280  0.00  0.00    +0.109 C 
ATOM      8  N   UNL     1       2.408  -9.013  -5.580  0.00  0.00    -0.299 N 
ATOM      9  C   UNL     1       1.302  -9.014  -4.588  0.00  0.00    +0.126 C 
ATOM     10  C   UNL     1       1.626  -9.925  -3.489  0.00  0.00    +0.128 C 
ATOM     11  C   UNL     1       2.337  -9.739  -6.713  0.00  0.00    +0.221 C 
ATOM     12  O   UNL     1       3.237  -9.685  -7.525  0.00  0.00    -0.275 OA
ATOM     13  H   UNL     1       1.074  -8.637  -1.506  0.00  0.00    +0.150 HD
ENDROOT
BRANCH  11  14
ATOM     14  C   UNL     1       1.140 -10.616  -6.973  0.00  0.00    +0.039 C 
ATOM     15  C   UNL     1       1.406 -11.491  -8.200  0.00  0.00    +0.020 C 
ATOM     16  C   UNL     1       0.888 -11.508  -5.756  0.00  0.00    +0.020 C 
ATOM     17  C   UNL     1      -0.088  -9.741  -7.228  0.00  0.00    +0.020 C 
ENDBRANCH  11  14
BRANCH   1  18
ATOM     18  C   UNL     1       2.067  -7.618   0.069  0.00  0.00    +0.110 C 
BRANCH  18  19
ATOM     19  C   UNL     1       0.670  -7.276   0.591  0.00  0.00    +0.056 C 
BRANCH  19  30
ATOM     20  C   UNL     1       1.471  -0.953   3.185  0.00  0.00    +0.044 C 
ATOM     21  C   UNL     1       1.293  -2.386   2.753  0.00  0.00    -0.048 A 
ATOM     22  C   UNL     1       1.233  -2.693   1.400  0.00  0.00    +0.004 A 
ATOM     23  C   UNL     1       1.071  -3.986   0.988  0.00  0.00    +0.010 A 
ATOM     24  C   UNL     1       0.966  -5.007   1.935  0.00  0.00    +0.003 A 
ATOM     25  C   UNL     1       1.027  -4.701   3.307  0.00  0.00    +0.047 A 
ATOM     26  C   UNL     1       1.197  -3.378   3.703  0.00  0.00    +0.029 A 
ATOM     27  N   UNL     1       0.898  -5.887   3.994  0.00  0.00    -0.360 N 
ATOM     28  H   UNL     1       0.905  -5.976   4.959  0.00  0.00    +0.165 HD
ATOM     29  C   UNL     1       0.758  -6.923   3.110  0.00  0.00    +0.087 A 
ATOM     30  C   UNL     1       0.791  -6.459   1.851  0.00  0.00    -0.021 A 
ENDBRANCH  19  30
ENDBRANCH  18  19
ENDBRANCH   1  18
TORSDOF 4
