REMARK  Name = ZINC08349392
REMARK  8 active torsions:
REMARK  status: ('A' for Active; 'I' for Inactive)
REMARK    1  A    between atoms: C_1  and  C_2
REMARK    2  A    between atoms: C_2  and  C_4
REMARK    3  A    between atoms: C_2  and  N_15
REMARK    4  A    between atoms: C_7  and  N_10
REMARK    5  A    between atoms: N_15  and  C_16
REMARK    6  A    between atoms: C_17  and  C_19
REMARK    7  A    between atoms: C_20  and  C_21
REMARK    8  A    between atoms: C_25  and  N_27
REMARK                            x       y       z     vdW  Elec       q    Type
REMARK                         _______ _______ _______ _____ _____    ______ ____
ROOT
ATOM      1  N   UNL     1      -1.438  -0.484  -0.077  0.00  0.00    -0.294 N 
ATOM      2  C   UNL     1      -2.461  -0.004   0.855  0.00  0.00    +0.133 C 
ATOM      3  C   UNL     1      -1.767  -1.365  -1.042  0.00  0.00    +0.240 C 
ATOM      4  O   UNL     1      -0.917  -1.764  -1.817  0.00  0.00    -0.271 OA
ENDROOT
BRANCH   1   6
ATOM      5  C   UNL     1      -0.042   1.523  -0.003  0.00  0.00    +0.033 C 
ATOM      6  C   UNL     1      -0.058  -0.006   0.041  0.00  0.00    +0.103 C 
BRANCH   6   7
ATOM      7  C   UNL     1       0.527  -0.478   1.347  0.00  0.00    -0.027 A 
ATOM      8  C   UNL     1       0.103  -1.671   1.902  0.00  0.00    +0.007 A 
ATOM      9  C   UNL     1       0.638  -2.107   3.099  0.00  0.00    +0.028 A 
ATOM     10  C   UNL     1       1.602  -1.345   3.744  0.00  0.00    +0.067 A 
ATOM     11  C   UNL     1       2.026  -0.147   3.184  0.00  0.00    +0.028 A 
ATOM     12  C   UNL     1       1.491   0.280   1.985  0.00  0.00    +0.007 A 
BRANCH  10  13
ATOM     13  N   UNL     1       2.147  -1.784   4.959  0.00  0.00    -0.220 N 
ATOM     14  C   UNL     1       3.080  -1.155   5.700  0.00  0.00    +0.225 A 
ATOM     15  N   UNL     1       3.318  -1.888   6.758  0.00  0.00    -0.222 NA
ATOM     16  C   UNL     1       2.563  -2.985   6.728  0.00  0.00    +0.245 A 
ATOM     17  N   UNL     1       1.824  -2.964   5.649  0.00  0.00    -0.154 NA
ENDBRANCH  10  13
ENDBRANCH   6   7
ENDBRANCH   1   6
BRANCH   3  18
ATOM     18  C   UNL     1      -3.146  -1.842  -1.160  0.00  0.00    +0.068 C 
ATOM     19  C   UNL     1      -3.474  -2.723  -2.126  0.00  0.00    +0.013 C 
BRANCH  19  20
ATOM     20  C   UNL     1      -4.861  -3.203  -2.244  0.00  0.00    -0.023 A 
ATOM     21  C   UNL     1      -5.842  -2.743  -1.359  0.00  0.00    +0.008 A 
ATOM     22  C   UNL     1      -7.138  -3.196  -1.477  0.00  0.00    +0.003 A 
ATOM     23  C   UNL     1      -7.471  -4.105  -2.466  0.00  0.00    +0.033 A 
ATOM     24  C   UNL     1      -6.506  -4.566  -3.345  0.00  0.00    +0.127 A 
ATOM     25  C   UNL     1      -5.206  -4.117  -3.244  0.00  0.00    +0.040 A 
BRANCH  24  26
ATOM     26  N   UNL     1      -6.871  -5.539  -4.399  0.00  0.00    +0.056 N 
ATOM     27  O   UNL     1      -8.011  -5.930  -4.491  0.00  0.00    -0.126 OA
ATOM     28  O   UNL     1      -6.030  -5.942  -5.167  0.00  0.00    -0.126 OA
ENDBRANCH  24  26
ENDBRANCH  19  20
ENDBRANCH   3  18
TORSDOF 6
