REMARK  Name = ZINC35968711
REMARK  18 active torsions:
REMARK  status: ('A' for Active; 'I' for Inactive)
REMARK    1  A    between atoms: C_1  and  C_2
REMARK    2  A    between atoms: C_2  and  N_3
REMARK    3  A    between atoms: N_3  and  C_4
REMARK    4  A    between atoms: N_3  and  C_6
REMARK    5  A    between atoms: C_4  and  C_5
REMARK    6  A    between atoms: C_9  and  C_18
REMARK    7  A    between atoms: C_10  and  O_12
REMARK    8  A    between atoms: O_12  and  S_13
REMARK    9  A    between atoms: S_13  and  C_16
REMARK   10  A    between atoms: C_16  and  C_17
REMARK   11  A    between atoms: C_18  and  N_19
REMARK   12  A    between atoms: N_19  and  C_20
REMARK   13  A    between atoms: C_20  and  C_21
REMARK   14  A    between atoms: C_21  and  N_22
REMARK   15  A    between atoms: N_22  and  C_23
REMARK   16  A    between atoms: N_22  and  C_24
REMARK   17  A    between atoms: C_25  and  C_27
REMARK   18  A    between atoms: C_28  and  C_29
REMARK                            x       y       z     vdW  Elec       q    Type
REMARK                         _______ _______ _______ _____ _____    ______ ____
ROOT
ATOM      1  C   UNL     1       6.314  -1.355   0.979  0.00  0.00    +0.146 C 
ENDROOT
BRANCH   1   5
ATOM      2  C   UNL     1       2.090  -0.703   1.140  0.00  0.00    +0.033 A 
ATOM      3  C   UNL     1       2.792  -0.450  -0.032  0.00  0.00    +0.023 A 
ATOM      4  C   UNL     1       4.156  -0.662  -0.081  0.00  0.00    +0.011 A 
ATOM      5  C   UNL     1       4.826  -1.125   1.036  0.00  0.00    +0.014 A 
ATOM      6  C   UNL     1       4.130  -1.379   2.210  0.00  0.00    +0.163 A 
ATOM      7  C   UNL     1       2.762  -1.163   2.264  0.00  0.00    +0.072 A 
BRANCH   2   8
ATOM      8  N   UNL     1       0.711  -0.489   1.189  0.00  0.00    -0.330 N 
BRANCH   8  10
ATOM      9  C   UNL     1      -0.019   1.526   0.010  0.00  0.00    +0.024 C 
ATOM     10  C   UNL     1       0.002  -0.004   0.002  0.00  0.00    +0.102 C 
ENDBRANCH   8  10
BRANCH   8  11
ATOM     11  C   UNL     1      -0.028  -0.750   2.427  0.00  0.00    +0.102 C 
ATOM     12  C   UNL     1      -0.511  -2.202   2.437  0.00  0.00    +0.024 C 
ENDBRANCH   8  11
ENDBRANCH   2   8
BRANCH   6  13
ATOM     13  O   UNL     1       4.791  -1.833   3.307  0.00  0.00    -0.346 OA
BRANCH  13  14
ATOM     14  S   UNL     1       5.309  -0.731   4.219  0.00  0.00    +0.120 S 
ATOM     15  O   UNL     1       6.172  -1.393   5.134  0.00  0.00    -0.137 OA
ATOM     16  O   UNL     1       5.814   0.262   3.337  0.00  0.00    -0.137 OA
BRANCH  14  17
ATOM     17  C   UNL     1       3.840  -0.110   5.082  0.00  0.00    +0.207 C 
ATOM     18  C   UNL     1       4.245   1.014   6.037  0.00  0.00    +0.032 C 
ENDBRANCH  14  17
ENDBRANCH  13  14
ENDBRANCH   6  13
ENDBRANCH   1   5
BRANCH   1  19
ATOM     19  N   UNL     1       6.581  -2.782   0.787  0.00  0.00    -0.295 N 
ATOM     20  C   UNL     1       6.725  -3.591   1.855  0.00  0.00    +0.240 C 
ATOM     21  O   UNL     1       6.633  -3.136   2.980  0.00  0.00    -0.271 OA
BRANCH  20  22
ATOM     22  C   UNL     1       6.991  -5.018   1.663  0.00  0.00    +0.068 C 
ATOM     23  C   UNL     1       7.135  -5.827   2.731  0.00  0.00    +0.013 C 
BRANCH  23  24
ATOM     24  C   UNL     1       7.402  -7.262   2.538  0.00  0.00    -0.025 A 
ATOM     25  C   UNL     1       7.514  -7.788   1.247  0.00  0.00    +0.008 A 
ATOM     26  C   UNL     1       7.765  -9.133   1.074  0.00  0.00    +0.001 A 
ATOM     27  C   UNL     1       7.906  -9.961   2.173  0.00  0.00    +0.000 A 
ATOM     28  C   UNL     1       7.797  -9.448   3.454  0.00  0.00    +0.001 A 
ATOM     29  C   UNL     1       7.552  -8.104   3.644  0.00  0.00    +0.008 A 
ENDBRANCH  23  24
ENDBRANCH  20  22
BRANCH  19  30
ATOM     30  C   UNL     1       6.692  -3.331  -0.567  0.00  0.00    +0.090 C 
BRANCH  30  31
ATOM     31  C   UNL     1       8.149  -3.258  -1.030  0.00  0.00    -0.060 C 
BRANCH  31  32
ATOM     32  N   UNL     1       8.259  -3.808  -2.387  0.00  0.00    +0.377 N 
ATOM     33  C   UNL     1       7.512  -2.957  -3.323  0.00  0.00    -0.097 C 
ATOM     34  C   UNL     1       9.673  -3.849  -2.785  0.00  0.00    -0.097 C 
ATOM     35  H   UNL     1       7.878  -4.742  -2.404  0.00  0.00    -0.083 HD
ENDBRANCH  31  32
ENDBRANCH  30  31
ENDBRANCH  19  30
ENDBRANCH   1  19
TORSDOF 13
