REMARK  Name = ZINC12035720
REMARK  16 active torsions:
REMARK  status: ('A' for Active; 'I' for Inactive)
REMARK    1  A    between atoms: C_1  and  C_2
REMARK    2  A    between atoms: C_2  and  C_3
REMARK    3  A    between atoms: C_2  and  C_4
REMARK    4  A    between atoms: C_4  and  C_5
REMARK    5  A    between atoms: C_5  and  C_6
REMARK    6  A    between atoms: C_6  and  C_17
REMARK    7  A    between atoms: N_9  and  C_13
REMARK    8  A    between atoms: C_13  and  C_14
REMARK    9  A    between atoms: C_14  and  N_79
REMARK   10  A    between atoms: C_15  and  N_79
REMARK   11  A    between atoms: C_16  and  N_79
REMARK   12  A    between atoms: C_23  and  C_25
REMARK   13  A    between atoms: C_28  and  C_31
REMARK   14  A    between atoms: C_31  and  C_32
REMARK   15  A    between atoms: C_31  and  C_33
REMARK   16  A    between atoms: C_31  and  C_34
REMARK                            x       y       z     vdW  Elec       q    Type
REMARK                         _______ _______ _______ _____ _____    ______ ____
ROOT
ATOM      1  C   UNL     1      -4.488   8.337   1.918  0.00  0.00    +0.115 C 
ATOM      2  C   UNL     1      -4.597   9.843   1.778  0.00  0.00    +0.247 C 
ATOM      3  O   UNL     1      -5.028  10.461   0.828  0.00  0.00    -0.273 OA
ATOM      4  N   UNL     1      -4.111  10.349   2.932  0.00  0.00    -0.226 N 
ATOM      5  C   UNL     1      -3.719   9.382   3.770  0.00  0.00    +0.309 C 
ATOM      6  O   UNL     1      -3.249   9.591   4.871  0.00  0.00    -0.252 OA
ATOM      7  N   UNL     1      -3.903   8.152   3.257  0.00  0.00    -0.285 N 
ATOM      8  H   UNL     1      -3.692   7.308   3.686  0.00  0.00    +0.151 HD
ENDROOT
BRANCH   1   9
ATOM      9  C   UNL     1      -3.565   7.762   0.842  0.00  0.00    +0.024 C 
ATOM     10  C   UNL     1      -2.190   8.427   0.942  0.00  0.00    +0.025 C 
ATOM     11  C   UNL     1      -1.278   7.874  -0.158  0.00  0.00    +0.108 C 
ATOM     12  N   UNL     1      -1.249   6.409  -0.055  0.00  0.00    -0.298 N 
ATOM     13  C   UNL     1      -2.521   5.674  -0.055  0.00  0.00    +0.108 C 
ATOM     14  C   UNL     1      -3.419   6.253   1.050  0.00  0.00    +0.025 C 
ATOM     15  C   UNL     1      -0.076   5.750   0.033  0.00  0.00    +0.247 C 
ATOM     16  O   UNL     1       0.964   6.371   0.134  0.00  0.00    -0.270 OA
BRANCH  15  17
ATOM     17  C   UNL     1      -0.054   4.272   0.006  0.00  0.00    +0.037 A 
ATOM     18  C   UNL     1       0.785   3.567   0.870  0.00  0.00    +0.013 A 
ATOM     19  C   UNL     1       0.800   2.188   0.840  0.00  0.00    +0.005 A 
ATOM     20  C   UNL     1      -0.015   1.504  -0.044  0.00  0.00    -0.042 A 
ATOM     21  C   UNL     1      -0.845   2.196  -0.907  0.00  0.00    +0.005 A 
ATOM     22  C   UNL     1      -0.874   3.575  -0.884  0.00  0.00    +0.013 A 
BRANCH  20  23
ATOM     23  C   UNL     1       0.007  -0.003  -0.072  0.00  0.00    -0.013 C 
ATOM     24  C   UNL     1      -0.397  -0.544   1.301  0.00  0.00    +0.015 C 
ATOM     25  C   UNL     1      -0.977  -0.508  -1.129  0.00  0.00    +0.015 C 
ATOM     26  C   UNL     1       1.418  -0.486  -0.416  0.00  0.00    +0.015 C 
ENDBRANCH  20  23
ENDBRANCH  15  17
ENDBRANCH   1   9
BRANCH   1  27
ATOM     27  C   UNL     1      -5.872   7.688   1.840  0.00  0.00    +0.036 C 
BRANCH  27  28
ATOM     28  C   UNL     1      -6.774   8.280   2.925  0.00  0.00    +0.005 C 
BRANCH  28  30
ATOM     29  C   UNL     1      -8.043   6.144   3.184  0.00  0.00    +0.007 C 
ATOM     30  C   UNL     1      -8.158   7.631   2.847  0.00  0.00    -0.017 C 
ATOM     31  C   UNL     1      -9.096   8.310   3.847  0.00  0.00    +0.007 C 
ENDBRANCH  28  30
ENDBRANCH  27  28
ENDBRANCH   1  27
BRANCH   4  32
ATOM     32  C   UNL     1      -4.024  11.781   3.230  0.00  0.00    +0.099 C 
BRANCH  32  33
ATOM     33  C   UNL     1      -2.671  12.319   2.761  0.00  0.00    -0.060 C 
BRANCH  33  36
ATOM     34  C   UNL     1      -2.571  13.991   4.510  0.00  0.00    -0.097 C 
ATOM     35  C   UNL     1      -1.409  14.356   2.418  0.00  0.00    -0.097 C 
ATOM     36  N   UNL     1      -2.608  13.767   3.049  0.00  0.00    +0.377 N 
ATOM     37  H   UNL     1      -3.445  14.221   2.664  0.00  0.00    -0.083 HD
ENDBRANCH  33  36
ENDBRANCH  32  33
ENDBRANCH   4  32
TORSDOF 9
