REMARK  Name = ZINC15946611
REMARK  8 active torsions:
REMARK  status: ('A' for Active; 'I' for Inactive)
REMARK    1  A    between atoms: C_1  and  N_2
REMARK    2  A    between atoms: C_5  and  O_33
REMARK    3  A    between atoms: N_14  and  C_26
REMARK    4  A    between atoms: N_16  and  C_17
REMARK    5  A    between atoms: C_17  and  C_18
REMARK    6  A    between atoms: C_18  and  C_19
REMARK    7  A    between atoms: C_29  and  O_32
REMARK    8  A    between atoms: O_33  and  C_34
REMARK                            x       y       z     vdW  Elec       q    Type
REMARK                         _______ _______ _______ _____ _____    ______ ____
ROOT
ATOM      1  C   UNL     1      -0.020   1.448   0.018  0.00  0.00    +0.136 C 
ATOM      2  N   UNL     1       0.012  -0.015   0.084  0.00  0.00    -0.296 N 
ATOM      3  C   UNL     1      -1.164  -0.726   0.245  0.00  0.00    +0.052 A 
ATOM      4  C   UNL     1      -2.465  -0.207   0.363  0.00  0.00    +0.070 A 
ATOM      5  C   UNL     1      -3.549  -1.045   0.521  0.00  0.00    +0.122 A 
ATOM      6  C   UNL     1      -3.389  -2.424   0.569  0.00  0.00    +0.047 A 
ATOM      7  C   UNL     1      -2.118  -2.958   0.454  0.00  0.00    +0.020 A 
ATOM      8  C   UNL     1      -1.039  -2.122   0.296  0.00  0.00    +0.035 A 
ATOM      9  S   UNL     1       0.709  -2.387   0.118  0.00  0.00    -0.071 S 
ATOM     10  C   UNL     1       1.207  -0.678  -0.021  0.00  0.00    +0.092 C 
ATOM     11  C   UNL     1       2.480  -0.155  -0.190  0.00  0.00    +0.106 C 
ATOM     12  C   UNL     1       3.695  -0.826  -0.411  0.00  0.00    +0.266 C 
ATOM     13  O   UNL     1       3.727  -2.045  -0.478  0.00  0.00    -0.269 OA
ATOM     14  N   UNL     1       4.802  -0.117  -0.545  0.00  0.00    -0.214 N 
ATOM     15  C   UNL     1       4.750   1.264  -0.467  0.00  0.00    +0.168 C 
ATOM     16  N   UNL     1       5.721   2.131  -0.573  0.00  0.00    -0.262 NA
ATOM     17  S   UNL     1       3.008   1.552  -0.192  0.00  0.00    -0.046 S 
ENDROOT
BRANCH  14  18
ATOM     18  C   UNL     1       6.028  -0.763  -0.767  0.00  0.00    +0.044 A 
ATOM     19  C   UNL     1       7.013  -0.736   0.211  0.00  0.00    +0.027 A 
ATOM     20  C   UNL     1       8.220  -1.372  -0.007  0.00  0.00    +0.047 A 
ATOM     21  C   UNL     1       8.447  -2.037  -1.203  0.00  0.00    +0.117 A 
ATOM     22  C   UNL     1       7.463  -2.064  -2.180  0.00  0.00    +0.047 A 
ATOM     23  C   UNL     1       6.254  -1.434  -1.961  0.00  0.00    +0.027 A 
BRANCH  21  24
ATOM     24  O   UNL     1       9.635  -2.662  -1.418  0.00  0.00    -0.507 OA
ATOM     25  H   UNL     1       9.652  -3.585  -1.130  0.00  0.00    +0.292 HD
ENDBRANCH  21  24
ENDBRANCH  14  18
BRANCH   5  26
ATOM     26  O   UNL     1      -4.794  -0.512   0.633  0.00  0.00    -0.495 OA
ATOM     27  C   UNL     1      -5.880  -1.428   0.795  0.00  0.00    +0.277 C 
ENDBRANCH   5  26
BRANCH  16  28
ATOM     28  C   UNL     1       5.439   3.564  -0.456  0.00  0.00    +0.149 C 
BRANCH  28  29
ATOM     29  C   UNL     1       6.131   4.121   0.790  0.00  0.00    +0.058 C 
BRANCH  29  30
ATOM     30  C   UNL     1       5.841   5.595   0.910  0.00  0.00    -0.046 A 
ATOM     31  C   UNL     1       6.680   6.515   0.310  0.00  0.00    +0.004 A 
ATOM     32  C   UNL     1       6.414   7.867   0.419  0.00  0.00    +0.000 A 
ATOM     33  C   UNL     1       5.309   8.299   1.129  0.00  0.00    +0.000 A 
ATOM     34  C   UNL     1       4.470   7.378   1.728  0.00  0.00    +0.000 A 
ATOM     35  C   UNL     1       4.733   6.026   1.615  0.00  0.00    +0.004 A 
ENDBRANCH  29  30
ENDBRANCH  28  29
ENDBRANCH  16  28
TORSDOF 6
