REMARK  Name = ZINC22344383
REMARK  12 active torsions:
REMARK  status: ('A' for Active; 'I' for Inactive)
REMARK    1  A    between atoms: C_1  and  C_2
REMARK    2  A    between atoms: C_2  and  C_3
REMARK    3  A    between atoms: C_3  and  C_5
REMARK    4  A    between atoms: C_3  and  N_15
REMARK    5  A    between atoms: C_8  and  S_11
REMARK    6  A    between atoms: S_11  and  C_14
REMARK    7  A    between atoms: C_16  and  C_18
REMARK    8  A    between atoms: C_18  and  N_19
REMARK    9  A    between atoms: N_19  and  C_20
REMARK   10  A    between atoms: N_19  and  S_27
REMARK   11  A    between atoms: C_23  and  C_26
REMARK   12  A    between atoms: S_27  and  C_30
REMARK                            x       y       z     vdW  Elec       q    Type
REMARK                         _______ _______ _______ _____ _____    ______ ____
ROOT
ATOM      1  C   UNL     1      -0.233  -2.922  -2.241  0.00  0.00    +0.227 C 
ENDROOT
BRANCH   1   3
ATOM      2  N   UNL     1      -1.639  -1.341  -3.522  0.00  0.00    -0.307 N 
ATOM      3  C   UNL     1      -0.482  -1.576  -2.871  0.00  0.00    +0.233 C 
ATOM      4  O   UNL     1       0.357  -0.704  -2.792  0.00  0.00    -0.274 OA
ATOM      5  H   UNL     1      -2.400  -2.132  -3.594  0.00  0.00    +0.149 HD
BRANCH   2   6
ATOM      6  C   UNL     1      -1.882  -0.033  -4.135  0.00  0.00    +0.103 C 
BRANCH   6   7
ATOM      7  C   UNL     1      -2.869  -0.182  -5.264  0.00  0.00    -0.027 A 
ATOM      8  C   UNL     1      -3.949  -1.033  -5.129  0.00  0.00    +0.007 A 
ATOM      9  C   UNL     1      -4.857  -1.167  -6.163  0.00  0.00    +0.027 A 
ATOM     10  C   UNL     1      -4.679  -0.456  -7.335  0.00  0.00    +0.088 A 
ATOM     11  C   UNL     1      -3.595   0.392  -7.472  0.00  0.00    +0.027 A 
ATOM     12  C   UNL     1      -2.690   0.529  -6.436  0.00  0.00    +0.007 A 
BRANCH  10  13
ATOM     13  S   UNL     1      -5.832  -0.631  -8.656  0.00  0.00    -0.006 S 
ATOM     14  O   UNL     1      -7.047  -1.017  -8.027  0.00  0.00    -0.170 OA
ATOM     15  O   UNL     1      -5.746   0.590  -9.377  0.00  0.00    -0.170 OA
ATOM     16  C   UNL     1      -5.187  -1.998  -9.660  0.00  0.00    +0.200 C 
ENDBRANCH  10  13
ENDBRANCH   6   7
BRANCH   6  18
ATOM     17  C   UNL     1      -1.398   1.174  -2.001  0.00  0.00    +0.006 C 
ATOM     18  C   UNL     1      -2.449   0.925  -3.084  0.00  0.00    +0.024 C 
ENDBRANCH   6  18
ENDBRANCH   2   6
ENDBRANCH   1   3
BRANCH   1  19
ATOM     19  N   UNL     1       1.084  -2.924  -1.600  0.00  0.00    -0.194 N 
BRANCH  19  20
ATOM     20  C   UNL     1       2.226  -3.213  -2.350  0.00  0.00    +0.052 A 
ATOM     21  C   UNL     1       3.462  -2.714  -1.958  0.00  0.00    +0.025 A 
ATOM     22  C   UNL     1       4.590  -3.005  -2.699  0.00  0.00    +0.005 A 
ATOM     23  C   UNL     1       4.489  -3.784  -3.838  0.00  0.00    -0.050 A 
ATOM     24  C   UNL     1       3.259  -4.277  -4.235  0.00  0.00    +0.005 A 
ATOM     25  C   UNL     1       2.128  -3.994  -3.494  0.00  0.00    +0.025 A 
ATOM     26  C   UNL     1       5.721  -4.095  -4.648  0.00  0.00    +0.044 C 
ENDBRANCH  19  20
BRANCH  19  27
ATOM     27  S   UNL     1       1.219  -2.584   0.015  0.00  0.00    +0.075 S 
ATOM     28  O   UNL     1       2.427  -3.188   0.458  0.00  0.00    -0.150 OA
ATOM     29  O   UNL     1      -0.041  -2.883   0.600  0.00  0.00    -0.150 OA
BRANCH  27  30
ATOM     30  C   UNL     1       1.443  -0.843   0.164  0.00  0.00    +0.109 A 
ATOM     31  C   UNL     1       0.343  -0.009   0.244  0.00  0.00    +0.031 A 
ATOM     32  C   UNL     1       0.517   1.357   0.361  0.00  0.00    +0.040 A 
ATOM     33  C   UNL     1       1.794   1.890   0.398  0.00  0.00    +0.124 A 
ATOM     34  C   UNL     1       2.895   1.055   0.318  0.00  0.00    +0.040 A 
ATOM     35  C   UNL     1       2.719  -0.311   0.201  0.00  0.00    +0.031 A 
ATOM     36  F   UNL     1       1.966   3.225   0.511  0.00  0.00    -0.205 F 
ENDBRANCH  27  30
ENDBRANCH  19  27
ENDBRANCH   1  19
TORSDOF 9
