REMARK  Name = ZINC03770235
REMARK  6 active torsions:
REMARK  status: ('A' for Active; 'I' for Inactive)
REMARK    1  A    between atoms: C_1  and  C_2
REMARK    2  A    between atoms: C_2  and  O_3
REMARK    3  A    between atoms: O_3  and  C_4
REMARK    4  A    between atoms: C_6  and  C_11
REMARK    5  A    between atoms: C_9  and  O_10
REMARK    6  A    between atoms: C_20  and  C_22
REMARK                            x       y       z     vdW  Elec       q    Type
REMARK                         _______ _______ _______ _____ _____    ______ ____
ROOT
ATOM      1  C   UNL     1       1.176   3.558   0.009  0.00  0.00    +0.028 C 
ATOM      2  C   UNL     1       2.342   4.246   0.104  0.00  0.00    +0.081 A 
ATOM      3  C   UNL     1       2.564   5.694   0.224  0.00  0.00    +0.268 A 
ATOM      4  O   UNL     1       1.628   6.472   0.250  0.00  0.00    -0.266 OA
ATOM      5  N   UNL     1       3.827   6.133   0.306  0.00  0.00    -0.275 N 
ATOM      6  C   UNL     1       4.851   5.206   0.267  0.00  0.00    +0.178 A 
ATOM      7  N   UNL     1       6.111   5.514   0.336  0.00  0.00    -0.223 NA
ATOM      8  C   UNL     1       6.586   6.782   0.457  0.00  0.00    +0.076 C 
ATOM      9  C   UNL     1       5.739   7.825   0.496  0.00  0.00    -0.016 C 
ATOM     10  C   UNL     1       4.256   7.554   0.431  0.00  0.00    +0.151 C 
ATOM     11  C   UNL     1       6.251   9.236   0.574  0.00  0.00    +0.040 C 
ATOM     12  C   UNL     1       7.505   9.312   1.442  0.00  0.00    +0.040 C 
ATOM     13  C   UNL     1       8.499   8.265   1.013  0.00  0.00    -0.038 A 
ATOM     14  C   UNL     1       8.046   7.032   0.549  0.00  0.00    +0.004 A 
ATOM     15  C   UNL     1       8.959   6.050   0.177  0.00  0.00    +0.010 A 
ATOM     16  C   UNL     1      10.313   6.309   0.260  0.00  0.00    +0.001 A 
ATOM     17  C   UNL     1      10.759   7.539   0.709  0.00  0.00    +0.000 A 
ATOM     18  C   UNL     1       9.853   8.516   1.085  0.00  0.00    +0.004 A 
ATOM     19  S   UNL     1       4.021   3.637   0.111  0.00  0.00    -0.046 S 
ENDROOT
BRANCH  10  20
ATOM     20  C   UNL     1       3.627   8.119   1.679  0.00  0.00    -0.018 A 
ATOM     21  C   UNL     1       3.545   7.346   2.822  0.00  0.00    +0.006 A 
ATOM     22  C   UNL     1       2.973   7.865   3.969  0.00  0.00    +0.003 A 
ATOM     23  C   UNL     1       2.472   9.153   3.970  0.00  0.00    +0.038 A 
ATOM     24  C   UNL     1       2.548   9.926   2.824  0.00  0.00    +0.124 A 
ATOM     25  C   UNL     1       3.127   9.407   1.677  0.00  0.00    +0.044 A 
ATOM     26  F   UNL     1       2.059  11.185   2.823  0.00  0.00    -0.205 F 
ENDBRANCH  10  20
BRANCH   1  29
ATOM     27  C   UNL     1       0.086  -0.013  -0.342  0.00  0.00    +0.162 A 
ATOM     28  C   UNL     1       0.072   1.367  -0.390  0.00  0.00    +0.057 A 
ATOM     29  C   UNL     1       1.183   2.090   0.059  0.00  0.00    -0.020 A 
ATOM     30  C   UNL     1       2.302   1.410   0.555  0.00  0.00    +0.012 A 
ATOM     31  C   UNL     1       2.306   0.033   0.599  0.00  0.00    +0.050 A 
ATOM     32  C   UNL     1       1.203  -0.683   0.154  0.00  0.00    +0.158 A 
BRANCH  32  33
ATOM     33  O   UNL     1       1.214  -2.041   0.201  0.00  0.00    -0.503 OA
ATOM     34  H   UNL     1       1.562  -2.459  -0.598  0.00  0.00    +0.292 HD
ENDBRANCH  32  33
BRANCH  27  35
ATOM     35  O   UNL     1      -0.992  -0.719  -0.777  0.00  0.00    -0.489 OA
BRANCH  35  37
ATOM     36  C   UNL     1      -3.211  -0.927  -1.712  0.00  0.00    +0.048 C 
ATOM     37  C   UNL     1      -2.103   0.031  -1.272  0.00  0.00    +0.226 C 
ENDBRANCH  35  37
ENDBRANCH  27  35
ENDBRANCH   1  29
TORSDOF 5
