REMARK  Name = ZINC53994970
REMARK  5 active torsions:
REMARK  status: ('A' for Active; 'I' for Inactive)
REMARK    1  A    between atoms: C_1  and  C_2
REMARK    2  A    between atoms: C_2  and  C_4
REMARK    3  A    between atoms: C_2  and  N_7
REMARK    4  A    between atoms: C_9  and  C_21
REMARK    5  A    between atoms: C_15  and  N_18
REMARK                            x       y       z     vdW  Elec       q    Type
REMARK                         _______ _______ _______ _____ _____    ______ ____
ROOT
ATOM      1  N   UNL     1      -1.372  -0.511   0.012  0.00  0.00    -0.332 N 
ATOM      2  C   UNL     1      -2.136  -0.268   1.084  0.00  0.00    +0.106 A 
ATOM      3  C   UNL     1      -3.442  -0.711   1.173  0.00  0.00    +0.126 A 
ATOM      4  C   UNL     1      -4.011  -1.476   0.050  0.00  0.00    +0.204 A 
ATOM      5  O   UNL     1      -5.157  -1.889   0.079  0.00  0.00    -0.286 OA
ATOM      6  C   UNL     1      -3.134  -1.721  -1.111  0.00  0.00    +0.046 A 
ATOM      7  C   UNL     1      -1.824  -1.213  -1.084  0.00  0.00    +0.056 A 
ATOM      8  C   UNL     1      -0.989  -1.434  -2.176  0.00  0.00    +0.059 A 
ATOM      9  C   UNL     1      -1.452  -2.137  -3.267  0.00  0.00    +0.128 A 
ATOM     10  C   UNL     1      -2.748  -2.632  -3.293  0.00  0.00    +0.033 A 
ATOM     11  C   UNL     1      -3.588  -2.437  -2.218  0.00  0.00    +0.016 A 
ENDROOT
BRANCH   9  12
ATOM     12  N   UNL     1      -0.557  -2.367  -4.423  0.00  0.00    +0.056 N 
ATOM     13  O   UNL     1       0.573  -1.938  -4.407  0.00  0.00    -0.126 OA
ATOM     14  O   UNL     1      -0.957  -2.983  -5.383  0.00  0.00    -0.126 OA
ENDBRANCH   9  12
BRANCH   3  15
ATOM     15  C   UNL     1      -4.248  -0.425   2.365  0.00  0.00    +0.392 C 
ATOM     16  O   UNL     1      -3.764   0.211   3.292  0.00  0.00    -0.240 OA
ATOM     17  O   UNL     1      -5.403  -0.823   2.432  0.00  0.00    -0.240 OA
ENDBRANCH   3  15
BRANCH   1  19
ATOM     18  C   UNL     1      -0.007   1.500   0.283  0.00  0.00    +0.043 C 
ATOM     19  C   UNL     1       0.002  -0.004   0.002  0.00  0.00    +0.197 C 
BRANCH  19  20
ATOM     20  C   UNL     1       0.806  -0.709   1.064  0.00  0.00    +0.378 C 
ATOM     21  O   UNL     1       0.258  -1.108   2.078  0.00  0.00    -0.244 OA
ATOM     22  O   UNL     1       2.003  -0.879   0.910  0.00  0.00    -0.244 OA
ENDBRANCH  19  20
ENDBRANCH   1  19
TORSDOF 4
