REMARK  Name = ZINC01709080
REMARK  2 active torsions:
REMARK  status: ('A' for Active; 'I' for Inactive)
REMARK    1  A    between atoms: C_2  and  C_13
REMARK    2  A    between atoms: C_7  and  C_11
REMARK                            x       y       z     vdW  Elec       q    Type
REMARK                         _______ _______ _______ _____ _____    ______ ____
ROOT
ATOM      1  C   UNL     1       1.304   2.677  -2.458  0.00  0.00    +0.089 C 
ATOM      2  C   UNL     1       1.175   3.128  -0.999  0.00  0.00    +0.116 C 
ATOM      3  C   UNL     1       1.228   1.895  -0.090  0.00  0.00    +0.089 C 
ATOM      4  C   UNL     1      -0.075   1.147  -0.196  0.00  0.00    +0.135 C 
ATOM      5  O   UNL     1      -0.070  -0.057  -0.296  0.00  0.00    -0.297 OA
ATOM      6  C   UNL     1      -1.384   1.892  -0.183  0.00  0.00    +0.089 C 
ATOM      7  C   UNL     1      -2.053   1.772  -1.550  0.00  0.00    +0.116 C 
ATOM      8  C   UNL     1      -1.308   2.672  -2.541  0.00  0.00    +0.089 C 
ATOM      9  C   UNL     1       0.012   2.037  -2.894  0.00  0.00    +0.135 C 
ATOM     10  O   UNL     1       0.034   1.011  -3.529  0.00  0.00    -0.297 OA
ENDROOT
BRANCH   7  11
ATOM     11  C   UNL     1      -3.491   2.210  -1.451  0.00  0.00    +0.360 C 
ATOM     12  O   UNL     1      -3.883   3.147  -2.105  0.00  0.00    -0.246 OA
ATOM     13  O   UNL     1      -4.336   1.560  -0.636  0.00  0.00    -0.246 OA
ENDBRANCH   7  11
BRANCH   2  14
ATOM     14  C   UNL     1      -0.139   3.840  -0.806  0.00  0.00    +0.360 C 
ATOM     15  O   UNL     1      -1.177   3.265  -1.032  0.00  0.00    -0.246 OA
ATOM     16  O   UNL     1      -0.157   5.114  -0.384  0.00  0.00    -0.246 OA
ENDBRANCH   2  14
TORSDOF 2
