REMARK  Name = ZINC39943289
REMARK  7 active torsions:
REMARK  status: ('A' for Active; 'I' for Inactive)
REMARK    1  A    between atoms: C_1  and  C_2
REMARK    2  A    between atoms: C_2  and  O_3
REMARK    3  A    between atoms: O_3  and  C_4
REMARK    4  A    between atoms: C_7  and  N_10
REMARK    5  A    between atoms: C_14  and  C_15
REMARK    6  A    between atoms: C_18  and  S_20
REMARK    7  A    between atoms: S_20  and  C_21
REMARK                            x       y       z     vdW  Elec       q    Type
REMARK                         _______ _______ _______ _____ _____    ______ ____
ROOT
ATOM      1  N   UNL     1      -2.680  -6.340  -1.536  0.00  0.00    -0.188 N 
ATOM      2  C   UNL     1      -3.821  -6.855  -1.029  0.00  0.00    +0.264 C 
ATOM      3  O   UNL     1      -4.748  -6.133  -0.707  0.00  0.00    -0.269 OA
ATOM      4  C   UNL     1      -3.911  -8.314  -0.879  0.00  0.00    +0.105 C 
ATOM      5  C   UNL     1      -5.064  -8.922  -0.360  0.00  0.00    +0.064 C 
ATOM      6  C   UNL     1      -2.789  -9.086  -1.278  0.00  0.00    +0.277 C 
ATOM      7  O   UNL     1      -2.809 -10.432  -1.165  0.00  0.00    -0.268 OA
ATOM      8  N   UNL     1      -1.722  -8.470  -1.762  0.00  0.00    -0.123 NA
ATOM      9  C   UNL     1      -1.668  -7.148  -1.893  0.00  0.00    +0.340 C 
ATOM     10  O   UNL     1      -0.656  -6.647  -2.351  0.00  0.00    -0.250 OA
ENDROOT
BRANCH   1  14
ATOM     11  C   UNL     1      -2.305  -2.213  -2.012  0.00  0.00    +0.121 A 
ATOM     12  C   UNL     1      -2.422  -3.032  -3.126  0.00  0.00    +0.047 A 
ATOM     13  C   UNL     1      -2.546  -4.398  -2.969  0.00  0.00    +0.027 A 
ATOM     14  C   UNL     1      -2.554  -4.952  -1.696  0.00  0.00    +0.046 A 
ATOM     15  C   UNL     1      -2.436  -4.133  -0.582  0.00  0.00    +0.027 A 
ATOM     16  C   UNL     1      -2.307  -2.767  -0.740  0.00  0.00    +0.047 A 
BRANCH  11  17
ATOM     17  O   UNL     1      -2.183  -0.868  -2.167  0.00  0.00    -0.492 OA
BRANCH  17  19
ATOM     18  C   UNL     1      -2.043   1.157  -3.479  0.00  0.00    +0.048 C 
ATOM     19  C   UNL     1      -2.189  -0.366  -3.505  0.00  0.00    +0.225 C 
ENDBRANCH  17  19
ENDBRANCH  11  17
ENDBRANCH   1  14
BRANCH   5  20
ATOM     20  C   UNL     1      -5.053 -10.275  -0.042  0.00  0.00    +0.130 A 
ATOM     21  C   UNL     1      -6.080 -11.186  -0.295  0.00  0.00    +0.050 A 
ATOM     22  C   UNL     1      -5.652 -12.416   0.183  0.00  0.00    +0.057 A 
ATOM     23  C   UNL     1      -4.386 -12.230   0.712  0.00  0.00    +0.165 A 
ATOM     24  O   UNL     1      -4.042 -10.942   0.564  0.00  0.00    -0.449 OA
BRANCH  23  25
ATOM     25  S   UNL     1      -3.390 -13.480   1.453  0.00  0.00    -0.046 S 
BRANCH  25  26
ATOM     26  C   UNL     1      -4.010 -13.585   3.155  0.00  0.00    +0.240 C 
ATOM     27  N   UNL     1      -3.809 -12.287   3.856  0.00  0.00    -0.275 NA
ATOM     28  C   UNL     1      -5.073 -11.599   3.554  0.00  0.00    +0.128 C 
ATOM     29  C   UNL     1      -5.361 -10.526   4.569  0.00  0.00    -0.002 C 
ATOM     30  C   UNL     1      -6.636 -10.394   4.963  0.00  0.00    -0.002 C 
ATOM     31  C   UNL     1      -7.691 -11.252   4.434  0.00  0.00    +0.002 C 
ATOM     32  C   UNL     1      -7.443 -12.365   3.709  0.00  0.00    +0.025 C 
ATOM     33  C   UNL     1      -6.092 -12.716   3.408  0.00  0.00    +0.060 C 
ATOM     34  N   UNL     1      -5.463 -13.816   3.153  0.00  0.00    -0.256 NA
ATOM     35  H   UNL     1      -3.701 -12.425   4.849  0.00  0.00    +0.126 HD
ENDBRANCH  25  26
ENDBRANCH  23  25
ENDBRANCH   5  20
TORSDOF 6
