REMARK  Name = ZINC20715606
REMARK  4 active torsions:
REMARK  status: ('A' for Active; 'I' for Inactive)
REMARK    1  A    between atoms: C_2  and  C_3
REMARK    2  A    between atoms: C_3  and  N_4
REMARK    3  A    between atoms: C_15  and  O_28
REMARK    4  A    between atoms: N_21  and  C_22
REMARK                            x       y       z     vdW  Elec       q    Type
REMARK                         _______ _______ _______ _____ _____    ______ ____
ROOT
ATOM      1  N   UNL     1       1.367  -1.676   1.111  0.00  0.00    -0.266 N 
ATOM      2  C   UNL     1       1.854  -1.351   2.366  0.00  0.00    +0.041 A 
ATOM      3  C   UNL     1       2.377  -0.143   2.828  0.00  0.00    +0.024 A 
ATOM      4  C   UNL     1       2.796  -0.096   4.148  0.00  0.00    +0.002 A 
ATOM      5  C   UNL     1       2.706  -1.192   4.982  0.00  0.00    +0.000 A 
ATOM      6  C   UNL     1       2.188  -2.402   4.534  0.00  0.00    +0.007 A 
ATOM      7  C   UNL     1       1.768  -2.457   3.222  0.00  0.00    -0.006 A 
ATOM      8  C   UNL     1       1.173  -3.564   2.414  0.00  0.00    +0.112 C 
ATOM      9  C   UNL     1       0.939  -2.954   1.050  0.00  0.00    +0.236 C 
ATOM     10  O   UNL     1       0.461  -3.509   0.083  0.00  0.00    -0.274 OA
ATOM     11  C   UNL     1       2.126  -4.753   2.311  0.00  0.00    +0.121 C 
ATOM     12  C   UNL     1       2.040  -5.635   3.523  0.00  0.00    +0.191 C 
ATOM     13  N   UNL     1       0.951  -5.809   4.210  0.00  0.00    -0.197 NA
ATOM     14  C   UNL     1      -0.178  -5.128   3.862  0.00  0.00    +0.164 A 
ATOM     15  C   UNL     1      -0.128  -4.037   3.001  0.00  0.00    +0.036 A 
ATOM     16  C   UNL     1      -1.416  -3.562   2.844  0.00  0.00    +0.142 A 
ATOM     17  N   UNL     1      -2.224  -4.302   3.569  0.00  0.00    -0.173 NA
ATOM     18  N   UNL     1      -1.470  -5.287   4.226  0.00  0.00    -0.214 N 
ENDROOT
BRANCH  18  19
ATOM     19  C   UNL     1      -1.968  -6.261   5.102  0.00  0.00    +0.068 A 
ATOM     20  C   UNL     1      -1.398  -7.527   5.130  0.00  0.00    +0.028 A 
ATOM     21  C   UNL     1      -1.891  -8.486   5.994  0.00  0.00    +0.002 A 
ATOM     22  C   UNL     1      -2.950  -8.185   6.831  0.00  0.00    +0.000 A 
ATOM     23  C   UNL     1      -3.519  -6.925   6.806  0.00  0.00    +0.002 A 
ATOM     24  C   UNL     1      -3.027  -5.961   5.948  0.00  0.00    +0.028 A 
ENDBRANCH  18  19
BRANCH  12  25
ATOM     25  O   UNL     1       3.154  -6.283   3.921  0.00  0.00    -0.495 OA
ATOM     26  H   UNL     1       3.030  -6.833   4.706  0.00  0.00    +0.293 HD
ENDBRANCH  12  25
BRANCH   1  27
ATOM     27  C   UNL     1       1.317  -0.740  -0.015  0.00  0.00    +0.140 C 
BRANCH  27  29
ATOM     28  C   UNL     1      -0.016   1.306   0.009  0.00  0.00    +0.005 C 
ATOM     29  C   UNL     1       0.002  -0.004   0.002  0.00  0.00    -0.015 C 
ENDBRANCH  27  29
ENDBRANCH   1  27
TORSDOF 4
