REMARK  Name = ZINC08772708
REMARK  10 active torsions:
REMARK  status: ('A' for Active; 'I' for Inactive)
REMARK    1  A    between atoms: C_1  and  C_2
REMARK    2  A    between atoms: C_2  and  O_3
REMARK    3  A    between atoms: O_3  and  C_4
REMARK    4  A    between atoms: C_4  and  C_6
REMARK    5  A    between atoms: C_11  and  C_13
REMARK    6  A    between atoms: C_11  and  C_25
REMARK    7  A    between atoms: C_11  and  N_69
REMARK    8  A    between atoms: C_18  and  C_24
REMARK    9  A    between atoms: C_22  and  O_23
REMARK   10  A    between atoms: N_29  and  C_30
REMARK                            x       y       z     vdW  Elec       q    Type
REMARK                         _______ _______ _______ _____ _____    ______ ____
ROOT
ATOM      1  C   UNL     1      -2.614   3.623   7.053  0.00  0.00    +0.039 C 
ENDROOT
BRANCH   1   2
ATOM      2  C   UNL     1      -1.956   3.137   5.787  0.00  0.00    +0.008 A 
ATOM      3  C   UNL     1      -2.705   2.919   4.669  0.00  0.00    +0.017 A 
ATOM      4  C   UNL     1      -2.052   2.465   3.506  0.00  0.00    +0.001 A 
ATOM      5  C   UNL     1      -2.761   2.220   2.320  0.00  0.00    +0.010 A 
ATOM      6  C   UNL     1      -2.094   1.787   1.214  0.00  0.00    +0.004 A 
ATOM      7  C   UNL     1      -0.718   1.572   1.248  0.00  0.00    -0.048 A 
ATOM      8  C   UNL     1       0.000   1.799   2.382  0.00  0.00    +0.031 A 
ATOM      9  C   UNL     1      -0.652   2.252   3.542  0.00  0.00    +0.075 A 
ATOM     10  N   UNL     1       0.030   2.483   4.669  0.00  0.00    -0.213 NA
ATOM     11  C   UNL     1      -0.575   2.908   5.757  0.00  0.00    +0.215 A 
ATOM     12  C   UNL     1      -0.013   1.086   0.008  0.00  0.00    +0.044 C 
BRANCH  11  13
ATOM     13  O   UNL     1       0.156   3.129   6.877  0.00  0.00    -0.492 OA
ATOM     14  H   UNL     1       0.501   4.029   6.950  0.00  0.00    +0.294 HD
ENDBRANCH  11  13
ENDBRANCH   1   2
BRANCH   1  20
ATOM     15  C   UNL     1      -5.879   6.338   6.551  0.00  0.00    +0.094 C 
ATOM     16  C   UNL     1      -5.986   5.213   7.585  0.00  0.00    -0.004 C 
ATOM     17  C   UNL     1      -4.581   4.719   7.940  0.00  0.00    -0.077 C 
ATOM     18  C   UNL     1      -3.754   5.307   5.740  0.00  0.00    -0.077 C 
ATOM     19  C   UNL     1      -5.134   5.819   5.318  0.00  0.00    -0.004 C 
ATOM     20  N   UNL     1      -3.927   4.211   6.716  0.00  0.00    +0.389 N 
ATOM     21  H   UNL     1      -4.520   3.484   6.299  0.00  0.00    -0.080 HD
BRANCH  15  22
ATOM     22  C   UNL     1      -7.261   6.788   6.153  0.00  0.00    +0.310 C 
ATOM     23  O   UNL     1      -8.232   6.265   6.645  0.00  0.00    -0.251 OA
BRANCH  22  24
ATOM     24  O   UNL     1      -7.412   7.772   5.252  0.00  0.00    -0.465 OA
BRANCH  24  26
ATOM     25  C   UNL     1      -8.745   9.281   3.882  0.00  0.00    +0.048 C 
ATOM     26  C   UNL     1      -8.772   8.154   4.916  0.00  0.00    +0.229 C 
ENDBRANCH  24  26
ENDBRANCH  22  24
ENDBRANCH  15  22
ENDBRANCH   1  20
BRANCH   1  27
ATOM     27  C   UNL     1      -2.825   2.461   7.988  0.00  0.00    +0.143 A 
ATOM     28  N   UNL     1      -3.736   1.525   7.880  0.00  0.00    -0.115 NA
ATOM     29  N   UNL     1      -3.592   0.713   8.870  0.00  0.00    -0.023 NA
ATOM     30  N   UNL     1      -2.613   1.107   9.608  0.00  0.00    -0.044 NA
ATOM     31  N   UNL     1      -2.111   2.179   9.094  0.00  0.00    -0.227 N 
BRANCH  31  32
ATOM     32  C   UNL     1      -0.979   2.947   9.618  0.00  0.00    +0.111 C 
ATOM     33  C   UNL     1       0.265   2.056   9.663  0.00  0.00    +0.027 C 
ATOM     34  C   UNL     1       1.447   2.858  10.210  0.00  0.00    +0.002 C 
ATOM     35  C   UNL     1       1.120   3.350  11.622  0.00  0.00    +0.000 C 
ATOM     36  C   UNL     1      -0.123   4.241  11.576  0.00  0.00    +0.002 C 
ATOM     37  C   UNL     1      -1.305   3.439  11.029  0.00  0.00    +0.027 C 
ENDBRANCH  31  32
ENDBRANCH   1  27
TORSDOF 8
