REMARK  Name = ZINC40247768
REMARK  6 active torsions:
REMARK  status: ('A' for Active; 'I' for Inactive)
REMARK    1  A    between atoms: C_1  and  C_2
REMARK    2  A    between atoms: C_4  and  C_24
REMARK    3  A    between atoms: C_5  and  C_9
REMARK    4  A    between atoms: C_6  and  C_8
REMARK    5  A    between atoms: C_9  and  C_11
REMARK    6  A    between atoms: C_9  and  O_23
REMARK                            x       y       z     vdW  Elec       q    Type
REMARK                         _______ _______ _______ _____ _____    ______ ____
ROOT
ATOM      1  C   UNL     1       1.167  -4.881  -0.643  0.00  0.00    +0.175 C 
ENDROOT
BRANCH   1   2
ATOM      2  C   UNL     1       2.541  -5.011  -0.038  0.00  0.00    -0.013 A 
ATOM      3  C   UNL     1       3.649  -4.581  -0.747  0.00  0.00    +0.008 A 
ATOM      4  C   UNL     1       4.913  -4.696  -0.202  0.00  0.00    +0.028 A 
ATOM      5  C   UNL     1       5.072  -5.245   1.062  0.00  0.00    +0.067 A 
ATOM      6  C   UNL     1       3.953  -5.678   1.778  0.00  0.00    +0.067 A 
ATOM      7  C   UNL     1       2.688  -5.553   1.224  0.00  0.00    +0.034 A 
ATOM      8  N   UNL     1       4.420  -6.172   2.993  0.00  0.00    -0.306 N 
ATOM      9  H   UNL     1       3.873  -6.545   3.702  0.00  0.00    +0.170 HD
ATOM     10  C   UNL     1       5.760  -6.046   3.016  0.00  0.00    +0.325 A 
ATOM     11  O   UNL     1       6.480  -6.383   3.937  0.00  0.00    -0.247 OA
ATOM     12  N   UNL     1       6.183  -5.489   1.865  0.00  0.00    -0.306 N 
ATOM     13  H   UNL     1       7.104  -5.292   1.635  0.00  0.00    +0.170 HD
ENDBRANCH   1   2
BRANCH   1  18
ATOM     14  C   UNL     1      -0.074   0.708  -1.427  0.00  0.00    +0.044 C 
ATOM     15  C   UNL     1       0.250  -0.749  -1.222  0.00  0.00    -0.050 A 
ATOM     16  C   UNL     1      -0.067  -1.671  -2.202  0.00  0.00    +0.007 A 
ATOM     17  C   UNL     1       0.230  -3.009  -2.015  0.00  0.00    -0.044 A 
ATOM     18  C   UNL     1       0.844  -3.423  -0.848  0.00  0.00    -0.009 A 
ATOM     19  C   UNL     1       1.161  -2.501   0.132  0.00  0.00    -0.044 A 
ATOM     20  C   UNL     1       0.868  -1.163  -0.058  0.00  0.00    +0.007 A 
ATOM     21  C   UNL     1       1.830  -2.953   1.404  0.00  0.00    +0.044 C 
ATOM     22  C   UNL     1      -0.116  -4.014  -3.082  0.00  0.00    +0.044 C 
ENDBRANCH   1  18
BRANCH   1  23
ATOM     23  O   UNL     1       1.134  -5.557  -1.901  0.00  0.00    -0.383 OA
ATOM     24  H   UNL     1       1.857  -5.317  -2.496  0.00  0.00    +0.211 HD
ENDBRANCH   1  23
TORSDOF 3
