REMARK  Name = ZINC38288307
REMARK  9 active torsions:
REMARK  status: ('A' for Active; 'I' for Inactive)
REMARK    1  A    between atoms: C_1  and  C_2
REMARK    2  A    between atoms: C_5  and  N_9
REMARK    3  A    between atoms: C_10  and  C_12
REMARK    4  A    between atoms: C_15  and  C_33
REMARK    5  A    between atoms: C_16  and  C_17
REMARK    6  A    between atoms: C_16  and  C_18
REMARK    7  A    between atoms: N_20  and  O_21
REMARK    8  A    between atoms: O_21  and  C_22
REMARK    9  A    between atoms: C_22  and  C_24
REMARK                            x       y       z     vdW  Elec       q    Type
REMARK                         _______ _______ _______ _____ _____    ______ ____
ROOT
ATOM      1  C   UNL     1       0.310  -6.351   1.119  0.00  0.00    +0.058 C 
ATOM      2  C   UNL     1      -0.890  -7.139   0.510  0.00  0.00    +0.018 C 
ATOM      3  C   UNL     1      -0.724  -8.577   1.054  0.00  0.00    +0.014 C 
ATOM      4  C   UNL     1       0.555  -8.514   1.945  0.00  0.00    +0.015 C 
ATOM      5  C   UNL     1       0.441  -7.057   2.515  0.00  0.00    -0.010 C 
ATOM      6  C   UNL     1       1.698  -6.615   3.268  0.00  0.00    +0.013 C 
ATOM      7  C   UNL     1      -0.820  -6.887   3.365  0.00  0.00    +0.013 C 
ATOM      8  C   UNL     1       1.711  -8.345   0.949  0.00  0.00    +0.066 C 
ATOM      9  N   UNL     1       2.608  -9.206   0.648  0.00  0.00    -0.083 NA
ATOM     10  C   UNL     1       1.574  -6.919   0.402  0.00  0.00    +0.071 C 
ATOM     11  C   UNL     1       0.704  -9.633   2.978  0.00  0.00    +0.018 C 
ENDROOT
BRANCH   1  13
ATOM     12  N   UNL     1       0.059  -4.170  -0.022  0.00  0.00    -0.285 N 
ATOM     13  C   UNL     1       0.176  -4.850   1.136  0.00  0.00    +0.224 C 
ATOM     14  O   UNL     1       0.174  -4.254   2.192  0.00  0.00    -0.275 OA
ATOM     15  H   UNL     1      -0.006  -4.651  -0.862  0.00  0.00    +0.155 HD
BRANCH  12  20
ATOM     16  C   UNL     1      -0.049   1.502   0.013  0.00  0.00    +0.045 C 
ATOM     17  C   UNL     1      -0.021  -0.004   0.004  0.00  0.00    -0.032 A 
ATOM     18  C   UNL     1       0.592  -0.677  -1.038  0.00  0.00    +0.006 A 
ATOM     19  C   UNL     1       0.620  -2.057  -1.049  0.00  0.00    +0.023 A 
ATOM     20  C   UNL     1       0.033  -2.772  -0.013  0.00  0.00    +0.035 A 
ATOM     21  C   UNL     1      -0.582  -2.095   1.032  0.00  0.00    +0.043 A 
ATOM     22  C   UNL     1      -0.602  -0.712   1.041  0.00  0.00    +0.046 A 
ATOM     23 CL   UNL     1      -1.364   0.136   2.350  0.00  0.00    -0.083 Cl
ENDBRANCH  12  20
ENDBRANCH   1  13
BRANCH   9  24
ATOM     24  O   UNL     1       2.599 -10.482   1.263  0.00  0.00    -0.312 OA
BRANCH  24  25
ATOM     25  C   UNL     1       3.597 -11.291   0.859  0.00  0.00    +0.368 C 
ATOM     26  O   UNL     1       4.401 -10.901   0.036  0.00  0.00    -0.243 OA
BRANCH  25  27
ATOM     27  C   UNL     1       3.714 -12.653   1.415  0.00  0.00    +0.080 A 
ATOM     28  C   UNL     1       2.787 -13.108   2.357  0.00  0.00    +0.018 A 
ATOM     29  C   UNL     1       2.901 -14.381   2.873  0.00  0.00    +0.021 A 
ATOM     30  C   UNL     1       3.932 -15.210   2.460  0.00  0.00    +0.042 A 
ATOM     31  C   UNL     1       4.853 -14.767   1.527  0.00  0.00    +0.040 A 
ATOM     32  C   UNL     1       4.748 -13.496   0.998  0.00  0.00    +0.056 A 
ATOM     33 CL   UNL     1       5.900 -12.944  -0.177  0.00  0.00    -0.083 Cl
ATOM     34 CL   UNL     1       4.067 -16.812   3.115  0.00  0.00    -0.083 Cl
ENDBRANCH  25  27
ENDBRANCH  24  25
ENDBRANCH   9  24
TORSDOF 5
