REMARK  Name = ZINC39468724
REMARK  5 active torsions:
REMARK  status: ('A' for Active; 'I' for Inactive)
REMARK    1  A    between atoms: C_1  and  C_2
REMARK    2  A    between atoms: C_2  and  C_4
REMARK    3  A    between atoms: C_2  and  S_17
REMARK    4  A    between atoms: S_17  and  C_18
REMARK    5  A    between atoms: C_26  and  C_28
REMARK                            x       y       z     vdW  Elec       q    Type
REMARK                         _______ _______ _______ _____ _____    ______ ____
ROOT
ATOM      1  C   UNL     1      -0.117   1.593  -0.312  0.00  0.00    +0.029 C 
ATOM      2  C   UNL     1      -0.150   0.064  -0.337  0.00  0.00    +0.136 C 
ENDROOT
BRANCH   2   3
ATOM      3  C   UNL     1       0.728  -0.439  -1.453  0.00  0.00    +0.230 C 
ATOM      4  O   UNL     1       0.245  -0.699  -2.535  0.00  0.00    -0.274 OA
ATOM      5  N   UNL     1       2.051  -0.601  -1.250  0.00  0.00    -0.285 N 
ATOM      6  C   UNL     1       2.614  -1.772  -1.472  0.00  0.00    +0.036 C 
ATOM      7  C   UNL     1       1.784  -2.932  -1.821  0.00  0.00    +0.025 C 
ATOM      8  C   UNL     1       2.353  -4.131  -2.049  0.00  0.00    +0.032 C 
ATOM      9  C   UNL     1       3.807  -4.287  -1.951  0.00  0.00    +0.095 C 
ATOM     10  N   UNL     1       4.637  -5.299  -2.111  0.00  0.00    -0.190 NA
ATOM     11  C   UNL     1       5.895  -4.880  -1.895  0.00  0.00    +0.369 C 
ATOM     12  O   UNL     1       6.989  -5.674  -1.980  0.00  0.00    -0.243 OA
ATOM     13  N   UNL     1       5.931  -3.603  -1.593  0.00  0.00    -0.190 NA
ATOM     14  C   UNL     1       4.652  -3.128  -1.601  0.00  0.00    +0.097 C 
ATOM     15  C   UNL     1       4.083  -1.917  -1.375  0.00  0.00    +0.053 C 
ATOM     16  H   UNL     1       2.588   0.145  -0.940  0.00  0.00    +0.155 HD
ENDBRANCH   2   3
BRANCH   2  17
ATOM     17  S   UNL     1      -1.853  -0.499  -0.607  0.00  0.00    -0.093 S 
BRANCH  17  18
ATOM     18  C   UNL     1      -2.713   0.036   0.835  0.00  0.00    +0.109 A 
ATOM     19  C   UNL     1      -4.139  -0.235   1.010  0.00  0.00    +0.032 A 
ATOM     20  C   UNL     1      -4.889  -0.925   0.054  0.00  0.00    +0.012 A 
ATOM     21  C   UNL     1      -6.217  -1.148   0.275  0.00  0.00    +0.001 A 
ATOM     22  C   UNL     1      -6.833  -0.697   1.438  0.00  0.00    +0.002 A 
ATOM     23  C   UNL     1      -6.130  -0.020   2.390  0.00  0.00    +0.028 A 
ATOM     24  C   UNL     1      -4.763   0.226   2.196  0.00  0.00    +0.076 A 
ATOM     25  N   UNL     1      -4.024   0.884   3.098  0.00  0.00    -0.225 NA
ATOM     26  C   UNL     1      -2.737   1.103   2.893  0.00  0.00    +0.197 A 
ATOM     27  N   UNL     1      -2.087   0.693   1.803  0.00  0.00    -0.218 NA
BRANCH  26  28
ATOM     28  C   UNL     1      -1.978   1.834   3.925  0.00  0.00    +0.172 A 
ATOM     29  C   UNL     1      -0.655   2.148   3.872  0.00  0.00    +0.053 A 
ATOM     30  C   UNL     1      -0.355   2.841   5.059  0.00  0.00    +0.042 A 
ATOM     31  C   UNL     1      -1.497   2.916   5.773  0.00  0.00    +0.196 A 
ATOM     32  O   UNL     1      -2.476   2.312   5.082  0.00  0.00    -0.460 OA
ENDBRANCH  26  28
ENDBRANCH  17  18
ENDBRANCH   2  17
TORSDOF 4
