REMARK  Name = ZINC16430249
REMARK  15 active torsions:
REMARK  status: ('A' for Active; 'I' for Inactive)
REMARK    1  A    between atoms: C_1  and  C_2
REMARK    2  A    between atoms: C_2  and  C_3
REMARK    3  A    between atoms: C_6  and  C_9
REMARK    4  A    between atoms: N_11  and  C_12
REMARK    5  A    between atoms: N_11  and  C_16
REMARK    6  A    between atoms: C_12  and  C_13
REMARK    7  A    between atoms: C_13  and  N_76
REMARK    8  A    between atoms: C_14  and  N_76
REMARK    9  A    between atoms: C_15  and  N_76
REMARK   10  A    between atoms: C_16  and  C_18
REMARK   11  A    between atoms: C_16  and  C_20
REMARK   12  A    between atoms: C_18  and  C_19
REMARK   13  A    between atoms: N_30  and  C_31
REMARK   14  A    between atoms: C_34  and  C_37
REMARK   15  A    between atoms: C_37  and  C_38
REMARK                            x       y       z     vdW  Elec       q    Type
REMARK                         _______ _______ _______ _____ _____    ______ ____
ROOT
ATOM      1  C   UNL     1      -2.314   1.117   1.393  0.00  0.00    +0.143 C 
ENDROOT
BRANCH   1   2
ATOM      2  C   UNL     1      -2.875   1.040   2.790  0.00  0.00    +0.138 A 
ATOM      3  N   UNL     1      -3.287   2.137   3.349  0.00  0.00    -0.231 NA
ATOM      4  C   UNL     1      -3.804   2.145   4.604  0.00  0.00    +0.078 A 
ATOM      5  C   UNL     1      -4.248   3.325   5.205  0.00  0.00    +0.028 A 
ATOM      6  C   UNL     1      -4.765   3.287   6.480  0.00  0.00    +0.002 A 
ATOM      7  C   UNL     1      -4.852   2.089   7.178  0.00  0.00    +0.001 A 
ATOM      8  C   UNL     1      -4.420   0.913   6.606  0.00  0.00    +0.015 A 
ATOM      9  C   UNL     1      -3.893   0.929   5.316  0.00  0.00    +0.065 A 
ATOM     10  C   UNL     1      -3.417  -0.295   4.655  0.00  0.00    +0.266 A 
ATOM     11  O   UNL     1      -3.467  -1.375   5.214  0.00  0.00    -0.267 OA
ATOM     12  N   UNL     1      -2.928  -0.175   3.399  0.00  0.00    -0.263 N 
BRANCH  12  13
ATOM     13  C   UNL     1      -2.466  -1.311   2.723  0.00  0.00    +0.051 A 
ATOM     14  C   UNL     1      -3.366  -2.275   2.286  0.00  0.00    +0.026 A 
ATOM     15  C   UNL     1      -2.909  -3.392   1.615  0.00  0.00    +0.005 A 
ATOM     16  C   UNL     1      -1.555  -3.556   1.387  0.00  0.00    -0.047 A 
ATOM     17  C   UNL     1      -0.656  -2.602   1.825  0.00  0.00    +0.005 A 
ATOM     18  C   UNL     1      -1.108  -1.480   2.492  0.00  0.00    +0.026 A 
BRANCH  16  19
ATOM     19  C   UNL     1      -1.058  -4.779   0.660  0.00  0.00    +0.032 C 
ATOM     20  C   UNL     1      -0.764  -5.889   1.671  0.00  0.00    +0.009 C 
ENDBRANCH  16  19
ENDBRANCH  12  13
ENDBRANCH   1   2
BRANCH   1  23
ATOM     21  C   UNL     1      -3.731   0.763  -0.557  0.00  0.00    +0.247 C 
ATOM     22  O   UNL     1      -3.205  -0.322  -0.707  0.00  0.00    -0.270 OA
ATOM     23  N   UNL     1      -3.363   1.555   0.469  0.00  0.00    -0.289 N 
BRANCH  21  27
ATOM     24  C   UNL     1      -6.730   2.062  -3.271  0.00  0.00    -0.048 A 
ATOM     25  C   UNL     1      -6.449   0.712  -3.149  0.00  0.00    +0.004 A 
ATOM     26  C   UNL     1      -5.476   0.284  -2.270  0.00  0.00    +0.013 A 
ATOM     27  C   UNL     1      -4.775   1.215  -1.502  0.00  0.00    +0.037 A 
ATOM     28  C   UNL     1      -5.067   2.575  -1.626  0.00  0.00    +0.013 A 
ATOM     29  C   UNL     1      -6.039   2.990  -2.513  0.00  0.00    +0.004 A 
BRANCH  24  31
ATOM     30  C   UNL     1      -9.145   2.566  -3.519  0.00  0.00    +0.009 C 
ATOM     31  C   UNL     1      -7.793   2.522  -4.234  0.00  0.00    +0.032 C 
ENDBRANCH  24  31
ENDBRANCH  21  27
BRANCH  23  32
ATOM     32  C   UNL     1      -4.012   2.854   0.662  0.00  0.00    +0.090 C 
BRANCH  32  33
ATOM     33  C   UNL     1      -3.137   3.956   0.060  0.00  0.00    -0.060 C 
BRANCH  33  36
ATOM     34  C   UNL     1      -2.821   6.354  -0.042  0.00  0.00    -0.097 C 
ATOM     35  C   UNL     1      -5.042   5.415  -0.264  0.00  0.00    -0.097 C 
ATOM     36  N   UNL     1      -3.726   5.270   0.393  0.00  0.00    +0.377 N 
ATOM     37  H   UNL     1      -3.853   5.330   1.410  0.00  0.00    -0.083 HD
ENDBRANCH  33  36
ENDBRANCH  32  33
ENDBRANCH  23  32
ENDBRANCH   1  23
BRANCH   1  38
ATOM     38  C   UNL     1      -1.157   2.116   1.362  0.00  0.00    +0.027 C 
ATOM     39  C   UNL     1      -0.576   2.181  -0.052  0.00  0.00    +0.006 C 
ENDBRANCH   1  38
TORSDOF 10
