REMARK  Name = ZINC13063743
REMARK  12 active torsions:
REMARK  status: ('A' for Active; 'I' for Inactive)
REMARK    1  A    between atoms: C_1  and  C_2
REMARK    2  A    between atoms: C_2  and  C_3
REMARK    3  A    between atoms: C_10  and  C_15
REMARK    4  A    between atoms: C_15  and  N_66
REMARK    5  A    between atoms: C_16  and  C_17
REMARK    6  A    between atoms: C_16  and  N_66
REMARK    7  A    between atoms: C_24  and  C_26
REMARK    8  A    between atoms: C_24  and  C_28
REMARK    9  A    between atoms: C_24  and  N_66
REMARK   10  A    between atoms: C_26  and  C_27
REMARK   11  A    between atoms: N_32  and  C_33
REMARK   12  A    between atoms: C_33  and  C_34
REMARK                            x       y       z     vdW  Elec       q    Type
REMARK                         _______ _______ _______ _____ _____    ______ ____
ROOT
ATOM      1  N   UNL     1      -0.478   3.080   1.026  0.00  0.00    +0.392 N 
ATOM      2  H   UNL     1      -1.491   3.031   1.187  0.00  0.00    -0.080 HD
ENDROOT
BRANCH   1   3
ATOM      3  C   UNL     1      -0.063   1.916   0.215  0.00  0.00    -0.036 C 
BRANCH   3  11
ATOM      4  C   UNL     1      -4.470  -2.417   0.526  0.00  0.00    -0.047 A 
ATOM      5  C   UNL     1      -3.923  -3.119   1.592  0.00  0.00    +0.005 A 
ATOM      6  C   UNL     1      -2.744  -2.707   2.175  0.00  0.00    +0.026 A 
ATOM      7  C   UNL     1      -2.094  -1.576   1.692  0.00  0.00    +0.049 A 
ATOM      8  C   UNL     1      -2.651  -0.867   0.611  0.00  0.00    -0.001 A 
ATOM      9  C   UNL     1      -3.849  -1.304   0.035  0.00  0.00    +0.013 A 
ATOM     10  C   UNL     1      -1.959   0.322   0.109  0.00  0.00    +0.017 A 
ATOM     11  C   UNL     1      -0.801   0.697   0.707  0.00  0.00    +0.001 A 
ATOM     12  C   UNL     1      -0.281  -0.052   1.784  0.00  0.00    +0.251 A 
ATOM     13  O   UNL     1       0.763   0.300   2.304  0.00  0.00    -0.268 OA
ATOM     14  N   UNL     1      -0.913  -1.142   2.255  0.00  0.00    -0.322 N 
ATOM     15  H   UNL     1      -0.530  -1.631   2.999  0.00  0.00    +0.169 HD
BRANCH   4  17
ATOM     16  C   UNL     1      -5.454  -3.868  -1.228  0.00  0.00    +0.009 C 
ATOM     17  C   UNL     1      -5.760  -2.887  -0.095  0.00  0.00    +0.032 C 
ENDBRANCH   4  17
ENDBRANCH   3  11
ENDBRANCH   1   3
BRANCH   1  18
ATOM     18  C   UNL     1       0.216   3.059   2.331  0.00  0.00    -0.042 C 
BRANCH  18  19
ATOM     19  C   UNL     1      -0.510   3.977   3.280  0.00  0.00    -0.064 A 
ATOM     20  C   UNL     1      -0.201   5.324   3.309  0.00  0.00    +0.004 A 
ATOM     21  C   UNL     1      -0.869   6.169   4.175  0.00  0.00    +0.038 A 
ATOM     22  C   UNL     1      -1.842   5.663   5.021  0.00  0.00    +0.123 A 
ATOM     23  C   UNL     1      -2.147   4.313   4.994  0.00  0.00    +0.038 A 
ATOM     24  C   UNL     1      -1.481   3.472   4.124  0.00  0.00    +0.004 A 
ATOM     25  F   UNL     1      -2.493   6.487   5.871  0.00  0.00    -0.205 F 
ENDBRANCH  18  19
ENDBRANCH   1  18
BRANCH   1  26
ATOM     26  C   UNL     1      -0.166   4.333   0.308  0.00  0.00    +0.003 C 
BRANCH  26  27
ATOM     27  C   UNL     1       1.203   4.255  -0.317  0.00  0.00    +0.139 A 
ATOM     28  N   UNL     1       1.607   3.385  -1.210  0.00  0.00    -0.115 NA
ATOM     29  N   UNL     1       2.836   3.648  -1.494  0.00  0.00    -0.023 NA
ATOM     30  N   UNL     1       3.227   4.663  -0.806  0.00  0.00    -0.044 NA
ATOM     31  N   UNL     1       2.246   5.070  -0.072  0.00  0.00    -0.223 N 
BRANCH  31  32
ATOM     32  C   UNL     1       2.266   6.203   0.857  0.00  0.00    +0.221 C 
BRANCH  32  33
ATOM     33  C   UNL     1       3.031   5.822   2.098  0.00  0.00    +0.126 A 
ATOM     34  C   UNL     1       4.328   6.085   2.335  0.00  0.00    +0.046 A 
ATOM     35  C   UNL     1       4.628   5.554   3.610  0.00  0.00    +0.041 A 
ATOM     36  C   UNL     1       3.498   4.991   4.074  0.00  0.00    +0.195 A 
ATOM     37  O   UNL     1       2.533   5.156   3.153  0.00  0.00    -0.466 OA
ENDBRANCH  32  33
ENDBRANCH  31  32
ENDBRANCH  26  27
BRANCH  26  38
ATOM     38  C   UNL     1      -1.215   4.546  -0.785  0.00  0.00    -0.011 C 
ATOM     39  C   UNL     1      -2.580   4.791  -0.140  0.00  0.00    +0.002 C 
ENDBRANCH  26  38
ENDBRANCH   1  26
TORSDOF 10
