REMARK  Name = ZINC10915832
REMARK  10 active torsions:
REMARK  status: ('A' for Active; 'I' for Inactive)
REMARK    1  A    between atoms: C_1  and  N_2
REMARK    2  A    between atoms: C_3  and  C_22
REMARK    3  A    between atoms: C_6  and  S_7
REMARK    4  A    between atoms: S_7  and  C_8
REMARK    5  A    between atoms: C_8  and  C_9
REMARK    6  A    between atoms: C_9  and  C_11
REMARK    7  A    between atoms: C_9  and  O_21
REMARK    8  A    between atoms: C_11  and  O_12
REMARK    9  A    between atoms: O_12  and  C_13
REMARK   10  A    between atoms: C_16  and  C_19
REMARK                            x       y       z     vdW  Elec       q    Type
REMARK                         _______ _______ _______ _____ _____    ______ ____
ROOT
ATOM      1  C   UNL     1       2.729   9.584  -0.036  0.00  0.00    +0.112 C 
ENDROOT
BRANCH   1   2
ATOM      2  S   UNL     1       3.530   8.001  -0.397  0.00  0.00    -0.083 S 
BRANCH   2   8
ATOM      3  C   UNL     1       3.336   4.708  -0.643  0.00  0.00    +0.153 C 
ATOM      4  N   UNL     1       2.193   5.545  -0.271  0.00  0.00    -0.305 N 
ATOM      5  C   UNL     1       0.914   5.126   0.021  0.00  0.00    +0.171 A 
ATOM      6  N   UNL     1       0.212   6.201   0.307  0.00  0.00    -0.128 NA
ATOM      7  N   UNL     1       0.953   7.246   0.210  0.00  0.00    -0.122 NA
ATOM      8  C   UNL     1       2.172   6.907  -0.142  0.00  0.00    +0.192 A 
BRANCH   5   9
ATOM      9  C   UNL     1       0.426   3.737   0.018  0.00  0.00    +0.056 A 
ATOM     10  C   UNL     1      -0.866   3.275   0.028  0.00  0.00    +0.019 A 
ATOM     11  C   UNL     1      -1.081   1.915   0.017  0.00  0.00    +0.008 A 
ATOM     12  C   UNL     1      -0.013   1.076   0.008  0.00  0.00    +0.046 A 
ATOM     13  S   UNL     1       1.361   2.216   0.001  0.00  0.00    -0.094 S 
ENDBRANCH   5   9
ENDBRANCH   2   8
ENDBRANCH   1   2
BRANCH   1  14
ATOM     14  C   UNL     1       3.745  10.717  -0.197  0.00  0.00    +0.162 C 
BRANCH  14  15
ATOM     15  O   UNL     1       4.831  10.515   0.710  0.00  0.00    -0.388 OA
ATOM     16  H   UNL     1       4.569  10.496   1.640  0.00  0.00    +0.210 HD
ENDBRANCH  14  15
BRANCH  14  17
ATOM     17  C   UNL     1       3.068  12.055   0.108  0.00  0.00    +0.261 C 
BRANCH  17  18
ATOM     18  O   UNL     1       3.983  13.121  -0.154  0.00  0.00    -0.489 OA
BRANCH  18  19
ATOM     19  C   UNL     1       3.536  14.384   0.067  0.00  0.00    +0.121 A 
ATOM     20  C   UNL     1       2.239  14.591   0.522  0.00  0.00    +0.047 A 
ATOM     21  C   UNL     1       1.784  15.870   0.753  0.00  0.00    +0.022 A 
ATOM     22  C   UNL     1       2.625  16.962   0.518  0.00  0.00    +0.052 A 
ATOM     23  C   UNL     1       3.926  16.750   0.055  0.00  0.00    +0.022 A 
ATOM     24  C   UNL     1       4.375  15.467  -0.168  0.00  0.00    +0.047 A 
BRANCH  22  25
ATOM     25  C   UNL     1       2.154  18.294   0.752  0.00  0.00    +0.099 C 
ATOM     26  N   UNL     1       1.780  19.350   0.938  0.00  0.00    -0.191 NA
ENDBRANCH  22  25
ENDBRANCH  18  19
ENDBRANCH  17  18
ENDBRANCH  14  17
ENDBRANCH   1  14
TORSDOF 9
