REMARK  Name = ZINC12654175
REMARK  12 active torsions:
REMARK  status: ('A' for Active; 'I' for Inactive)
REMARK    1  A    between atoms: C_1  and  C_2
REMARK    2  A    between atoms: C_2  and  O_4
REMARK    3  A    between atoms: O_4  and  C_5
REMARK    4  A    between atoms: C_5  and  C_6
REMARK    5  A    between atoms: C_6  and  C_8
REMARK    6  A    between atoms: C_8  and  O_34
REMARK    7  A    between atoms: C_13  and  C_33
REMARK    8  A    between atoms: C_23  and  C_32
REMARK    9  A    between atoms: C_26  and  O_29
REMARK   10  A    between atoms: O_29  and  P_30
REMARK   11  A    between atoms: O_34  and  C_35
REMARK   12  A    between atoms: C_35  and  C_37
REMARK                            x       y       z     vdW  Elec       q    Type
REMARK                         _______ _______ _______ _____ _____    ______ ____
ROOT
ATOM      1  C   UNL     1       1.531  -0.336   6.207  0.00  0.00    +0.180 C 
ATOM      2  C   UNL     1       0.309   0.095   7.058  0.00  0.00    +0.057 C 
ATOM      3  C   UNL     1      -0.744   0.650   6.063  0.00  0.00    +0.009 C 
ATOM      4  C   UNL     1      -0.219   0.184   4.694  0.00  0.00    +0.003 C 
ATOM      5  C   UNL     1       1.298   0.376   4.858  0.00  0.00    +0.018 C 
ATOM      6  C   UNL     1       2.064  -0.203   3.694  0.00  0.00    +0.011 C 
ATOM      7  C   UNL     1       1.184  -0.193   2.430  0.00  0.00    +0.005 C 
ATOM      8  C   UNL     1       0.302   1.048   2.441  0.00  0.00    +0.003 C 
ATOM      9  C   UNL     1      -0.784   0.935   3.500  0.00  0.00    +0.000 C 
ATOM     10  C   UNL     1      -1.968   0.111   2.982  0.00  0.00    +0.031 C 
ATOM     11  C   UNL     1      -2.370   0.501   1.597  0.00  0.00    -0.027 C 
ATOM     12  C   UNL     1      -1.578   1.081   0.746  0.00  0.00    -0.065 C 
ATOM     13  C   UNL     1      -0.172   1.480   1.075  0.00  0.00    -0.008 C 
ATOM     14  C   UNL     1       0.776   1.000  -0.020  0.00  0.00    +0.014 C 
ATOM     15  C   UNL     1       0.278   1.429  -1.402  0.00  0.00    +0.033 C 
ATOM     16  C   UNL     1      -1.106   0.844  -1.667  0.00  0.00    +0.134 C 
ATOM     17  C   UNL     1      -2.107   1.389  -0.644  0.00  0.00    +0.063 C 
ATOM     18  C   UNL     1      -0.131   3.019   1.076  0.00  0.00    +0.016 C 
ATOM     19  C   UNL     1       1.673   1.848   5.076  0.00  0.00    +0.016 C 
ENDROOT
BRANCH   1  20
ATOM     20  C   UNL     1       2.809   0.144   6.828  0.00  0.00    +0.214 C 
ATOM     21  O   UNL     1       2.787   1.032   7.646  0.00  0.00    -0.289 OA
BRANCH  20  22
ATOM     22  C   UNL     1       4.122  -0.481   6.430  0.00  0.00    +0.310 C 
BRANCH  22  23
ATOM     23  O   UNL     1       5.186   0.063   7.255  0.00  0.00    -0.457 OA
BRANCH  23  25
ATOM     24  C   UNL     1       7.583   0.125   7.843  0.00  0.00    +0.136 C 
ATOM     25  C   UNL     1       6.428  -0.394   7.026  0.00  0.00    +0.304 C 
ATOM     26  O   UNL     1       6.619  -1.220   6.165  0.00  0.00    -0.251 OA
ENDBRANCH  23  25
ENDBRANCH  22  23
ENDBRANCH  20  22
ENDBRANCH   1  20
BRANCH  16  27
ATOM     27  O   UNL     1      -1.534   1.209  -2.984  0.00  0.00    -0.280 OA
BRANCH  27  28
ATOM     28  P   UNL     1      -1.882   0.128  -4.124  0.00  0.00    +0.532 P 
ATOM     29  O   UNL     1      -0.728  -0.780  -4.312  0.00  0.00    -0.222 OA
ATOM     30  O   UNL     1      -3.170  -0.728  -3.676  0.00  0.00    -0.115 OA
ATOM     31  O   UNL     1      -2.198   0.888  -5.507  0.00  0.00    -0.115 OA
ENDBRANCH  27  28
ENDBRANCH  16  27
BRANCH   1  32
ATOM     32  O   UNL     1       1.544  -1.773   6.024  0.00  0.00    -0.450 OA
BRANCH  32  33
ATOM     33  C   UNL     1       1.624  -2.528   7.131  0.00  0.00    +0.305 C 
ATOM     34  O   UNL     1       1.793  -2.005   8.207  0.00  0.00    -0.251 OA
ATOM     35  C   UNL     1       1.504  -4.027   7.032  0.00  0.00    +0.136 C 
ENDBRANCH  32  33
ENDBRANCH   1  32
TORSDOF 8
