REMARK  Name = ZINC09716423
REMARK  6 active torsions:
REMARK  status: ('A' for Active; 'I' for Inactive)
REMARK    1  A    between atoms: C_4  and  C_7
REMARK    2  A    between atoms: C_7  and  C_9
REMARK    3  A    between atoms: C_20  and  N_35
REMARK    4  A    between atoms: C_21  and  C_33
REMARK    5  A    between atoms: C_22  and  C_24
REMARK    6  A    between atoms: C_27  and  N_30
REMARK                            x       y       z     vdW  Elec       q    Type
REMARK                         _______ _______ _______ _____ _____    ______ ____
ROOT
ATOM      1  C   UNL     1       4.758   2.549  -0.062  0.00  0.00    +0.139 C 
ATOM      2  C   UNL     1       3.249   2.469  -0.023  0.00  0.00    +0.128 A 
ATOM      3  N   UNL     1       2.496   1.419  -0.018  0.00  0.00    -0.231 NA
ATOM      4  C   UNL     1       1.186   1.792   0.000  0.00  0.00    +0.090 A 
ATOM      5  C   UNL     1      -0.013   1.076   0.008  0.00  0.00    +0.030 A 
ATOM      6  C   UNL     1      -1.213   1.749   0.017  0.00  0.00    +0.002 A 
ATOM      7  C   UNL     1      -1.241   3.136   0.031  0.00  0.00    +0.002 A 
ATOM      8  C   UNL     1      -0.067   3.859   0.025  0.00  0.00    +0.028 A 
ATOM      9  C   UNL     1       1.154   3.199   0.010  0.00  0.00    +0.075 A 
ATOM     10  N   UNL     1       2.467   3.602   0.004  0.00  0.00    -0.283 N 
ATOM     11  C   UNL     1       3.019   4.870  -0.002  0.00  0.00    +0.116 C 
ATOM     12  C   UNL     1       4.345   4.997   0.282  0.00  0.00    +0.076 C 
ATOM     13  C   UNL     1       5.193   3.820   0.672  0.00  0.00    +0.081 C 
ENDROOT
BRANCH  13  14
ATOM     14  C   UNL     1       5.073   3.597   2.158  0.00  0.00    -0.038 A 
ATOM     15  C   UNL     1       3.844   3.293   2.714  0.00  0.00    +0.006 A 
ATOM     16  C   UNL     1       3.734   3.084   4.076  0.00  0.00    +0.033 A 
ATOM     17  C   UNL     1       4.852   3.188   4.883  0.00  0.00    +0.126 A 
ATOM     18  C   UNL     1       6.080   3.497   4.328  0.00  0.00    +0.033 A 
ATOM     19  C   UNL     1       6.190   3.701   2.965  0.00  0.00    +0.006 A 
BRANCH  17  20
ATOM     20  N   UNL     1       4.734   2.968   6.342  0.00  0.00    +0.056 N 
ATOM     21  O   UNL     1       5.718   3.059   7.053  0.00  0.00    -0.126 OA
ATOM     22  O   UNL     1       3.652   2.696   6.831  0.00  0.00    -0.126 OA
ENDBRANCH  17  20
ENDBRANCH  13  14
BRANCH  11  23
ATOM     23  N   UNL     1       2.250   5.972  -0.288  0.00  0.00    -0.343 N 
ATOM     24  H   UNL     1       1.307   5.867  -0.489  0.00  0.00    +0.144 HD
ATOM     25  H   UNL     1       2.651   6.856  -0.288  0.00  0.00    +0.144 HD
ENDBRANCH  11  23
BRANCH   1  26
ATOM     26  C   UNL     1       5.347   1.342   0.621  0.00  0.00    +0.174 C 
ATOM     27  O   UNL     1       5.580   1.371   1.810  0.00  0.00    -0.291 OA
BRANCH  26  31
ATOM     28  C   UNL     1       6.190  -2.160  -1.620  0.00  0.00    +0.000 A 
ATOM     29  C   UNL     1       6.458  -2.130  -0.263  0.00  0.00    +0.001 A 
ATOM     30  C   UNL     1       6.187  -0.996   0.473  0.00  0.00    +0.011 A 
ATOM     31  C   UNL     1       5.640   0.127  -0.157  0.00  0.00    +0.018 A 
ATOM     32  C   UNL     1       5.367   0.087  -1.528  0.00  0.00    +0.011 A 
ATOM     33  C   UNL     1       5.649  -1.053  -2.250  0.00  0.00    +0.001 A 
ENDBRANCH  26  31
ENDBRANCH   1  26
BRANCH  12  34
ATOM     34  C   UNL     1       4.949   6.293   0.207  0.00  0.00    +0.099 C 
ATOM     35  N   UNL     1       5.429   7.322   0.148  0.00  0.00    -0.191 NA
ENDBRANCH  12  34
TORSDOF 6
