REMARK  Name = ZINC41017125
REMARK  10 active torsions:
REMARK  status: ('A' for Active; 'I' for Inactive)
REMARK    1  A    between atoms: C_1  and  C_2
REMARK    2  A    between atoms: C_2  and  C_3
REMARK    3  A    between atoms: C_2  and  C_4
REMARK    4  A    between atoms: C_2  and  C_5
REMARK    5  A    between atoms: C_8  and  O_12
REMARK    6  A    between atoms: O_12  and  C_13
REMARK    7  A    between atoms: C_13  and  C_14
REMARK    8  A    between atoms: C_14  and  C_15
REMARK    9  A    between atoms: C_15  and  C_16
REMARK   10  A    between atoms: C_21  and  C_24
REMARK                            x       y       z     vdW  Elec       q    Type
REMARK                         _______ _______ _______ _____ _____    ______ ____
ROOT
ATOM      1  C   UNL     1       2.814  -4.299  -8.852  0.00  0.00    +0.219 C 
ATOM      2  O   UNL     1       3.963  -3.914  -8.914  0.00  0.00    -0.275 OA
ATOM      3  N   UNL     1       2.310  -5.075  -9.832  0.00  0.00    -0.265 N 
ATOM      4  C   UNL     1       3.106  -5.433 -10.914  0.00  0.00    +0.165 A 
ATOM      5  N   UNL     1       2.803  -6.171 -11.965  0.00  0.00    -0.225 NA
ATOM      6  C   UNL     1       3.695  -6.415 -12.914  0.00  0.00    +0.080 A 
ATOM      7  C   UNL     1       4.953  -5.892 -12.802  0.00  0.00    +0.076 A 
ATOM      8  S   UNL     1       4.809  -5.011 -11.253  0.00  0.00    -0.060 S 
ATOM      9  H   UNL     1       1.392  -5.383  -9.783  0.00  0.00    +0.157 HD
ENDROOT
BRANCH   6  10
ATOM     10  C   UNL     1       3.331  -7.248 -14.086  0.00  0.00    +0.001 A 
ATOM     11  C   UNL     1       4.272  -7.509 -15.081  0.00  0.00    +0.010 A 
ATOM     12  C   UNL     1       3.921  -8.281 -16.165  0.00  0.00    +0.004 A 
ATOM     13  C   UNL     1       2.638  -8.804 -16.278  0.00  0.00    -0.044 A 
ATOM     14  C   UNL     1       1.705  -8.554 -15.296  0.00  0.00    -0.044 A 
ATOM     15  C   UNL     1       2.051  -7.779 -14.198  0.00  0.00    +0.014 A 
ATOM     16  C   UNL     1       0.303  -9.104 -15.349  0.00  0.00    +0.035 C 
ATOM     17  C   UNL     1      -0.044  -9.554 -16.766  0.00  0.00    +0.005 C 
ATOM     18  C   UNL     1       1.073 -10.476 -17.269  0.00  0.00    +0.005 C 
ATOM     19  C   UNL     1       2.326  -9.633 -17.498  0.00  0.00    +0.035 C 
ENDBRANCH   6  10
BRANCH   1  20
ATOM     20  C   UNL     1       1.951  -3.910  -7.680  0.00  0.00    +0.099 C 
BRANCH  20  21
ATOM     21  C   UNL     1       2.759  -3.035  -6.720  0.00  0.00    +0.050 C 
BRANCH  21  22
ATOM     22  C   UNL     1       1.883  -2.640  -5.529  0.00  0.00    +0.229 C 
BRANCH  22  23
ATOM     23  O   UNL     1       2.638  -1.823  -4.633  0.00  0.00    -0.491 OA
BRANCH  23  27
ATOM     24  C   UNL     1       0.707  -0.490  -1.238  0.00  0.00    -0.041 A 
ATOM     25  C   UNL     1       0.035  -1.284  -2.148  0.00  0.00    +0.008 A 
ATOM     26  C   UNL     1       0.679  -1.732  -3.285  0.00  0.00    +0.047 A 
ATOM     27  C   UNL     1       2.002  -1.383  -3.514  0.00  0.00    +0.134 A 
ATOM     28  C   UNL     1       2.675  -0.586  -2.600  0.00  0.00    +0.060 A 
ATOM     29  C   UNL     1       2.024  -0.136  -1.466  0.00  0.00    +0.023 A 
ATOM     30 BR   UNL     1       4.479  -0.108  -2.908  0.00  0.00    -0.047 Br
BRANCH  24  32
ATOM     31  C   UNL     1      -0.019   1.526   0.010  0.00  0.00    +0.015 C 
ATOM     32  C   UNL     1       0.002  -0.004   0.002  0.00  0.00    -0.013 C 
ATOM     33  C   UNL     1       0.742  -0.511   1.242  0.00  0.00    +0.015 C 
ATOM     34  C   UNL     1      -1.433  -0.534   0.013  0.00  0.00    +0.015 C 
ENDBRANCH  24  32
ENDBRANCH  23  27
ENDBRANCH  22  23
ENDBRANCH  21  22
ENDBRANCH  20  21
ENDBRANCH   1  20
TORSDOF 7
