REMARK  Name = ZINC13523690
REMARK  7 active torsions:
REMARK  status: ('A' for Active; 'I' for Inactive)
REMARK    1  A    between atoms: C_1  and  O_2
REMARK    2  A    between atoms: O_2  and  C_3
REMARK    3  A    between atoms: C_6  and  C_9
REMARK    4  A    between atoms: C_9  and  C_24
REMARK    5  A    between atoms: C_11  and  C_17
REMARK    6  A    between atoms: C_27  and  O_31
REMARK    7  A    between atoms: C_29  and  O_30
REMARK                            x       y       z     vdW  Elec       q    Type
REMARK                         _______ _______ _______ _____ _____    ______ ____
ROOT
ATOM      1  C   UNL     1      -4.981  -2.629   0.035  0.00  0.00    +0.090 C 
ATOM      2  C   UNL     1      -4.874  -3.958  -0.727  0.00  0.00    +0.065 C 
ATOM      3  C   UNL     1      -6.236  -4.655  -0.692  0.00  0.00    +0.115 C 
ATOM      4  N   UNL     1      -7.292  -3.735  -1.104  0.00  0.00    -0.360 N 
ATOM      5  C   UNL     1      -7.152  -2.385  -1.056  0.00  0.00    +0.140 C 
ATOM      6  N   UNL     1      -5.985  -1.801  -0.648  0.00  0.00    -0.311 N 
ATOM      7  S   UNL     1      -8.428  -1.422  -1.502  0.00  0.00    -0.016 SA
ATOM      8  H   UNL     1      -5.823  -0.858  -0.807  0.00  0.00    +0.149 HD
ATOM      9  H   UNL     1      -8.129  -4.104  -1.426  0.00  0.00    +0.162 HD
ENDROOT
BRANCH   3  10
ATOM     10  C   UNL     1      -6.213  -5.837  -1.626  0.00  0.00    -0.007 A 
ATOM     11  C   UNL     1      -6.677  -5.702  -2.921  0.00  0.00    +0.007 A 
ATOM     12  C   UNL     1      -6.656  -6.787  -3.779  0.00  0.00    +0.000 A 
ATOM     13  C   UNL     1      -6.173  -8.006  -3.341  0.00  0.00    +0.001 A 
ATOM     14  C   UNL     1      -5.710  -8.141  -2.046  0.00  0.00    +0.020 A 
ATOM     15  C   UNL     1      -5.724  -7.055  -1.189  0.00  0.00    +0.046 A 
ATOM     16 CL   UNL     1      -5.136  -7.222   0.435  0.00  0.00    -0.083 Cl
ENDBRANCH   3  10
BRANCH   1  20
ATOM     17  C   UNL     1      -1.200  -0.637   0.010  0.00  0.00    +0.120 A 
ATOM     18  C   UNL     1      -2.375   0.101   0.019  0.00  0.00    +0.046 A 
ATOM     19  C   UNL     1      -3.596  -0.545   0.027  0.00  0.00    +0.009 A 
ATOM     20  C   UNL     1      -3.648  -1.927   0.026  0.00  0.00    -0.019 A 
ATOM     21  C   UNL     1      -2.479  -2.665   0.017  0.00  0.00    +0.009 A 
ATOM     22  C   UNL     1      -1.255  -2.024   0.003  0.00  0.00    +0.046 A 
BRANCH  17  24
ATOM     23  C   UNL     1      -0.017   1.425   0.010  0.00  0.00    +0.277 C 
ATOM     24  O   UNL     1       0.002  -0.004   0.002  0.00  0.00    -0.495 OA
ENDBRANCH  17  24
ENDBRANCH   1  20
BRANCH   1  25
ATOM     25  C   UNL     1      -5.413  -2.887   1.456  0.00  0.00    +0.022 A 
ATOM     26  C   UNL     1      -6.598  -2.352   1.925  0.00  0.00    +0.013 A 
ATOM     27  C   UNL     1      -6.996  -2.587   3.227  0.00  0.00    +0.046 A 
ATOM     28  C   UNL     1      -6.207  -3.360   4.067  0.00  0.00    +0.120 A 
ATOM     29  C   UNL     1      -5.018  -3.898   3.598  0.00  0.00    +0.091 A 
ATOM     30  C   UNL     1      -4.623  -3.666   2.290  0.00  0.00    +0.126 A 
BRANCH  30  31
ATOM     31  O   UNL     1      -3.461  -4.196   1.826  0.00  0.00    -0.506 OA
ATOM     32  H   UNL     1      -2.690  -3.627   1.954  0.00  0.00    +0.292 HD
ENDBRANCH  30  31
BRANCH  28  33
ATOM     33  O   UNL     1      -6.599  -3.590   5.347  0.00  0.00    -0.507 OA
ATOM     34  H   UNL     1      -7.144  -4.381   5.456  0.00  0.00    +0.292 HD
ENDBRANCH  28  33
ENDBRANCH   1  25
TORSDOF 6
