REMARK  Name = ZINC35745267
REMARK  17 active torsions:
REMARK  status: ('A' for Active; 'I' for Inactive)
REMARK    1  A    between atoms: C_1  and  C_2
REMARK    2  A    between atoms: C_5  and  C_8
REMARK    3  A    between atoms: C_8  and  N_9
REMARK    4  A    between atoms: N_9  and  C_10
REMARK    5  A    between atoms: N_9  and  C_34
REMARK    6  A    between atoms: C_10  and  C_11
REMARK    7  A    between atoms: C_14  and  C_16
REMARK    8  A    between atoms: C_16  and  C_17
REMARK    9  A    between atoms: C_16  and  C_25
REMARK   10  A    between atoms: C_16  and  O_33
REMARK   11  A    between atoms: C_20  and  O_23
REMARK   12  A    between atoms: O_23  and  C_24
REMARK   13  A    between atoms: C_28  and  O_31
REMARK   14  A    between atoms: O_31  and  C_32
REMARK   15  A    between atoms: C_34  and  C_35
REMARK   16  A    between atoms: C_35  and  C_36
REMARK   17  A    between atoms: C_35  and  C_37
REMARK                            x       y       z     vdW  Elec       q    Type
REMARK                         _______ _______ _______ _____ _____    ______ ____
ROOT
ATOM      1  C   UNL     1       4.191  -5.931   0.781  0.00  0.00    +0.089 A 
ATOM      2  C   UNL     1       5.463  -6.085   1.190  0.00  0.00    +0.043 A 
ATOM      3  C   UNL     1       6.234  -6.361   0.037  0.00  0.00    +0.048 A 
ATOM      4  C   UNL     1       5.387  -6.359  -1.007  0.00  0.00    +0.146 A 
ATOM      5  O   UNL     1       4.150  -6.104  -0.550  0.00  0.00    -0.463 OA
ENDROOT
BRANCH   1   6
ATOM      6  C   UNL     1       3.011  -5.622   1.667  0.00  0.00    -0.003 C 
BRANCH   6   7
ATOM      7  N   UNL     1       2.838  -4.167   1.762  0.00  0.00    +0.387 N 
ATOM      8  H   UNL     1       3.703  -3.744   2.063  0.00  0.00    -0.081 HD
BRANCH   7   9
ATOM      9  C   UNL     1       2.462  -3.631   0.447  0.00  0.00    -0.042 C 
BRANCH   9  14
ATOM     10  C   UNL     1       2.238   2.138   0.707  0.00  0.00    +0.044 C 
ATOM     11  C   UNL     1       2.296   0.633   0.639  0.00  0.00    -0.050 A 
ATOM     12  C   UNL     1       3.479   0.002   0.303  0.00  0.00    +0.003 A 
ATOM     13  C   UNL     1       3.533  -1.378   0.241  0.00  0.00    +0.002 A 
ATOM     14  C   UNL     1       2.404  -2.127   0.516  0.00  0.00    -0.064 A 
ATOM     15  C   UNL     1       1.221  -1.495   0.854  0.00  0.00    +0.002 A 
ATOM     16  C   UNL     1       1.169  -0.116   0.920  0.00  0.00    +0.003 A 
ENDBRANCH   9  14
ENDBRANCH   7   9
BRANCH   7  17
ATOM     17  C   UNL     1       1.780  -3.863   2.736  0.00  0.00    -0.075 C 
BRANCH  17  18
ATOM     18  C   UNL     1       2.232  -4.298   4.131  0.00  0.00    -0.034 C 
ATOM     19  C   UNL     1       3.461  -3.486   4.546  0.00  0.00    +0.005 C 
ATOM     20  C   UNL     1       1.099  -4.056   5.132  0.00  0.00    +0.005 C 
ENDBRANCH  17  18
ENDBRANCH   7  17
ENDBRANCH   6   7
ENDBRANCH   1   6
BRANCH   4  21
ATOM     21  C   UNL     1       5.761  -6.607  -2.446  0.00  0.00    +0.174 C 
BRANCH  21  22
ATOM     22  C   UNL     1       4.597  -7.237  -3.166  0.00  0.00    -0.004 A 
ATOM     23  C   UNL     1       4.722  -8.505  -3.704  0.00  0.00    +0.011 A 
ATOM     24  C   UNL     1       3.657  -9.084  -4.365  0.00  0.00    +0.046 A 
ATOM     25  C   UNL     1       2.460  -8.394  -4.489  0.00  0.00    +0.120 A 
ATOM     26  C   UNL     1       2.337  -7.122  -3.948  0.00  0.00    +0.046 A 
ATOM     27  C   UNL     1       3.403  -6.549  -3.284  0.00  0.00    +0.011 A 
BRANCH  25  28
ATOM     28  O   UNL     1       1.411  -8.962  -5.140  0.00  0.00    -0.495 OA
ATOM     29  C   UNL     1       0.210  -8.193  -5.229  0.00  0.00    +0.277 C 
ENDBRANCH  25  28
ENDBRANCH  21  22
BRANCH  21  30
ATOM     30  C   UNL     1       6.112  -5.299  -3.107  0.00  0.00    -0.004 A 
ATOM     31  C   UNL     1       5.348  -4.173  -2.858  0.00  0.00    +0.011 A 
ATOM     32  C   UNL     1       5.668  -2.973  -3.462  0.00  0.00    +0.046 A 
ATOM     33  C   UNL     1       6.756  -2.897  -4.319  0.00  0.00    +0.120 A 
ATOM     34  C   UNL     1       7.521  -4.028  -4.567  0.00  0.00    +0.046 A 
ATOM     35  C   UNL     1       7.200  -5.225  -3.956  0.00  0.00    +0.011 A 
BRANCH  33  36
ATOM     36  O   UNL     1       7.072  -1.718  -4.916  0.00  0.00    -0.495 OA
ATOM     37  C   UNL     1       8.205  -1.714  -5.786  0.00  0.00    +0.277 C 
ENDBRANCH  33  36
ENDBRANCH  21  30
BRANCH  21  38
ATOM     38  O   UNL     1       6.887  -7.485  -2.501  0.00  0.00    -0.372 OA
ATOM     39  H   UNL     1       6.732  -8.348  -2.093  0.00  0.00    +0.212 HD
ENDBRANCH  21  38
ENDBRANCH   4  21
TORSDOF 12
