REMARK  Name = ZINC13723655
REMARK  7 active torsions:
REMARK  status: ('A' for Active; 'I' for Inactive)
REMARK    1  A    between atoms: C_1  and  C_2
REMARK    2  A    between atoms: C_5  and  S_8
REMARK    3  A    between atoms: S_8  and  N_11
REMARK    4  A    between atoms: N_11  and  C_12
REMARK    5  A    between atoms: C_12  and  C_13
REMARK    6  A    between atoms: C_16  and  C_19
REMARK    7  A    between atoms: C_19  and  N_21
REMARK                            x       y       z     vdW  Elec       q    Type
REMARK                         _______ _______ _______ _____ _____    ______ ____
ROOT
ATOM      1  C   UNL     1       3.777  -5.564   1.059  0.00  0.00    +0.005 C 
ATOM      2  C   UNL     1       4.572  -5.151  -0.181  0.00  0.00    +0.005 C 
ATOM      3  C   UNL     1       5.849  -5.989  -0.270  0.00  0.00    +0.013 C 
ATOM      4  C   UNL     1       6.699  -5.757   0.981  0.00  0.00    +0.077 C 
ATOM      5  C   UNL     1       5.904  -6.170   2.221  0.00  0.00    +0.013 C 
ATOM      6  C   UNL     1       4.627  -5.332   2.310  0.00  0.00    +0.005 C 
ENDROOT
BRANCH   4   7
ATOM      7  C   UNL     1       7.957  -6.582   0.893  0.00  0.00    +0.242 C 
ATOM      8  O   UNL     1       8.155  -7.288  -0.077  0.00  0.00    -0.273 OA
BRANCH   7   9
ATOM      9  N   UNL     1       8.851  -6.539   1.877  0.00  0.00    -0.147 NA
ATOM     10  C   UNL     1       9.909  -7.344   1.850  0.00  0.00    +0.198 A 
ATOM     11  N   UNL     1      10.247  -8.166   0.822  0.00  0.00    -0.326 N 
ATOM     12  H   UNL     1       9.759  -8.265  -0.011  0.00  0.00    +0.169 HD
ATOM     13  C   UNL     1      11.412  -8.842   1.169  0.00  0.00    +0.065 A 
ATOM     14  C   UNL     1      12.190  -9.786   0.514  0.00  0.00    +0.028 A 
ATOM     15  C   UNL     1      13.322 -10.289   1.126  0.00  0.00    +0.002 A 
ATOM     16  C   UNL     1      13.683  -9.856   2.390  0.00  0.00    +0.002 A 
ATOM     17  C   UNL     1      12.915  -8.917   3.051  0.00  0.00    +0.028 A 
ATOM     18  C   UNL     1      11.777  -8.405   2.445  0.00  0.00    +0.065 A 
ATOM     19  N   UNL     1      10.828  -7.470   2.844  0.00  0.00    -0.326 N 
ATOM     20  H   UNL     1      10.822  -6.990   3.687  0.00  0.00    +0.169 HD
ENDBRANCH   7   9
ENDBRANCH   4   7
BRANCH   1  21
ATOM     21  C   UNL     1       2.500  -4.726   1.148  0.00  0.00    +0.109 C 
BRANCH  21  22
ATOM     22  N   UNL     1       1.631  -5.037   0.010  0.00  0.00    -0.190 NA
ATOM     23  H   UNL     1       1.988  -5.515  -0.756  0.00  0.00    +0.148 HD
BRANCH  22  24
ATOM     24  S   UNL     1       0.042  -4.574   0.030  0.00  0.00    +0.058 S 
ATOM     25  O   UNL     1      -0.486  -4.987   1.283  0.00  0.00    -0.153 OA
ATOM     26  O   UNL     1      -0.519  -4.991  -1.208  0.00  0.00    -0.153 OA
BRANCH  24  31
ATOM     27  C   UNL     1      -0.060   1.459   0.023  0.00  0.00    +0.044 C 
ATOM     28  C   UNL     1      -0.035  -0.048   0.025  0.00  0.00    -0.050 A 
ATOM     29  C   UNL     1      -0.038  -0.741  -1.172  0.00  0.00    +0.005 A 
ATOM     30  C   UNL     1      -0.014  -2.123  -1.170  0.00  0.00    +0.029 A 
ATOM     31  C   UNL     1       0.013  -2.812   0.028  0.00  0.00    +0.105 A 
ATOM     32  C   UNL     1       0.017  -2.119   1.224  0.00  0.00    +0.029 A 
ATOM     33  C   UNL     1      -0.003  -0.737   1.222  0.00  0.00    +0.005 A 
ENDBRANCH  24  31
ENDBRANCH  22  24
ENDBRANCH  21  22
ENDBRANCH   1  21
TORSDOF 6
