REMARK  Name = ZINC04421201
REMARK  11 active torsions:
REMARK  status: ('A' for Active; 'I' for Inactive)
REMARK    1  A    between atoms: C_1  and  C_2
REMARK    2  A    between atoms: C_2  and  C_3
REMARK    3  A    between atoms: C_3  and  C_4
REMARK    4  A    between atoms: C_4  and  O_5
REMARK    5  A    between atoms: O_5  and  C_6
REMARK    6  A    between atoms: C_9  and  O_27
REMARK    7  A    between atoms: C_17  and  N_24
REMARK    8  A    between atoms: O_27  and  C_28
REMARK    9  A    between atoms: C_28  and  C_29
REMARK   10  A    between atoms: C_29  and  C_30
REMARK   11  A    between atoms: C_30  and  C_31
REMARK                            x       y       z     vdW  Elec       q    Type
REMARK                         _______ _______ _______ _____ _____    ______ ____
ROOT
ATOM      1  C   UNL     1       1.514  -3.834  -2.603  0.00  0.00    +0.142 A 
ATOM      2  C   UNL     1       0.979  -4.689  -1.653  0.00  0.00    +0.051 A 
ATOM      3  C   UNL     1       1.085  -6.058  -1.814  0.00  0.00    +0.051 A 
ATOM      4  C   UNL     1       1.724  -6.576  -2.926  0.00  0.00    +0.143 A 
ATOM      5  C   UNL     1       2.264  -5.719  -3.887  0.00  0.00    +0.095 A 
ATOM      6  C   UNL     1       2.153  -4.348  -3.725  0.00  0.00    +0.080 A 
ATOM      7  N   UNL     1       2.756  -3.689  -4.806  0.00  0.00    -0.373 NA
ATOM      8  C   UNL     1       3.269  -4.726  -5.704  0.00  0.00    +0.189 C 
ATOM      9  N   UNL     1       2.946  -6.007  -5.079  0.00  0.00    -0.309 N 
ATOM     10  C   UNL     1       4.750  -4.584  -5.924  0.00  0.00    +0.025 A 
ATOM     11  C   UNL     1       5.837  -4.604  -5.078  0.00  0.00    +0.042 A 
ATOM     12  C   UNL     1       7.113  -4.442  -5.588  0.00  0.00    +0.127 A 
ATOM     13  C   UNL     1       7.294  -4.260  -6.947  0.00  0.00    +0.034 A 
ATOM     14  C   UNL     1       6.208  -4.240  -7.797  0.00  0.00    +0.026 A 
ATOM     15  C   UNL     1       4.920  -4.403  -7.292  0.00  0.00    +0.041 A 
ATOM     16  N   UNL     1       3.683  -4.422  -7.939  0.00  0.00    -0.282 N 
ATOM     17  C   UNL     1       2.663  -4.608  -7.080  0.00  0.00    +0.262 C 
ATOM     18  O   UNL     1       1.484  -4.668  -7.359  0.00  0.00    -0.271 OA
ATOM     19  H   UNL     1       3.155  -6.888  -5.427  0.00  0.00    +0.149 HD
ATOM     20  H   UNL     1       2.074  -3.122  -5.287  0.00  0.00    +0.126 HD
ATOM     21  H   UNL     1       3.570  -4.314  -8.896  0.00  0.00    +0.155 HD
ATOM     22  H   UNL     1       3.516  -3.112  -4.476  0.00  0.00    +0.126 HD
ENDROOT
BRANCH  12  23
ATOM     23  N   UNL     1       8.282  -4.462  -4.680  0.00  0.00    +0.056 N 
ATOM     24  O   UNL     1       8.123  -4.621  -3.492  0.00  0.00    -0.126 OA
ATOM     25  O   UNL     1       9.397  -4.320  -5.127  0.00  0.00    -0.126 OA
ENDBRANCH  12  23
BRANCH   1  26
ATOM     26  O   UNL     1       1.408  -2.488  -2.441  0.00  0.00    -0.490 OA
BRANCH  26  27
ATOM     27  C   UNL     1       0.739  -2.027  -1.265  0.00  0.00    +0.229 C 
BRANCH  27  28
ATOM     28  C   UNL     1       0.718  -0.497  -1.257  0.00  0.00    +0.041 C 
BRANCH  28  30
ATOM     29  C   UNL     1      -0.019   1.526   0.010  0.00  0.00    +0.004 C 
ATOM     30  C   UNL     1       0.002  -0.004   0.002  0.00  0.00    -0.000 C 
ENDBRANCH  28  30
ENDBRANCH  27  28
ENDBRANCH  26  27
ENDBRANCH   1  26
BRANCH   4  31
ATOM     31  O   UNL     1       1.829  -7.924  -3.083  0.00  0.00    -0.490 OA
BRANCH  31  32
ATOM     32  C   UNL     1       1.255  -8.742  -2.062  0.00  0.00    +0.229 C 
BRANCH  32  33
ATOM     33  C   UNL     1       1.469 -10.217  -2.410  0.00  0.00    +0.041 C 
BRANCH  33  34
ATOM     34  C   UNL     1       0.855 -11.093  -1.317  0.00  0.00    -0.000 C 
ATOM     35  C   UNL     1       1.069 -12.567  -1.664  0.00  0.00    +0.004 C 
ENDBRANCH  33  34
ENDBRANCH  32  33
ENDBRANCH  31  32
ENDBRANCH   4  31
TORSDOF 9
