REMARK  Name = ZINC27596564
REMARK  13 active torsions:
REMARK  status: ('A' for Active; 'I' for Inactive)
REMARK    1  A    between atoms: C_1  and  C_2
REMARK    2  A    between atoms: C_2  and  C_3
REMARK    3  A    between atoms: C_6  and  C_9
REMARK    4  A    between atoms: C_9  and  C_11
REMARK    5  A    between atoms: C_9  and  N_34
REMARK    6  A    between atoms: C_11  and  N_12
REMARK    7  A    between atoms: C_13  and  C_15
REMARK    8  A    between atoms: C_19  and  S_21
REMARK    9  A    between atoms: S_21  and  N_24
REMARK   10  A    between atoms: C_26  and  C_33
REMARK   11  A    between atoms: C_29  and  C_32
REMARK   12  A    between atoms: N_34  and  C_35
REMARK   13  A    between atoms: N_34  and  C_36
REMARK                            x       y       z     vdW  Elec       q    Type
REMARK                         _______ _______ _______ _____ _____    ______ ____
ROOT
ATOM      1  N   UNL     1       3.482  -0.369  -0.750  0.00  0.00    -0.313 N 
ATOM      2  C   UNL     1       3.999   0.779  -1.232  0.00  0.00    +0.244 C 
ATOM      3  O   UNL     1       5.204   0.916  -1.312  0.00  0.00    -0.270 OA
ATOM      4  H   UNL     1       2.392  -0.494  -0.677  0.00  0.00    +0.149 HD
ENDROOT
BRANCH   2   5
ATOM      5  C   UNL     1       3.100   1.871  -1.662  0.00  0.00    +0.039 A 
ATOM      6  C   UNL     1       1.715   1.716  -1.571  0.00  0.00    +0.013 A 
ATOM      7  C   UNL     1       0.882   2.736  -1.980  0.00  0.00    +0.003 A 
ATOM      8  C   UNL     1       1.415   3.915  -2.470  0.00  0.00    +0.028 A 
ATOM      9  C   UNL     1       2.786   4.075  -2.562  0.00  0.00    +0.106 A 
ATOM     10  C   UNL     1       3.631   3.060  -2.162  0.00  0.00    +0.041 A 
BRANCH   9  11
ATOM     11  S   UNL     1       3.455   5.578  -3.194  0.00  0.00    +0.061 S 
ATOM     12  O   UNL     1       2.467   6.579  -2.990  0.00  0.00    -0.153 OA
ATOM     13  O   UNL     1       4.771   5.689  -2.670  0.00  0.00    -0.153 OA
BRANCH  11  14
ATOM     14  N   UNL     1       3.612   5.394  -4.832  0.00  0.00    -0.172 NA
ATOM     15  C   UNL     1       4.853   4.865  -5.419  0.00  0.00    +0.140 C 
ATOM     16  C   UNL     1       4.480   3.725  -6.380  0.00  0.00    +0.131 C 
ATOM     17  O   UNL     1       3.491   4.192  -7.301  0.00  0.00    -0.371 OA
ATOM     18  C   UNL     1       2.259   4.582  -6.689  0.00  0.00    +0.131 C 
ATOM     19  C   UNL     1       2.517   5.761  -5.744  0.00  0.00    +0.140 C 
ATOM     20  C   UNL     1       1.261   5.003  -7.770  0.00  0.00    +0.039 C 
ATOM     21  C   UNL     1       5.724   3.278  -7.150  0.00  0.00    +0.039 C 
ENDBRANCH  11  14
ENDBRANCH   9  11
ENDBRANCH   2   5
BRANCH   1  22
ATOM     22  C   UNL     1       4.373  -1.451  -0.324  0.00  0.00    +0.094 C 
BRANCH  22  23
ATOM     23  C   UNL     1       3.544  -2.590   0.273  0.00  0.00    -0.021 C 
BRANCH  23  27
ATOM     24  C   UNL     1       6.136  -5.774   1.453  0.00  0.00    -0.048 A 
ATOM     25  C   UNL     1       5.485  -5.021   2.412  0.00  0.00    +0.004 A 
ATOM     26  C   UNL     1       4.646  -3.990   2.030  0.00  0.00    +0.002 A 
ATOM     27  C   UNL     1       4.458  -3.713   0.689  0.00  0.00    -0.059 A 
ATOM     28  C   UNL     1       5.105  -4.469  -0.270  0.00  0.00    +0.002 A 
ATOM     29  C   UNL     1       5.947  -5.497   0.112  0.00  0.00    +0.004 A 
BRANCH  24  31
ATOM     30  C   UNL     1       6.246  -8.195   1.975  0.00  0.00    +0.009 C 
ATOM     31  C   UNL     1       7.049  -6.898   1.869  0.00  0.00    +0.032 C 
ENDBRANCH  24  31
ENDBRANCH  23  27
BRANCH  23  32
ATOM     32  N   UNL     1       2.592  -3.080  -0.732  0.00  0.00    +0.382 N 
ATOM     33  C   UNL     1       3.107  -2.871  -2.092  0.00  0.00    -0.096 C 
ATOM     34  C   UNL     1       2.268  -4.495  -0.504  0.00  0.00    -0.096 C 
ATOM     35  H   UNL     1       1.663  -2.500  -0.629  0.00  0.00    -0.082 HD
ENDBRANCH  23  32
ENDBRANCH  22  23
ENDBRANCH   1  22
TORSDOF 8
