REMARK  Name = ZINC32817199
REMARK  4 active torsions:
REMARK  status: ('A' for Active; 'I' for Inactive)
REMARK    1  A    between atoms: N_4  and  C_6
REMARK    2  A    between atoms: C_9  and  N_16
REMARK    3  A    between atoms: C_10  and  C_12
REMARK    4  A    between atoms: C_17  and  C_19
REMARK                            x       y       z     vdW  Elec       q    Type
REMARK                         _______ _______ _______ _____ _____    ______ ____
ROOT
ATOM      1  C   UNL     1       6.206  -2.155  -0.345  0.00  0.00    +0.066 A 
ATOM      2  C   UNL     1       6.137  -0.772  -0.237  0.00  0.00    +0.029 A 
ATOM      3  C   UNL     1       4.910  -0.147  -0.137  0.00  0.00    +0.026 A 
ATOM      4  C   UNL     1       3.745  -0.904  -0.131  0.00  0.00    +0.045 A 
ATOM      5  C   UNL     1       3.814  -2.287  -0.239  0.00  0.00    +0.078 A 
ATOM      6  C   UNL     1       5.041  -2.910  -0.346  0.00  0.00    +0.042 A 
ENDROOT
BRANCH   1  10
ATOM      7  C   UNL     1       9.605  -3.135  -0.586  0.00  0.00    +0.041 A 
ATOM      8  C   UNL     1       8.959  -4.374  -0.649  0.00  0.00    +0.135 A 
ATOM      9  N   UNL     1       7.669  -4.167  -0.570  0.00  0.00    -0.175 NA
ATOM     10  N   UNL     1       7.452  -2.788  -0.454  0.00  0.00    -0.240 N 
ATOM     11  C   UNL     1       8.658  -2.175  -0.472  0.00  0.00    +0.114 A 
ENDBRANCH   1  10
BRANCH   5  12
ATOM     12  C   UNL     1       2.549  -3.107  -0.240  0.00  0.00    +0.419 C 
ATOM     13  F   UNL     1       2.873  -4.462  -0.359  0.00  0.00    -0.166 F 
ATOM     14  F   UNL     1       1.855  -2.895   0.956  0.00  0.00    -0.166 F 
ATOM     15  F   UNL     1       1.746  -2.723  -1.320  0.00  0.00    -0.166 F 
ENDBRANCH   5  12
BRANCH   4  16
ATOM     16  N   UNL     1       2.501  -0.272  -0.023  0.00  0.00    -0.281 N 
ATOM     17  C   UNL     1       2.409   0.940   0.560  0.00  0.00    +0.251 C 
ATOM     18  O   UNL     1       3.388   1.439   1.082  0.00  0.00    -0.270 OA
ATOM     19  H   UNL     1       1.598  -0.763  -0.414  0.00  0.00    +0.155 HD
BRANCH  17  20
ATOM     20  C   UNL     1       1.121   1.661   0.566  0.00  0.00    +0.072 A 
ATOM     21  C   UNL     1      -0.005   1.090  -0.032  0.00  0.00    +0.017 A 
ATOM     22  C   UNL     1      -1.203   1.770  -0.029  0.00  0.00    +0.021 A 
ATOM     23  C   UNL     1      -1.298   3.014   0.576  0.00  0.00    +0.044 A 
ATOM     24  C   UNL     1      -0.188   3.587   1.171  0.00  0.00    +0.059 A 
ATOM     25  C   UNL     1       1.022   2.918   1.170  0.00  0.00    +0.137 A 
ATOM     26  F   UNL     1       2.106   3.478   1.751  0.00  0.00    -0.205 F 
ATOM     27 CL   UNL     1      -2.814   3.860   0.581  0.00  0.00    -0.083 Cl
ENDBRANCH  17  20
ENDBRANCH   4  16
TORSDOF 4
