REMARK  Name = ZINC34716355
REMARK  7 active torsions:
REMARK  status: ('A' for Active; 'I' for Inactive)
REMARK    1  A    between atoms: C_1  and  C_2
REMARK    2  A    between atoms: C_4  and  C_9
REMARK    3  A    between atoms: C_12  and  C_27
REMARK    4  A    between atoms: N_19  and  C_20
REMARK    5  A    between atoms: C_20  and  C_21
REMARK    6  A    between atoms: N_29  and  C_30
REMARK    7  A    between atoms: C_30  and  C_31
REMARK                            x       y       z     vdW  Elec       q    Type
REMARK                         _______ _______ _______ _____ _____    ______ ____
ROOT
ATOM      1  C   UNL     1      -0.316  -3.198  -2.652  0.00  0.00    +0.037 C 
ATOM      2  C   UNL     1       1.108  -3.759  -2.643  0.00  0.00    +0.024 C 
ATOM      3  C   UNL     1       1.436  -4.344  -4.018  0.00  0.00    +0.093 C 
ATOM      4  C   UNL     1       0.467  -5.491  -4.325  0.00  0.00    +0.122 C 
ATOM      5  N   UNL     1      -0.910  -4.994  -4.193  0.00  0.00    -0.284 N 
ATOM      6  C   UNL     1      -1.306  -4.331  -2.943  0.00  0.00    +0.117 C 
ATOM      7  C   UNL     1      -1.793  -5.144  -5.200  0.00  0.00    +0.302 C 
ATOM      8  O   UNL     1      -1.485  -5.779  -6.190  0.00  0.00    -0.253 OA
ATOM      9  N   UNL     1      -3.019  -4.590  -5.109  0.00  0.00    -0.295 N 
ATOM     10  H   UNL     1      -3.239  -4.020  -4.356  0.00  0.00    +0.151 HD
ENDROOT
BRANCH   1  14
ATOM     11  C   UNL     1      -1.599   0.762   0.125  0.00  0.00    +0.047 C 
ATOM     12  C   UNL     1      -1.241  -0.698   0.021  0.00  0.00    -0.015 A 
ATOM     13  C   UNL     1      -0.955  -1.254  -1.212  0.00  0.00    +0.010 A 
ATOM     14  C   UNL     1      -0.627  -2.593  -1.307  0.00  0.00    -0.042 A 
ATOM     15  C   UNL     1      -0.583  -3.378  -0.169  0.00  0.00    +0.007 A 
ATOM     16  C   UNL     1      -0.867  -2.824   1.064  0.00  0.00    +0.039 A 
ATOM     17  C   UNL     1      -1.192  -1.481   1.162  0.00  0.00    +0.126 A 
ATOM     18  F   UNL     1      -1.465  -0.938   2.368  0.00  0.00    -0.205 F 
ENDBRANCH   1  14
BRANCH   3  19
ATOM     19  C   UNL     1       1.296  -3.272  -5.068  0.00  0.00    +0.218 C 
ATOM     20  O   UNL     1       1.154  -2.114  -4.737  0.00  0.00    -0.275 OA
ATOM     21  N   UNL     1       1.329  -3.600  -6.375  0.00  0.00    -0.311 N 
ATOM     22  H   UNL     1       1.369  -4.532  -6.640  0.00  0.00    +0.149 HD
BRANCH  21  23
ATOM     23  C   UNL     1       1.303  -2.548  -7.395  0.00  0.00    +0.139 C 
BRANCH  23  24
ATOM     24  C   UNL     1       1.228  -3.177  -8.762  0.00  0.00    -0.027 A 
ATOM     25  C   UNL     1       2.386  -3.585  -9.398  0.00  0.00    +0.009 A 
ATOM     26  C   UNL     1       2.323  -4.162 -10.652  0.00  0.00    +0.050 A 
ATOM     27  C   UNL     1       1.098  -4.333 -11.276  0.00  0.00    +0.166 A 
ATOM     28  C   UNL     1      -0.069  -3.922 -10.636  0.00  0.00    +0.167 A 
ATOM     29  C   UNL     1       0.002  -3.349  -9.376  0.00  0.00    +0.054 A 
ATOM     30  O   UNL     1      -1.131  -4.196 -11.447  0.00  0.00    -0.453 OA
ATOM     31  C   UNL     1      -0.571  -4.403 -12.758  0.00  0.00    +0.466 C 
ATOM     32  O   UNL     1       0.766  -4.864 -12.489  0.00  0.00    -0.453 OA
ENDBRANCH  23  24
ENDBRANCH  21  23
ENDBRANCH   3  19
BRANCH   9  33
ATOM     33  C   UNL     1      -4.018  -4.848  -6.149  0.00  0.00    +0.141 C 
BRANCH  33  34
ATOM     34  C   UNL     1      -5.329  -4.218  -5.753  0.00  0.00    -0.030 A 
ATOM     35  C   UNL     1      -6.202  -4.901  -4.927  0.00  0.00    +0.005 A 
ATOM     36  C   UNL     1      -7.404  -4.324  -4.564  0.00  0.00    +0.000 A 
ATOM     37  C   UNL     1      -7.733  -3.063  -5.026  0.00  0.00    +0.000 A 
ATOM     38  C   UNL     1      -6.860  -2.380  -5.852  0.00  0.00    +0.000 A 
ATOM     39  C   UNL     1      -5.656  -2.956  -6.212  0.00  0.00    +0.005 A 
ENDBRANCH  33  34
ENDBRANCH   9  33
TORSDOF 6
