REMARK  Name = ZINC09303334
REMARK  8 active torsions:
REMARK  status: ('A' for Active; 'I' for Inactive)
REMARK    1  A    between atoms: C_1  and  O_2
REMARK    2  A    between atoms: O_2  and  C_3
REMARK    3  A    between atoms: C_3  and  C_5
REMARK    4  A    between atoms: C_9  and  N_10
REMARK    5  A    between atoms: C_11  and  C_13
REMARK    6  A    between atoms: C_13  and  N_68
REMARK    7  A    between atoms: C_16  and  O_32
REMARK    8  A    between atoms: C_23  and  C_25
REMARK                            x       y       z     vdW  Elec       q    Type
REMARK                         _______ _______ _______ _____ _____    ______ ____
ROOT
ATOM      1  C   UNL     1      -4.069  -0.949   6.089  0.00  0.00    -0.075 C 
ATOM      2  C   UNL     1      -4.982  -1.708   7.055  0.00  0.00    +0.016 C 
ATOM      3  C   UNL     1      -4.291  -1.817   8.415  0.00  0.00    +0.066 C 
ATOM      4  C   UNL     1      -5.163  -2.621   9.381  0.00  0.00    +0.035 C 
ATOM      5  C   UNL     1      -4.460  -2.715  10.737  0.00  0.00    +0.003 C 
ATOM      6  C   UNL     1      -3.107  -3.409  10.567  0.00  0.00    +0.000 C 
ATOM      7  C   UNL     1      -2.238  -2.612   9.591  0.00  0.00    +0.005 C 
ATOM      8  C   UNL     1      -2.947  -2.529   8.238  0.00  0.00    +0.011 C 
ATOM      9  C   UNL     1      -2.089  -1.742   7.246  0.00  0.00    -0.031 C 
ATOM     10  N   UNL     1      -2.795  -1.687   5.946  0.00  0.00    +0.390 N 
ATOM     11  H   UNL     1      -2.998  -2.645   5.637  0.00  0.00    -0.080 HD
ENDROOT
BRANCH   9  12
ATOM     12  C   UNL     1      -1.848  -0.353   7.779  0.00  0.00    -0.060 A 
ATOM     13  C   UNL     1      -2.257   0.747   7.049  0.00  0.00    +0.005 A 
ATOM     14  C   UNL     1      -2.041   2.021   7.539  0.00  0.00    +0.038 A 
ATOM     15  C   UNL     1      -1.405   2.195   8.757  0.00  0.00    +0.123 A 
ATOM     16  C   UNL     1      -0.992   1.092   9.485  0.00  0.00    +0.038 A 
ATOM     17  C   UNL     1      -1.214  -0.181   8.995  0.00  0.00    +0.005 A 
ATOM     18  F   UNL     1      -1.189   3.440   9.235  0.00  0.00    -0.205 F 
ENDBRANCH   9  12
BRANCH   3  19
ATOM     19  O   UNL     1      -4.072  -0.509   8.946  0.00  0.00    -0.388 OA
ATOM     20  H   UNL     1      -4.882   0.000   9.085  0.00  0.00    +0.210 HD
ENDBRANCH   3  19
BRANCH  10  21
ATOM     21  C   UNL     1      -1.942  -1.028   4.937  0.00  0.00    +0.020 C 
BRANCH  21  23
ATOM     22  N   UNL     1      -1.889  -0.830   2.472  0.00  0.00    -0.281 N 
ATOM     23  C   UNL     1      -2.506  -1.312   3.569  0.00  0.00    +0.201 C 
ATOM     24  O   UNL     1      -3.516  -1.974   3.455  0.00  0.00    -0.278 OA
ATOM     25  H   UNL     1      -1.081  -0.301   2.562  0.00  0.00    +0.155 HD
BRANCH  22  30
ATOM     26  C   UNL     1      -1.921  -0.687  -0.022  0.00  0.00    +0.091 A 
ATOM     27  C   UNL     1      -2.664  -1.095  -1.203  0.00  0.00    -0.021 A 
ATOM     28  C   UNL     1      -3.761  -1.845  -0.962  0.00  0.00    -0.004 A 
ATOM     29  S   UNL     1      -3.823  -2.003   0.801  0.00  0.00    -0.077 S 
ATOM     30  C   UNL     1      -2.409  -1.091   1.213  0.00  0.00    +0.086 A 
ATOM     31  C   UNL     1      -4.711  -2.408  -1.974  0.00  0.00    +0.043 C 
ATOM     32  C   UNL     1      -4.464  -1.701  -3.314  0.00  0.00    +0.005 C 
ATOM     33  C   UNL     1      -2.959  -1.691  -3.596  0.00  0.00    +0.005 C 
ATOM     34  C   UNL     1      -2.255  -0.739  -2.627  0.00  0.00    +0.037 C 
BRANCH  26  35
ATOM     35  C   UNL     1      -0.708   0.126  -0.132  0.00  0.00    +0.342 C 
ATOM     36  O   UNL     1       0.378  -0.413  -0.235  0.00  0.00    -0.245 OA
BRANCH  35  38
ATOM     37  C   UNL     1       0.449   2.213  -0.230  0.00  0.00    +0.280 C 
ATOM     38  O   UNL     1      -0.795   1.472  -0.118  0.00  0.00    -0.464 OA
ENDBRANCH  35  38
ENDBRANCH  26  35
ENDBRANCH  22  30
ENDBRANCH  21  23
ENDBRANCH  10  21
TORSDOF 7
