REMARK  Name = ZINC12506680
REMARK  7 active torsions:
REMARK  status: ('A' for Active; 'I' for Inactive)
REMARK    1  A    between atoms: C_1  and  C_2
REMARK    2  A    between atoms: C_2  and  C_4
REMARK    3  A    between atoms: C_2  and  N_14
REMARK    4  A    between atoms: C_15  and  C_17
REMARK    5  A    between atoms: C_22  and  O_23
REMARK    6  A    between atoms: O_23  and  C_24
REMARK    7  A    between atoms: C_24  and  C_25
REMARK                            x       y       z     vdW  Elec       q    Type
REMARK                         _______ _______ _______ _____ _____    ______ ____
ROOT
ATOM      1  C   UNL     1       5.913   7.298  -0.011  0.00  0.00    +0.078 A 
ATOM      2  C   UNL     1       6.732   8.429  -0.018  0.00  0.00    +0.017 A 
ATOM      3  C   UNL     1       6.167   9.686  -0.006  0.00  0.00    +0.001 A 
ATOM      4  C   UNL     1       4.790   9.834   0.007  0.00  0.00    +0.004 A 
ATOM      5  C   UNL     1       3.969   8.724   0.008  0.00  0.00    +0.046 A 
ATOM      6  C   UNL     1       4.520   7.451  -0.003  0.00  0.00    +0.133 A 
ENDROOT
BRANCH   1   8
ATOM      7  N   UNL     1       7.851   5.806  -0.024  0.00  0.00    -0.302 N 
ATOM      8  C   UNL     1       6.511   5.949  -0.017  0.00  0.00    +0.248 C 
ATOM      9  O   UNL     1       5.794   4.966  -0.015  0.00  0.00    -0.270 OA
ATOM     10  H   UNL     1       8.422   6.590  -0.026  0.00  0.00    +0.150 HD
BRANCH   7  12
ATOM     11  C   UNL     1       8.544   3.946   1.405  0.00  0.00    +0.036 C 
ATOM     12  C   UNL     1       8.444   4.466  -0.030  0.00  0.00    +0.136 C 
BRANCH  12  13
ATOM     13  C   UNL     1       9.822   4.530  -0.638  0.00  0.00    +0.128 A 
ATOM     14  N   UNL     1      10.458   3.488  -1.239  0.00  0.00    -0.340 N 
ATOM     15  H   UNL     1      10.100   2.562  -1.353  0.00  0.00    +0.167 HD
ATOM     16  C   UNL     1      11.688   3.948  -1.663  0.00  0.00    +0.066 A 
ATOM     17  C   UNL     1      12.762   3.367  -2.325  0.00  0.00    +0.028 A 
ATOM     18  C   UNL     1      13.879   4.123  -2.609  0.00  0.00    +0.002 A 
ATOM     19  C   UNL     1      13.938   5.459  -2.237  0.00  0.00    +0.002 A 
ATOM     20  C   UNL     1      12.891   6.047  -1.585  0.00  0.00    +0.030 A 
ATOM     21  C   UNL     1      11.748   5.300  -1.286  0.00  0.00    +0.089 A 
ATOM     22  N   UNL     1      10.574   5.591  -0.670  0.00  0.00    -0.231 NA
ENDBRANCH  12  13
ENDBRANCH   7  12
ENDBRANCH   1   8
BRANCH   6  23
ATOM     23  O   UNL     1       3.714   6.360  -0.001  0.00  0.00    -0.485 OA
BRANCH  23  24
ATOM     24  C   UNL     1       2.304   6.594   0.014  0.00  0.00    +0.286 C 
BRANCH  24  25
ATOM     25  C   UNL     1       1.576   5.274   0.014  0.00  0.00    +0.097 A 
ATOM     26  C   UNL     1       2.156   4.054   0.002  0.00  0.00    +0.119 A 
ATOM     27  N   UNL     1       1.148   3.128   0.007  0.00  0.00    -0.306 N 
ATOM     28  C   UNL     1       1.149   1.763   0.001  0.00  0.00    +0.092 A 
ATOM     29  C   UNL     1      -0.013   1.076   0.008  0.00  0.00    +0.018 A 
ATOM     30  C   UNL     1      -1.240   1.758   0.018  0.00  0.00    +0.005 A 
ATOM     31  C   UNL     1      -1.255   3.119   0.031  0.00  0.00    +0.047 A 
ATOM     32  C   UNL     1      -0.034   3.822   0.022  0.00  0.00    +0.138 A 
ATOM     33  N   UNL     1       0.250   5.117   0.026  0.00  0.00    -0.229 NA
ENDBRANCH  24  25
ENDBRANCH  23  24
ENDBRANCH   6  23
TORSDOF 6
