REMARK  Name = ZINC39487968
REMARK  8 active torsions:
REMARK  status: ('A' for Active; 'I' for Inactive)
REMARK    1  A    between atoms: C_1  and  C_2
REMARK    2  A    between atoms: C_2  and  C_31
REMARK    3  A    between atoms: N_4  and  S_22
REMARK    4  A    between atoms: N_7  and  C_8
REMARK    5  A    between atoms: C_8  and  C_9
REMARK    6  A    between atoms: C_9  and  C_16
REMARK    7  A    between atoms: N_12  and  O_15
REMARK    8  A    between atoms: S_22  and  C_25
REMARK                            x       y       z     vdW  Elec       q    Type
REMARK                         _______ _______ _______ _____ _____    ______ ____
ROOT
ATOM      1  C   UNL     1       1.445   1.713  -0.792  0.00  0.00    +0.039 C 
ATOM      2  C   UNL     1       0.938   0.329  -0.383  0.00  0.00    +0.079 C 
ATOM      3  C   UNL     1       1.833  -0.774  -0.981  0.00  0.00    +0.166 C 
ATOM      4  N   UNL     1       2.374  -1.467   0.197  0.00  0.00    -0.153 N 
ATOM      5  C   UNL     1       1.894  -0.889   1.306  0.00  0.00    +0.325 C 
ATOM      6  O   UNL     1       2.181  -1.265   2.427  0.00  0.00    -0.251 OA
ATOM      7  N   UNL     1       1.070   0.140   1.070  0.00  0.00    -0.273 N 
ENDROOT
BRANCH   2   8
ATOM      8  C   UNL     1      -0.494   0.143  -0.812  0.00  0.00    -0.023 A 
ATOM      9  C   UNL     1      -1.384  -0.517   0.015  0.00  0.00    +0.006 A 
ATOM     10  C   UNL     1      -2.698  -0.687  -0.379  0.00  0.00    +0.000 A 
ATOM     11  C   UNL     1      -3.123  -0.196  -1.599  0.00  0.00    +0.000 A 
ATOM     12  C   UNL     1      -2.234   0.465  -2.426  0.00  0.00    +0.000 A 
ATOM     13  C   UNL     1      -0.920   0.639  -2.030  0.00  0.00    +0.006 A 
ENDBRANCH   2   8
BRANCH   4  14
ATOM     14  S   UNL     1       3.411  -2.757   0.159  0.00  0.00    +0.078 S 
ATOM     15  O   UNL     1       3.244  -3.449   1.389  0.00  0.00    -0.150 OA
ATOM     16  O   UNL     1       3.229  -3.388  -1.101  0.00  0.00    -0.150 OA
BRANCH  14  17
ATOM     17  C   UNL     1       5.050  -2.109   0.165  0.00  0.00    +0.109 A 
ATOM     18  C   UNL     1       5.683  -1.819  -1.029  0.00  0.00    +0.029 A 
ATOM     19  C   UNL     1       6.968  -1.311  -1.025  0.00  0.00    +0.002 A 
ATOM     20  C   UNL     1       7.620  -1.091   0.174  0.00  0.00    +0.000 A 
ATOM     21  C   UNL     1       6.987  -1.379   1.369  0.00  0.00    +0.002 A 
ATOM     22  C   UNL     1       5.700  -1.883   1.364  0.00  0.00    +0.029 A 
ENDBRANCH  14  17
ENDBRANCH   4  14
BRANCH   7  23
ATOM     23  C   UNL     1       0.406   0.949   2.095  0.00  0.00    +0.117 C 
BRANCH  23  24
ATOM     24  C   UNL     1       1.422   1.900   2.731  0.00  0.00    -0.008 C 
ATOM     25  C   UNL     1       0.785   2.597   3.936  0.00  0.00    +0.026 C 
ATOM     26  C   UNL     1      -0.405   3.436   3.464  0.00  0.00    +0.115 C 
ATOM     27  N   UNL     1       0.054   4.431   2.486  0.00  0.00    -0.191 NA
ATOM     28  C   UNL     1       0.627   3.784   1.299  0.00  0.00    +0.115 C 
ATOM     29  C   UNL     1       1.847   2.955   1.707  0.00  0.00    +0.026 C 
BRANCH  24  30
ATOM     30  C   UNL     1       2.649   1.107   3.188  0.00  0.00    -0.003 C 
ATOM     31  C   UNL     1       2.263   0.199   4.357  0.00  0.00    +0.004 C 
ATOM     32  C   UNL     1       3.489  -0.594   4.813  0.00  0.00    +0.000 C 
ATOM     33  C   UNL     1       4.586   0.375   5.260  0.00  0.00    +0.000 C 
ATOM     34  C   UNL     1       4.972   1.283   4.090  0.00  0.00    +0.000 C 
ATOM     35  C   UNL     1       3.745   2.076   3.634  0.00  0.00    +0.004 C 
ENDBRANCH  24  30
BRANCH  27  36
ATOM     36  O   UNL     1      -1.030   5.340   2.115  0.00  0.00    -0.312 OA
ATOM     37  H   UNL     1      -0.775   6.015   1.471  0.00  0.00    +0.237 HD
ENDBRANCH  27  36
ENDBRANCH  23  24
ENDBRANCH   7  23
TORSDOF 7
