REMARK  Name = ZINC15802268
REMARK  12 active torsions:
REMARK  status: ('A' for Active; 'I' for Inactive)
REMARK    1  A    between atoms: C_1  and  C_2
REMARK    2  A    between atoms: C_5  and  C_34
REMARK    3  A    between atoms: C_6  and  S_8
REMARK    4  A    between atoms: S_8  and  N_11
REMARK    5  A    between atoms: N_11  and  C_12
REMARK    6  A    between atoms: C_17  and  C_18
REMARK    7  A    between atoms: C_18  and  O_20
REMARK    8  A    between atoms: O_20  and  C_21
REMARK    9  A    between atoms: C_21  and  C_23
REMARK   10  A    between atoms: C_21  and  C_24
REMARK   11  A    between atoms: N_26  and  C_27
REMARK   12  A    between atoms: C_28  and  C_32
REMARK                            x       y       z     vdW  Elec       q    Type
REMARK                         _______ _______ _______ _____ _____    ______ ____
ROOT
ATOM      1  C   UNL     1      -1.834   1.045   1.825  0.00  0.00    +0.062 A 
ATOM      2  C   UNL     1      -1.984  -0.266   1.388  0.00  0.00    +0.025 A 
ATOM      3  C   UNL     1      -3.085  -1.002   1.774  0.00  0.00    +0.002 A 
ATOM      4  C   UNL     1      -4.049  -0.443   2.599  0.00  0.00    +0.001 A 
ATOM      5  C   UNL     1      -3.919   0.854   3.042  0.00  0.00    +0.017 A 
ATOM      6  C   UNL     1      -2.806   1.612   2.664  0.00  0.00    +0.081 A 
ENDROOT
BRANCH   1   7
ATOM      7  N   UNL     1      -0.727   1.787   1.437  0.00  0.00    -0.215 N 
ATOM      8  H   UNL     1      -0.328   2.420   2.054  0.00  0.00    +0.174 HD
BRANCH   7   9
ATOM      9  S   UNL     1      -0.088   1.593  -0.078  0.00  0.00    +0.073 S 
ATOM     10  O   UNL     1       0.177   0.205  -0.232  0.00  0.00    -0.150 OA
ATOM     11  O   UNL     1       0.921   2.582  -0.224  0.00  0.00    -0.150 OA
BRANCH   9  17
ATOM     12  C   UNL     1      -3.452   0.253  -3.848  0.00  0.00    +0.044 C 
ATOM     13  C   UNL     1      -2.878   1.325  -2.957  0.00  0.00    -0.049 A 
ATOM     14  C   UNL     1      -3.346   2.623  -3.048  0.00  0.00    +0.004 A 
ATOM     15  C   UNL     1      -2.819   3.606  -2.231  0.00  0.00    +0.005 A 
ATOM     16  C   UNL     1      -1.824   3.291  -1.324  0.00  0.00    -0.024 A 
ATOM     17  C   UNL     1      -1.357   1.993  -1.234  0.00  0.00    +0.112 A 
ATOM     18  C   UNL     1      -1.880   1.011  -2.054  0.00  0.00    +0.032 A 
ATOM     19  C   UNL     1      -1.249   4.363  -0.434  0.00  0.00    +0.046 C 
ENDBRANCH   9  17
ENDBRANCH   7   9
ENDBRANCH   1   7
BRANCH   6  20
ATOM     20  C   UNL     1      -2.658   2.998   3.140  0.00  0.00    +0.342 C 
ATOM     21  O   UNL     1      -1.691   3.654   2.805  0.00  0.00    -0.245 OA
BRANCH  20  22
ATOM     22  O   UNL     1      -3.593   3.538   3.945  0.00  0.00    -0.449 OA
BRANCH  22  23
ATOM     23  C   UNL     1      -3.381   4.909   4.375  0.00  0.00    +0.259 C 
ATOM     24  C   UNL     1      -2.585   4.916   5.682  0.00  0.00    +0.062 C 
BRANCH  23  25
ATOM     25  C   UNL     1      -4.713   5.578   4.595  0.00  0.00    +0.258 C 
ATOM     26  O   UNL     1      -5.738   4.936   4.496  0.00  0.00    -0.271 OA
ATOM     27  N   UNL     1      -4.766   6.889   4.901  0.00  0.00    -0.276 N 
ATOM     28  H   UNL     1      -3.947   7.402   4.980  0.00  0.00    +0.155 HD
BRANCH  27  29
ATOM     29  C   UNL     1      -5.993   7.506   5.103  0.00  0.00    +0.089 A 
ATOM     30  C   UNL     1      -6.249   8.832   5.429  0.00  0.00    +0.080 A 
ATOM     31  C   UNL     1      -7.634   9.208   5.578  0.00  0.00    +0.028 A 
ATOM     32  C   UNL     1      -8.556   8.243   5.400  0.00  0.00    +0.048 A 
ATOM     33  S   UNL     1      -7.575   6.807   5.019  0.00  0.00    -0.081 S 
BRANCH  30  34
ATOM     34  C   UNL     1      -5.191   9.780   5.603  0.00  0.00    +0.102 C 
ATOM     35  N   UNL     1      -4.351  10.532   5.742  0.00  0.00    -0.191 NA
ENDBRANCH  30  34
ENDBRANCH  27  29
ENDBRANCH  23  25
ENDBRANCH  22  23
ENDBRANCH  20  22
ENDBRANCH   6  20
TORSDOF 9
