REMARK  Name = ZINC13811167
REMARK  4 active torsions:
REMARK  status: ('A' for Active; 'I' for Inactive)
REMARK    1  A    between atoms: C_1  and  S_2
REMARK    2  A    between atoms: S_2  and  C_3
REMARK    3  A    between atoms: C_6  and  C_9
REMARK    4  A    between atoms: C_26  and  C_28
REMARK                            x       y       z     vdW  Elec       q    Type
REMARK                         _______ _______ _______ _____ _____    ______ ____
ROOT
ATOM      1  C   UNL     1       2.901  -1.397  -5.106  0.00  0.00    +0.234 C 
ATOM      2  C   UNL     1       4.329  -1.735  -4.790  0.00  0.00    +0.027 C 
ATOM      3  C   UNL     1       4.688  -3.004  -4.506  0.00  0.00    +0.083 C 
ATOM      4  C   UNL     1       3.623  -4.039  -4.531  0.00  0.00    +0.042 A 
ATOM      5  C   UNL     1       3.809  -5.285  -3.949  0.00  0.00    +0.013 A 
ATOM      6  C   UNL     1       2.790  -6.218  -3.995  0.00  0.00    +0.001 A 
ATOM      7  C   UNL     1       1.592  -5.911  -4.616  0.00  0.00    +0.004 A 
ATOM      8  C   UNL     1       1.400  -4.672  -5.199  0.00  0.00    +0.046 A 
ATOM      9  C   UNL     1       2.412  -3.728  -5.161  0.00  0.00    +0.131 A 
ATOM     10  O   UNL     1       2.255  -2.509  -5.728  0.00  0.00    -0.479 OA
ATOM     11  N   UNL     1       5.971  -3.328  -4.211  0.00  0.00    -0.213 NA
ATOM     12  C   UNL     1       6.963  -2.470  -4.180  0.00  0.00    +0.237 C 
ATOM     13  N   UNL     1       8.279  -2.621  -3.912  0.00  0.00    -0.205 NA
ATOM     14  C   UNL     1       8.896  -1.475  -4.004  0.00  0.00    +0.203 C 
ATOM     15  N   UNL     1       8.002  -0.504  -4.340  0.00  0.00    -0.251 N 
ATOM     16  N   UNL     1       6.760  -1.132  -4.453  0.00  0.00    -0.208 N 
ATOM     17  C   UNL     1       5.405  -0.672  -4.779  0.00  0.00    +0.159 C 
ATOM     18  H   UNL     1       8.191   0.438  -4.473  0.00  0.00    +0.171 HD
ENDROOT
BRANCH  17  19
ATOM     19  C   UNL     1       5.442  -0.027  -6.141  0.00  0.00    -0.020 A 
ATOM     20  C   UNL     1       6.092  -0.657  -7.186  0.00  0.00    +0.006 A 
ATOM     21  C   UNL     1       6.126  -0.067  -8.436  0.00  0.00    +0.002 A 
ATOM     22  C   UNL     1       5.511   1.154  -8.641  0.00  0.00    +0.020 A 
ATOM     23  C   UNL     1       4.860   1.785  -7.596  0.00  0.00    +0.041 A 
ATOM     24  C   UNL     1       4.821   1.190  -6.347  0.00  0.00    +0.025 A 
ATOM     25 CL   UNL     1       4.087   3.318  -7.852  0.00  0.00    -0.084 Cl
ENDBRANCH  17  19
BRANCH   1  29
ATOM     26  C   UNL     1       0.848  -0.411  -1.489  0.00  0.00    +0.008 A 
ATOM     27  C   UNL     1       1.315   0.599  -2.322  0.00  0.00    +0.015 A 
ATOM     28  C   UNL     1       1.978   0.276  -3.490  0.00  0.00    +0.008 A 
ATOM     29  C   UNL     1       2.178  -1.049  -3.830  0.00  0.00    -0.003 A 
ATOM     30  C   UNL     1       1.714  -2.056  -3.004  0.00  0.00    +0.008 A 
ATOM     31  C   UNL     1       1.056  -1.742  -1.831  0.00  0.00    +0.015 A 
BRANCH  26  33
ATOM     32  C   UNL     1      -0.022   1.810   0.012  0.00  0.00    +0.090 C 
ATOM     33  S   UNL     1       0.002  -0.004   0.002  0.00  0.00    -0.129 S 
ENDBRANCH  26  33
ENDBRANCH   1  29
TORSDOF 3
