REMARK  Name = ZINC02084529
REMARK  11 active torsions:
REMARK  status: ('A' for Active; 'I' for Inactive)
REMARK    1  A    between atoms: C_1  and  C_2
REMARK    2  A    between atoms: C_2  and  C_3
REMARK    3  A    between atoms: C_3  and  C_4
REMARK    4  A    between atoms: C_3  and  C_5
REMARK    5  A    between atoms: C_3  and  C_6
REMARK    6  A    between atoms: C_13  and  N_19
REMARK    7  A    between atoms: C_14  and  C_15
REMARK    8  A    between atoms: C_15  and  O_17
REMARK    9  A    between atoms: O_17  and  C_18
REMARK   10  A    between atoms: C_20  and  C_22
REMARK   11  A    between atoms: C_24  and  C_32
REMARK                            x       y       z     vdW  Elec       q    Type
REMARK                         _______ _______ _______ _____ _____    ______ ____
ROOT
ATOM      1  N   UNL     1      -0.771  -7.946   2.418  0.00  0.00    -0.275 N 
ATOM      2  C   UNL     1       0.191  -8.207   3.325  0.00  0.00    +0.249 C 
ATOM      3  O   UNL     1       0.897  -7.308   3.739  0.00  0.00    -0.270 OA
ATOM      4  H   UNL     1      -1.334  -8.663   2.088  0.00  0.00    +0.156 HD
ENDROOT
BRANCH   2   5
ATOM      5  C   UNL     1       0.388  -9.587   3.817  0.00  0.00    +0.048 A 
ATOM      6  C   UNL     1      -0.473 -10.611   3.454  0.00  0.00    +0.045 A 
ATOM      7  C   UNL     1      -0.244 -11.910   3.939  0.00  0.00    +0.107 A 
ATOM      8  N   UNL     1       0.762 -12.192   4.745  0.00  0.00    -0.244 NA
ATOM      9  C   UNL     1       1.634 -11.267   5.149  0.00  0.00    +0.073 A 
ATOM     10  C   UNL     1       1.497  -9.925   4.711  0.00  0.00    +0.013 A 
ATOM     11  C   UNL     1       2.414  -8.958   5.136  0.00  0.00    +0.011 A 
ATOM     12  C   UNL     1       3.432  -9.315   5.970  0.00  0.00    +0.001 A 
ATOM     13  C   UNL     1       3.572 -10.631   6.403  0.00  0.00    +0.002 A 
ATOM     14  C   UNL     1       2.698 -11.597   6.008  0.00  0.00    +0.028 A 
BRANCH   7  15
ATOM     15  C   UNL     1      -1.163 -12.993   3.541  0.00  0.00    +0.153 A 
ATOM     16  C   UNL     1      -1.076 -14.296   3.924  0.00  0.00    +0.051 A 
ATOM     17  C   UNL     1      -2.151 -14.970   3.315  0.00  0.00    +0.042 A 
ATOM     18  C   UNL     1      -2.830 -14.058   2.590  0.00  0.00    +0.196 A 
ATOM     19  O   UNL     1      -2.230 -12.866   2.728  0.00  0.00    -0.461 OA
ENDBRANCH   7  15
ENDBRANCH   2   5
BRANCH   1  26
ATOM     20  C   UNL     1      -1.400  -2.064  -0.004  0.00  0.00    -0.000 C 
ATOM     21  C   UNL     1      -2.833  -2.603  -0.010  0.00  0.00    +0.009 C 
ATOM     22  C   UNL     1      -2.821  -4.111  -0.269  0.00  0.00    +0.037 C 
ATOM     23  C   UNL     1      -1.869  -4.771   0.721  0.00  0.00    -0.021 A 
ATOM     24  C   UNL     1      -0.935  -4.047   1.376  0.00  0.00    -0.004 A 
ATOM     25  S   UNL     1      -0.085  -5.220   2.394  0.00  0.00    -0.077 S 
ATOM     26  C   UNL     1      -0.956  -6.653   1.958  0.00  0.00    +0.087 A 
ATOM     27  C   UNL     1      -1.884  -6.190   1.034  0.00  0.00    +0.091 A 
ATOM     28  C   UNL     1      -0.685  -2.575   1.256  0.00  0.00    +0.046 C 
BRANCH  20  29
ATOM     29  C   UNL     1      -1.427  -0.535   0.007  0.00  0.00    -0.032 C 
ATOM     30  C   UNL     1      -2.159  -0.046   1.258  0.00  0.00    +0.011 C 
ATOM     31  C   UNL     1      -2.155  -0.029  -1.240  0.00  0.00    +0.011 C 
BRANCH  29  33
ATOM     32  C   UNL     1      -0.021   1.530   0.024  0.00  0.00    +0.004 C 
ATOM     33  C   UNL     1       0.006   0.001   0.013  0.00  0.00    +0.003 C 
ENDBRANCH  29  33
ENDBRANCH  20  29
BRANCH  27  34
ATOM     34  C   UNL     1      -2.842  -7.097   0.400  0.00  0.00    +0.342 C 
ATOM     35  O   UNL     1      -2.555  -7.653  -0.643  0.00  0.00    -0.245 OA
BRANCH  34  36
ATOM     36  O   UNL     1      -4.044  -7.317   0.972  0.00  0.00    -0.464 OA
ATOM     37  C   UNL     1      -4.943  -8.228   0.287  0.00  0.00    +0.280 C 
ENDBRANCH  34  36
ENDBRANCH  27  34
ENDBRANCH   1  26
TORSDOF 7
