REMARK  Name = ZINC59587432
REMARK  11 active torsions:
REMARK  status: ('A' for Active; 'I' for Inactive)
REMARK    1  A    between atoms: C_1  and  C_2
REMARK    2  A    between atoms: C_2  and  O_3
REMARK    3  A    between atoms: O_3  and  C_4
REMARK    4  A    between atoms: C_6  and  C_20
REMARK    5  A    between atoms: C_9  and  O_10
REMARK    6  A    between atoms: O_10  and  C_11
REMARK    7  A    between atoms: C_11  and  C_12
REMARK    8  A    between atoms: C_20  and  N_21
REMARK    9  A    between atoms: N_21  and  C_22
REMARK   10  A    between atoms: N_25  and  C_28
REMARK   11  A    between atoms: C_28  and  C_29
REMARK                            x       y       z     vdW  Elec       q    Type
REMARK                         _______ _______ _______ _____ _____    ______ ____
ROOT
ATOM      1  C   UNL     1       0.777  -1.811  -1.336  0.00  0.00    +0.163 A 
ATOM      2  C   UNL     1       0.243  -2.669  -0.388  0.00  0.00    +0.054 A 
ATOM      3  C   UNL     1       0.352  -4.037  -0.554  0.00  0.00    -0.029 A 
ATOM      4  C   UNL     1       0.992  -4.553  -1.665  0.00  0.00    +0.024 A 
ATOM      5  C   UNL     1       1.527  -3.702  -2.616  0.00  0.00    +0.063 A 
ATOM      6  C   UNL     1       1.416  -2.329  -2.458  0.00  0.00    +0.176 A 
ATOM      7 BR   UNL     1       2.403  -4.412  -4.134  0.00  0.00    -0.046 Br
ENDROOT
BRANCH   1   8
ATOM      8  O   UNL     1       0.671  -0.465  -1.174  0.00  0.00    -0.489 OA
BRANCH   8  10
ATOM      9  C   UNL     1      -0.019   1.526   0.010  0.00  0.00    +0.048 C 
ATOM     10  C   UNL     1       0.002  -0.004   0.002  0.00  0.00    +0.226 C 
ENDBRANCH   8  10
ENDBRANCH   1   8
BRANCH   6  11
ATOM     11  O   UNL     1       1.936  -1.491  -3.394  0.00  0.00    -0.483 OA
BRANCH  11  12
ATOM     12  C   UNL     1       3.293  -1.080  -3.215  0.00  0.00    +0.267 C 
BRANCH  12  13
ATOM     13  C   UNL     1       3.692  -0.161  -4.341  0.00  0.00    +0.025 A 
ATOM     14  C   UNL     1       2.780   0.158  -5.330  0.00  0.00    +0.010 A 
ATOM     15  C   UNL     1       3.147   1.000  -6.362  0.00  0.00    +0.001 A 
ATOM     16  C   UNL     1       4.425   1.525  -6.407  0.00  0.00    +0.003 A 
ATOM     17  C   UNL     1       5.338   1.209  -5.420  0.00  0.00    +0.039 A 
ATOM     18  C   UNL     1       4.970   0.369  -4.382  0.00  0.00    +0.130 A 
ATOM     19  F   UNL     1       5.861   0.062  -3.413  0.00  0.00    -0.205 F 
ENDBRANCH  12  13
ENDBRANCH  11  12
ENDBRANCH   6  11
BRANCH   3  20
ATOM     20  C   UNL     1      -0.228  -4.968   0.479  0.00  0.00    +0.116 C 
BRANCH  20  21
ATOM     21  N   UNL     1      -1.619  -5.283   0.128  0.00  0.00    -0.309 NA
ATOM     22  H   UNL     1      -2.167  -4.441   0.032  0.00  0.00    +0.123 HD
BRANCH  21  23
ATOM     23  C   UNL     1      -2.219  -6.191   1.116  0.00  0.00    +0.050 C 
ATOM     24  C   UNL     1      -1.879  -7.639   0.752  0.00  0.00    -0.000 C 
ATOM     25  C   UNL     1      -2.572  -8.582   1.738  0.00  0.00    -0.077 C 
ATOM     26  N   UNL     1      -4.025  -8.387   1.669  0.00  0.00    +0.382 N 
ATOM     27  C   UNL     1      -4.364  -7.021   2.085  0.00  0.00    -0.077 C 
ATOM     28  C   UNL     1      -3.741  -6.018   1.113  0.00  0.00    -0.000 C 
ATOM     29  H   UNL     1      -4.339  -8.536   0.722  0.00  0.00    -0.081 HD
BRANCH  26  30
ATOM     30  C   UNL     1      -4.690  -9.348   2.559  0.00  0.00    -0.043 C 
BRANCH  30  31
ATOM     31  C   UNL     1      -6.184  -9.232   2.397  0.00  0.00    -0.064 A 
ATOM     32  C   UNL     1      -6.898  -8.351   3.187  0.00  0.00    +0.002 A 
ATOM     33  C   UNL     1      -8.268  -8.244   3.039  0.00  0.00    +0.000 A 
ATOM     34  C   UNL     1      -8.924  -9.019   2.101  0.00  0.00    +0.000 A 
ATOM     35  C   UNL     1      -8.210  -9.900   1.311  0.00  0.00    +0.000 A 
ATOM     36  C   UNL     1      -6.839 -10.003   1.456  0.00  0.00    +0.002 A 
ENDBRANCH  30  31
ENDBRANCH  26  30
ENDBRANCH  21  23
ENDBRANCH  20  21
ENDBRANCH   3  20
TORSDOF 10
