REMARK  Name = ZINC01994104
REMARK  5 active torsions:
REMARK  status: ('A' for Active; 'I' for Inactive)
REMARK    1  A    between atoms: C_9  and  O_17
REMARK    2  A    between atoms: C_10  and  C_12
REMARK    3  A    between atoms: O_17  and  C_18
REMARK    4  A    between atoms: C_18  and  C_19
REMARK    5  A    between atoms: C_19  and  C_21
REMARK                            x       y       z     vdW  Elec       q    Type
REMARK                         _______ _______ _______ _____ _____    ______ ____
ROOT
ATOM      1  C   UNL     1       1.169   3.169   0.007  0.00  0.00    +0.001 A 
ATOM      2  C   UNL     1       1.172   1.782   0.000  0.00  0.00    +0.004 A 
ATOM      3  C   UNL     1      -0.013   1.076   0.008  0.00  0.00    +0.047 A 
ATOM      4  C   UNL     1      -1.225   1.755   0.017  0.00  0.00    +0.140 A 
ATOM      5  C   UNL     1      -1.227   3.158   0.030  0.00  0.00    +0.068 A 
ATOM      6  C   UNL     1      -0.022   3.861   0.022  0.00  0.00    +0.015 A 
ATOM      7  C   UNL     1      -2.523   3.865   0.046  0.00  0.00    +0.235 A 
ATOM      8  O   UNL     1      -2.580   5.084   0.053  0.00  0.00    -0.283 OA
ATOM      9  C   UNL     1      -3.696   3.075   0.037  0.00  0.00    +0.214 A 
ATOM     10  C   UNL     1      -3.585   1.701   0.029  0.00  0.00    +0.216 A 
ATOM     11  O   UNL     1      -2.393   1.078   0.020  0.00  0.00    -0.448 OA
ENDROOT
BRANCH  10  12
ATOM     12  C   UNL     1      -4.806   0.891   0.030  0.00  0.00    +0.173 A 
ATOM     13  C   UNL     1      -4.865  -0.474   0.024  0.00  0.00    +0.053 A 
ATOM     14  C   UNL     1      -6.226  -0.820   0.029  0.00  0.00    +0.042 A 
ATOM     15  C   UNL     1      -6.929   0.334   0.039  0.00  0.00    +0.196 A 
ATOM     16  O   UNL     1      -6.069   1.363   0.045  0.00  0.00    -0.460 OA
ENDBRANCH  10  12
BRANCH   9  17
ATOM     17  O   UNL     1      -4.922   3.666   0.046  0.00  0.00    -0.477 OA
BRANCH  17  18
ATOM     18  C   UNL     1      -5.500   3.940   1.324  0.00  0.00    +0.308 C 
BRANCH  18  19
ATOM     19  C   UNL     1      -6.847   4.590   1.137  0.00  0.00    +0.200 C 
ATOM     20  O   UNL     1      -7.271   4.797   0.019  0.00  0.00    -0.288 OA
BRANCH  19  21
ATOM     21  C   UNL     1      -7.649   4.972   2.309  0.00  0.00    +0.021 A 
ATOM     22  C   UNL     1      -7.166   4.729   3.600  0.00  0.00    +0.012 A 
ATOM     23  C   UNL     1      -7.920   5.097   4.694  0.00  0.00    +0.016 A 
ATOM     24  C   UNL     1      -9.158   5.693   4.518  0.00  0.00    +0.018 A 
ATOM     25  C   UNL     1      -9.645   5.931   3.243  0.00  0.00    +0.016 A 
ATOM     26  C   UNL     1      -8.899   5.575   2.139  0.00  0.00    +0.012 A 
ATOM     27 BR   UNL     1     -10.188   6.185   6.025  0.00  0.00    -0.050 Br
ENDBRANCH  19  21
ENDBRANCH  18  19
ENDBRANCH  17  18
ENDBRANCH   9  17
TORSDOF 5
