REMARK  Name = ZINC08835079
REMARK  14 active torsions:
REMARK  status: ('A' for Active; 'I' for Inactive)
REMARK    1  A    between atoms: C_1  and  C_2
REMARK    2  A    between atoms: C_3  and  C_13
REMARK    3  A    between atoms: C_4  and  C_12
REMARK    4  A    between atoms: C_7  and  C_8
REMARK    5  A    between atoms: C_8  and  O_10
REMARK    6  A    between atoms: O_10  and  C_11
REMARK    7  A    between atoms: C_13  and  C_15
REMARK    8  A    between atoms: C_16  and  O_34
REMARK    9  A    between atoms: N_19  and  C_30
REMARK   10  A    between atoms: C_20  and  C_22
REMARK   11  A    between atoms: C_30  and  C_31
REMARK   12  A    between atoms: C_31  and  N_58
REMARK   13  A    between atoms: C_32  and  N_58
REMARK   14  A    between atoms: C_33  and  N_58
REMARK                            x       y       z     vdW  Elec       q    Type
REMARK                         _______ _______ _______ _____ _____    ______ ____
ROOT
ATOM      1  C   UNL     1      -3.304   4.292   1.478  0.00  0.00    +0.071 C 
ATOM      2  C   UNL     1      -4.374   3.467   1.419  0.00  0.00    +0.188 C 
ATOM      3  C   UNL     1      -4.676   3.163   0.004  0.00  0.00    +0.282 C 
ATOM      4  O   UNL     1      -5.581   2.449  -0.378  0.00  0.00    -0.267 OA
ATOM      5  N   UNL     1      -3.800   3.795  -0.798  0.00  0.00    -0.285 N 
ATOM      6  C   UNL     1      -2.873   4.551   0.053  0.00  0.00    +0.144 C 
ENDROOT
BRANCH   6   7
ATOM      7  C   UNL     1      -1.462   4.065  -0.158  0.00  0.00    -0.021 A 
ATOM      8  C   UNL     1      -0.444   4.974  -0.377  0.00  0.00    +0.007 A 
ATOM      9  C   UNL     1       0.850   4.529  -0.571  0.00  0.00    +0.022 A 
ATOM     10  C   UNL     1       1.127   3.174  -0.546  0.00  0.00    +0.059 A 
ATOM     11  C   UNL     1       0.108   2.264  -0.327  0.00  0.00    +0.060 A 
ATOM     12  C   UNL     1      -1.188   2.710  -0.138  0.00  0.00    +0.027 A 
ATOM     13 CL   UNL     1       0.454   0.563  -0.296  0.00  0.00    -0.082 Cl
ATOM     14 CL   UNL     1       2.753   2.615  -0.790  0.00  0.00    -0.082 Cl
ENDBRANCH   6   7
BRANCH   1  15
ATOM     15  C   UNL     1      -2.682   4.832   2.692  0.00  0.00    +0.197 C 
ATOM     16  O   UNL     1      -1.656   4.337   3.122  0.00  0.00    -0.287 OA
BRANCH  15  19
ATOM     17  C   UNL     1      -1.620   6.179   5.376  0.00  0.00    +0.047 C 
ATOM     18  C   UNL     1      -2.836   6.579   4.581  0.00  0.00    -0.008 A 
ATOM     19  C   UNL     1      -3.298   5.974   3.391  0.00  0.00    +0.046 A 
ATOM     20  C   UNL     1      -4.442   6.652   3.008  0.00  0.00    +0.025 A 
ATOM     21  N   UNL     1      -4.677   7.626   3.903  0.00  0.00    -0.352 N 
ATOM     22  H   UNL     1      -5.418   8.251   3.872  0.00  0.00    +0.166 HD
ATOM     23  C   UNL     1      -3.697   7.596   4.872  0.00  0.00    +0.128 A 
ATOM     24  C   UNL     1      -5.282   6.350   1.794  0.00  0.00    +0.064 C 
BRANCH  23  25
ATOM     25  C   UNL     1      -3.601   8.500   6.024  0.00  0.00    +0.356 C 
ATOM     26  O   UNL     1      -2.689   8.377   6.818  0.00  0.00    -0.243 OA
BRANCH  25  27
ATOM     27  O   UNL     1      -4.525   9.466   6.202  0.00  0.00    -0.463 OA
ATOM     28  C   UNL     1      -4.367  10.323   7.363  0.00  0.00    +0.280 C 
ENDBRANCH  25  27
ENDBRANCH  23  25
ENDBRANCH  15  19
ENDBRANCH   1  15
BRANCH   2  29
ATOM     29  O   UNL     1      -5.060   2.994   2.486  0.00  0.00    -0.502 OA
ATOM     30  H   UNL     1      -5.804   2.406   2.169  0.00  0.00    +0.292 HD
ENDBRANCH   2  29
BRANCH   5  31
ATOM     31  C   UNL     1      -3.776   3.739  -2.261  0.00  0.00    +0.090 C 
BRANCH  31  32
ATOM     32  C   UNL     1      -2.889   2.577  -2.713  0.00  0.00    -0.060 C 
BRANCH  32  35
ATOM     33  C   UNL     1      -1.845   1.575  -4.654  0.00  0.00    -0.097 C 
ATOM     34  C   UNL     1      -4.189   2.179  -4.716  0.00  0.00    -0.097 C 
ATOM     35  N   UNL     1      -2.857   2.547  -4.190  0.00  0.00    +0.377 N 
ATOM     36  H   UNL     1      -2.608   3.480  -4.537  0.00  0.00    -0.083 HD
ENDBRANCH  32  35
ENDBRANCH  31  32
ENDBRANCH   5  31
TORSDOF 9
