REMARK  Name = ZINC36235453
REMARK  15 active torsions:
REMARK  status: ('A' for Active; 'I' for Inactive)
REMARK    1  A    between atoms: C_1  and  C_2
REMARK    2  A    between atoms: C_2  and  N_3
REMARK    3  A    between atoms: N_3  and  C_4
REMARK    4  A    between atoms: N_3  and  C_6
REMARK    5  A    between atoms: C_4  and  C_5
REMARK    6  A    between atoms: C_9  and  C_13
REMARK    7  A    between atoms: C_10  and  O_12
REMARK    8  A    between atoms: N_14  and  N_15
REMARK    9  A    between atoms: C_16  and  C_18
REMARK   10  A    between atoms: C_18  and  N_29
REMARK   11  A    between atoms: C_19  and  C_20
REMARK   12  A    between atoms: C_23  and  N_26
REMARK   13  A    between atoms: N_26  and  C_27
REMARK   14  A    between atoms: N_26  and  C_28
REMARK   15  A    between atoms: C_30  and  C_32
REMARK                            x       y       z     vdW  Elec       q    Type
REMARK                         _______ _______ _______ _____ _____    ______ ____
ROOT
ATOM      1  C   UNL     1      10.242  -2.366   2.647  0.00  0.00    +0.098 C 
ATOM      2  C   UNL     1      11.051  -2.876   3.606  0.00  0.00    +0.036 C 
ENDROOT
BRANCH   2   3
ATOM      3  C   UNL     1      10.527  -3.118   4.957  0.00  0.00    -0.023 A 
ATOM      4  C   UNL     1       9.255  -3.677   5.127  0.00  0.00    +0.010 A 
ATOM      5  C   UNL     1       8.768  -3.902   6.395  0.00  0.00    +0.023 A 
ATOM      6  C   UNL     1       9.538  -3.574   7.507  0.00  0.00    +0.029 A 
ATOM      7  C   UNL     1      10.804  -3.018   7.343  0.00  0.00    +0.023 A 
ATOM      8  C   UNL     1      11.301  -2.795   6.079  0.00  0.00    +0.010 A 
BRANCH   6   9
ATOM      9  N   UNL     1       9.042  -3.804   8.788  0.00  0.00    -0.336 N 
ATOM     10  C   UNL     1       7.767  -4.503   8.964  0.00  0.00    +0.129 C 
ATOM     11  C   UNL     1       9.794  -3.345   9.958  0.00  0.00    +0.129 C 
ENDBRANCH   6   9
ENDBRANCH   2   3
BRANCH   1  13
ATOM     12  N   UNL     1       8.083  -1.398   2.056  0.00  0.00    -0.202 N 
ATOM     13  C   UNL     1       8.953  -1.769   3.016  0.00  0.00    +0.277 C 
ATOM     14  O   UNL     1       8.669  -1.609   4.189  0.00  0.00    -0.267 OA
ATOM     15  H   UNL     1       8.308  -1.526   1.121  0.00  0.00    +0.178 HD
BRANCH  12  17
ATOM     16  C   UNL     1       6.014  -0.471   1.482  0.00  0.00    +0.142 C 
ATOM     17  N   UNL     1       6.852  -0.828   2.408  0.00  0.00    -0.187 NA
BRANCH  16  21
ATOM     18  C   UNL     1       2.282   1.257   2.549  0.00  0.00    +0.033 A 
ATOM     19  C   UNL     1       2.608   1.074   1.208  0.00  0.00    +0.024 A 
ATOM     20  C   UNL     1       3.816   0.514   0.858  0.00  0.00    +0.015 A 
ATOM     21  C   UNL     1       4.720   0.129   1.852  0.00  0.00    +0.036 A 
ATOM     22  C   UNL     1       4.391   0.314   3.203  0.00  0.00    +0.127 A 
ATOM     23  C   UNL     1       3.177   0.882   3.543  0.00  0.00    +0.069 A 
BRANCH  22  24
ATOM     24  O   UNL     1       5.265  -0.059   4.174  0.00  0.00    -0.506 OA
ATOM     25  H   UNL     1       5.884   0.637   4.434  0.00  0.00    +0.292 HD
ENDBRANCH  22  24
BRANCH  18  26
ATOM     26  N   UNL     1       1.056   1.825   2.895  0.00  0.00    -0.330 N 
BRANCH  26  28
ATOM     27  C   UNL     1       0.379   3.672   1.443  0.00  0.00    +0.024 C 
ATOM     28  C   UNL     1       0.111   2.222   1.848  0.00  0.00    +0.102 C 
ENDBRANCH  26  28
BRANCH  26  29
ATOM     29  C   UNL     1       0.714   2.025   4.305  0.00  0.00    +0.102 C 
ATOM     30  C   UNL     1      -0.002   0.781   4.837  0.00  0.00    +0.024 C 
ENDBRANCH  26  29
ENDBRANCH  18  26
ENDBRANCH  16  21
ENDBRANCH  12  17
ENDBRANCH   1  13
BRANCH   1  31
ATOM     31  N   UNL     1      10.634  -2.409   1.305  0.00  0.00    -0.277 N 
ATOM     32  C   UNL     1      10.758  -1.266   0.602  0.00  0.00    +0.248 C 
ATOM     33  O   UNL     1      10.617  -0.193   1.157  0.00  0.00    -0.270 OA
ATOM     34  H   UNL     1      10.818  -3.262   0.880  0.00  0.00    +0.155 HD
BRANCH  32  35
ATOM     35  C   UNL     1      11.063  -1.316  -0.843  0.00  0.00    +0.037 A 
ATOM     36  C   UNL     1      11.219  -2.546  -1.484  0.00  0.00    +0.013 A 
ATOM     37  C   UNL     1      11.505  -2.586  -2.834  0.00  0.00    +0.001 A 
ATOM     38  C   UNL     1      11.636  -1.410  -3.551  0.00  0.00    +0.000 A 
ATOM     39  C   UNL     1      11.483  -0.187  -2.921  0.00  0.00    +0.001 A 
ATOM     40  C   UNL     1      11.192  -0.134  -1.574  0.00  0.00    +0.013 A 
ENDBRANCH  32  35
ENDBRANCH   1  31
TORSDOF 11
