REMARK  Name = ZINC19597222
REMARK  7 active torsions:
REMARK  status: ('A' for Active; 'I' for Inactive)
REMARK    1  A    between atoms: C_1  and  N_2
REMARK    2  A    between atoms: C_9  and  C_21
REMARK    3  A    between atoms: C_11  and  C_17
REMARK    4  A    between atoms: C_11  and  C_19
REMARK    5  A    between atoms: C_12  and  N_16
REMARK    6  A    between atoms: C_13  and  C_14
REMARK    7  A    between atoms: C_26  and  C_27
REMARK                            x       y       z     vdW  Elec       q    Type
REMARK                         _______ _______ _______ _____ _____    ______ ____
ROOT
ATOM      1  C   UNL     1      -0.208   1.491   4.417  0.00  0.00    +0.105 C 
ATOM      2  N   UNL     1      -0.828   1.014   3.174  0.00  0.00    -0.301 NA
ATOM      3  C   UNL     1      -1.692  -0.153   3.429  0.00  0.00    +0.111 C 
ATOM      4  C   UNL     1      -2.155  -0.680   2.093  0.00  0.00    -0.007 C 
ATOM      5  C   UNL     1      -2.347   0.148   1.084  0.00  0.00    -0.026 C 
ATOM      6  C   UNL     1      -2.177   1.636   1.202  0.00  0.00    +0.044 C 
ATOM      7  C   UNL     1      -1.596   2.080   2.526  0.00  0.00    +0.093 C 
ATOM      8  C   UNL     1      -1.332   2.114   0.020  0.00  0.00    +0.068 C 
ATOM      9  C   UNL     1      -2.088   1.829  -1.278  0.00  0.00    +0.188 C 
ATOM     10  C   UNL     1      -2.558   0.407  -1.346  0.00  0.00    +0.054 C 
ATOM     11  C   UNL     1      -2.696  -0.389  -0.255  0.00  0.00    +0.074 C 
ENDROOT
BRANCH   8  12
ATOM     12  C   UNL     1      -0.017   1.378   0.010  0.00  0.00    -0.029 A 
ATOM     13  C   UNL     1       0.005   0.004  -0.138  0.00  0.00    +0.004 A 
ATOM     14  C   UNL     1       1.212  -0.670  -0.154  0.00  0.00    +0.000 A 
ATOM     15  C   UNL     1       2.397   0.030  -0.022  0.00  0.00    +0.001 A 
ATOM     16  C   UNL     1       2.375   1.404   0.126  0.00  0.00    +0.012 A 
ATOM     17  C   UNL     1       1.168   2.078   0.142  0.00  0.00    +0.058 A 
BRANCH  17  18
ATOM     18  C   UNL     1       1.144   3.576   0.304  0.00  0.00    +0.418 C 
ATOM     19  F   UNL     1       2.454   4.054   0.419  0.00  0.00    -0.166 F 
ATOM     20  F   UNL     1       0.532   4.156  -0.813  0.00  0.00    -0.166 F 
ATOM     21  F   UNL     1       0.423   3.910   1.456  0.00  0.00    -0.166 F 
ENDBRANCH  17  18
ENDBRANCH   8  12
BRANCH  10  22
ATOM     22  N   UNL     1      -2.862  -0.116  -2.571  0.00  0.00    -0.358 N 
ATOM     23  H   UNL     1      -3.209  -1.157  -2.655  0.00  0.00    +0.142 HD
ATOM     24  H   UNL     1      -2.760   0.503  -3.475  0.00  0.00    +0.142 HD
ENDBRANCH  10  22
BRANCH  11  25
ATOM     25  C   UNL     1      -3.174  -1.732  -0.394  0.00  0.00    +0.101 C 
ATOM     26  N   UNL     1      -3.553  -2.797  -0.505  0.00  0.00    -0.191 NA
ENDBRANCH  11  25
BRANCH   9  27
ATOM     27  C   UNL     1      -3.254   2.724  -1.361  0.00  0.00    +0.091 C 
ATOM     28  N   UNL     1      -4.154   3.414  -1.425  0.00  0.00    -0.194 NA
ENDBRANCH   9  27
BRANCH   9  29
ATOM     29  C   UNL     1      -1.199   2.096  -2.420  0.00  0.00    +0.091 C 
ATOM     30  N   UNL     1      -0.512   2.302  -3.302  0.00  0.00    -0.194 NA
ENDBRANCH   9  29
TORSDOF 6
