REMARK  Name = ZINC39707097
REMARK  9 active torsions:
REMARK  status: ('A' for Active; 'I' for Inactive)
REMARK    1  A    between atoms: C_1  and  C_2
REMARK    2  A    between atoms: C_7  and  C_15
REMARK    3  A    between atoms: C_13  and  C_14
REMARK    4  A    between atoms: C_15  and  C_16
REMARK    5  A    between atoms: C_16  and  N_17
REMARK    6  A    between atoms: C_18  and  C_20
REMARK    7  A    between atoms: C_20  and  C_22
REMARK    8  A    between atoms: N_25  and  C_32
REMARK    9  A    between atoms: C_32  and  C_33
REMARK                            x       y       z     vdW  Elec       q    Type
REMARK                         _______ _______ _______ _____ _____    ______ ____
ROOT
ATOM      1  N   UNL     1       2.632  -7.256   2.726  0.00  0.00    -0.309 N 
ATOM      2  C   UNL     1       2.899  -7.992   3.823  0.00  0.00    +0.280 C 
ATOM      3  O   UNL     1       2.101  -8.030   4.737  0.00  0.00    -0.267 OA
ATOM      4  H   UNL     1       3.270  -7.225   1.996  0.00  0.00    +0.149 HD
ENDROOT
BRANCH   2   5
ATOM      5  C   UNL     1       4.175  -8.758   3.914  0.00  0.00    +0.226 C 
ATOM      6  O   UNL     1       4.969  -8.719   3.005  0.00  0.00    -0.286 OA
BRANCH   5   7
ATOM      7  C   UNL     1       4.473  -9.581   5.141  0.00  0.00    +0.114 C 
ATOM      8  C   UNL     1       5.992  -9.686   5.359  0.00  0.00    +0.122 C 
ATOM      9  N   UNL     1       6.293 -11.117   5.274  0.00  0.00    -0.320 N 
ATOM     10  C   UNL     1       5.124 -11.840   5.032  0.00  0.00    +0.034 A 
ATOM     11  C   UNL     1       4.015 -11.008   4.943  0.00  0.00    -0.014 A 
ATOM     12  C   UNL     1       2.759 -11.532   4.708  0.00  0.00    +0.006 A 
ATOM     13  C   UNL     1       2.593 -12.897   4.560  0.00  0.00    +0.000 A 
ATOM     14  C   UNL     1       3.688 -13.737   4.647  0.00  0.00    +0.002 A 
ATOM     15  C   UNL     1       4.950 -13.217   4.880  0.00  0.00    +0.023 A 
BRANCH   9  16
ATOM     16  C   UNL     1       7.628 -11.704   5.421  0.00  0.00    +0.201 C 
BRANCH  16  17
ATOM     17  C   UNL     1       7.875 -12.033   6.871  0.00  0.00    +0.233 C 
ATOM     18  O   UNL     1       7.020 -11.801   7.700  0.00  0.00    -0.274 OA
ATOM     19  N   UNL     1       9.045 -12.586   7.246  0.00  0.00    -0.296 N 
ATOM     20  C   UNL     1      10.099 -12.872   6.260  0.00  0.00    +0.136 C 
ATOM     21  C   UNL     1      11.415 -12.276   6.772  0.00  0.00    +0.179 C 
ATOM     22  O   UNL     1      11.652 -12.735   8.105  0.00  0.00    -0.377 OA
ATOM     23  C   UNL     1      10.662 -12.323   9.050  0.00  0.00    +0.179 C 
ATOM     24  C   UNL     1       9.309 -12.916   8.656  0.00  0.00    +0.136 C 
ENDBRANCH  16  17
ENDBRANCH   9  16
ENDBRANCH   5   7
ENDBRANCH   2   5
BRANCH   1  25
ATOM     25  C   UNL     1       1.379  -6.503   2.636  0.00  0.00    +0.105 C 
BRANCH  25  26
ATOM     26  C   UNL     1       1.325  -5.759   1.300  0.00  0.00    +0.035 C 
BRANCH  26  33
ATOM     27  C   UNL     1      -4.760  -5.317  -3.058  0.00  0.00    +0.044 C 
ATOM     28  C   UNL     1      -3.787  -5.429  -1.912  0.00  0.00    -0.046 A 
ATOM     29  C   UNL     1      -4.047  -6.354  -0.901  0.00  0.00    +0.004 A 
ATOM     30  C   UNL     1      -3.208  -6.501   0.157  0.00  0.00    +0.010 A 
ATOM     31  C   UNL     1      -2.009  -5.665   0.227  0.00  0.00    -0.007 A 
ATOM     32  C   UNL     1      -1.137  -5.777   1.269  0.00  0.00    -0.005 C 
ATOM     33  C   UNL     1       0.079  -4.872   1.260  0.00  0.00    +0.100 C 
ATOM     34  C   UNL     1       0.226  -3.919   0.096  0.00  0.00    +0.224 C 
ATOM     35  O   UNL     1       1.183  -3.170   0.037  0.00  0.00    -0.275 OA
ATOM     36  N   UNL     1      -0.689  -3.902  -0.859  0.00  0.00    -0.284 N 
ATOM     37  C   UNL     1      -1.759  -4.696  -0.855  0.00  0.00    +0.043 A 
ATOM     38  C   UNL     1      -2.690  -4.628  -1.908  0.00  0.00    -0.026 A 
ATOM     39  C   UNL     1      -2.471  -3.654  -3.037  0.00  0.00    +0.046 C 
ATOM     40  H   UNL     1      -0.575  -3.283  -1.597  0.00  0.00    +0.155 HD
ENDBRANCH  26  33
ENDBRANCH  25  26
ENDBRANCH   1  25
TORSDOF 7
