REMARK  Name = ZINC63796067
REMARK  9 active torsions:
REMARK  status: ('A' for Active; 'I' for Inactive)
REMARK    1  A    between atoms: C_1  and  O_2
REMARK    2  A    between atoms: O_2  and  C_3
REMARK    3  A    between atoms: C_9  and  C_12
REMARK    4  A    between atoms: C_12  and  C_13
REMARK    5  A    between atoms: C_13  and  N_14
REMARK    6  A    between atoms: C_15  and  C_17
REMARK    7  A    between atoms: C_20  and  C_24
REMARK    8  A    between atoms: C_24  and  C_25
REMARK    9  A    between atoms: N_27  and  C_28
REMARK                            x       y       z     vdW  Elec       q    Type
REMARK                         _______ _______ _______ _____ _____    ______ ____
ROOT
ATOM      1  C   UNL     1      -2.386  -8.611  -1.027  0.00  0.00    +0.297 C 
ATOM      2  N   UNL     1      -1.503  -9.774  -1.300  0.00  0.00    -0.265 NA
ATOM      3  C   UNL     1      -1.668 -10.603  -0.076  0.00  0.00    +0.158 C 
ATOM      4  N   UNL     1      -1.782  -9.601   1.010  0.00  0.00    -0.181 NA
ATOM      5  O   UNL     1      -2.230  -8.349   0.380  0.00  0.00    -0.270 OA
ATOM      6  H   UNL     1      -1.809 -10.276  -2.121  0.00  0.00    +0.126 HD
ATOM      7  H   UNL     1      -0.898  -9.475   1.480  0.00  0.00    +0.156 HD
ENDROOT
BRANCH   1   9
ATOM      8  N   UNL     1      -0.777  -6.808  -1.555  0.00  0.00    -0.312 N 
ATOM      9  C   UNL     1      -1.946  -7.417  -1.835  0.00  0.00    +0.259 C 
ATOM     10  O   UNL     1      -2.645  -7.005  -2.737  0.00  0.00    -0.271 OA
ATOM     11  H   UNL     1      -0.219  -7.138  -0.834  0.00  0.00    +0.149 HD
BRANCH   8  12
ATOM     12  C   UNL     1      -0.350  -5.648  -2.341  0.00  0.00    +0.108 C 
BRANCH  12  13
ATOM     13  C   UNL     1       1.001  -5.151  -1.822  0.00  0.00    +0.052 C 
BRANCH  13  20
ATOM     14  C   UNL     1       0.566  -0.627  -1.153  0.00  0.00    +0.121 A 
ATOM     15  C   UNL     1       1.128   0.169  -2.166  0.00  0.00    +0.047 A 
ATOM     16  C   UNL     1       1.744  -0.358  -3.247  0.00  0.00    +0.029 A 
ATOM     17  C   UNL     1       1.843  -1.814  -3.390  0.00  0.00    +0.043 A 
ATOM     18  N   UNL     1       2.376  -2.568  -4.319  0.00  0.00    -0.380 N 
ATOM     19  C   UNL     1       2.183  -3.974  -3.947  0.00  0.00    +0.144 C 
ATOM     20  C   UNL     1       1.441  -3.957  -2.630  0.00  0.00    -0.040 C 
ATOM     21  C   UNL     1       1.252  -2.653  -2.323  0.00  0.00    +0.002 A 
ATOM     22  C   UNL     1       0.610  -1.981  -1.188  0.00  0.00    +0.055 A 
ATOM     23  H   UNL     1       2.822  -2.250  -5.120  0.00  0.00    +0.160 HD
BRANCH  14  25
ATOM     24  C   UNL     1      -0.059   1.411  -0.101  0.00  0.00    +0.277 C 
ATOM     25  O   UNL     1      -0.036  -0.018  -0.098  0.00  0.00    -0.495 OA
ENDBRANCH  14  25
ENDBRANCH  13  20
ENDBRANCH  12  13
ENDBRANCH   8  12
ENDBRANCH   1   9
BRANCH   3  26
ATOM     26  C   UNL     1      -0.444 -11.496   0.138  0.00  0.00    +0.132 C 
BRANCH  26  27
ATOM     27  C   UNL     1      -0.689 -12.411   1.311  0.00  0.00    +0.220 C 
ATOM     28  O   UNL     1      -1.738 -12.353   1.916  0.00  0.00    -0.275 OA
ATOM     29  N   UNL     1       0.259 -13.292   1.687  0.00  0.00    -0.283 N 
ATOM     30  H   UNL     1       1.071 -13.383   1.165  0.00  0.00    +0.155 HD
BRANCH  29  31
ATOM     31  C   UNL     1       0.070 -14.077   2.833  0.00  0.00    +0.069 A 
ATOM     32  C   UNL     1      -1.200 -14.522   3.169  0.00  0.00    +0.029 A 
ATOM     33  C   UNL     1      -1.384 -15.295   4.299  0.00  0.00    +0.040 A 
ATOM     34  C   UNL     1      -0.302 -15.627   5.097  0.00  0.00    +0.126 A 
ATOM     35  C   UNL     1       0.967 -15.185   4.765  0.00  0.00    +0.078 A 
ATOM     36  C   UNL     1       1.157 -14.415   3.631  0.00  0.00    +0.147 A 
ATOM     37  F   UNL     1       2.396 -13.989   3.304  0.00  0.00    -0.203 F 
ATOM     38  F   UNL     1      -0.485 -16.384   6.201  0.00  0.00    -0.205 F 
ENDBRANCH  29  31
ENDBRANCH  26  27
ENDBRANCH   3  26
TORSDOF 8
