REMARK  Name = ZINC19926573
REMARK  8 active torsions:
REMARK  status: ('A' for Active; 'I' for Inactive)
REMARK    1  A    between atoms: C_1  and  C_2
REMARK    2  A    between atoms: C_3  and  N_9
REMARK    3  A    between atoms: N_9  and  C_10
REMARK    4  A    between atoms: N_9  and  S_27
REMARK    5  A    between atoms: C_10  and  C_11
REMARK    6  A    between atoms: C_14  and  C_17
REMARK    7  A    between atoms: N_19  and  N_20
REMARK    8  A    between atoms: S_27  and  C_30
REMARK                            x       y       z     vdW  Elec       q    Type
REMARK                         _______ _______ _______ _____ _____    ______ ____
ROOT
ATOM      1  N   UNL     1      -0.197  -0.117  -2.260  0.00  0.00    -0.198 N 
ENDROOT
BRANCH   1   4
ATOM      2  C   UNL     1      -0.551   1.212   0.231  0.00  0.00    +0.047 C 
ATOM      3  C   UNL     1      -0.606  -0.289   0.113  0.00  0.00    -0.010 A 
ATOM      4  C   UNL     1      -0.427  -0.897  -1.124  0.00  0.00    +0.056 A 
ATOM      5  C   UNL     1      -0.479  -2.281  -1.229  0.00  0.00    +0.025 A 
ATOM      6  C   UNL     1      -0.708  -3.049  -0.104  0.00  0.00    +0.003 A 
ATOM      7  C   UNL     1      -0.886  -2.443   1.125  0.00  0.00    +0.020 A 
ATOM      8  C   UNL     1      -0.829  -1.064   1.235  0.00  0.00    +0.046 A 
ATOM      9 CL   UNL     1      -1.045  -0.307   2.783  0.00  0.00    -0.083 Cl
ENDBRANCH   1   4
BRANCH   1  10
ATOM     10  S   UNL     1       1.341   0.379  -2.625  0.00  0.00    +0.075 S 
ATOM     11  O   UNL     1       1.211   1.545  -3.427  0.00  0.00    -0.150 OA
ATOM     12  O   UNL     1       2.071   0.370  -1.406  0.00  0.00    -0.150 OA
BRANCH  10  13
ATOM     13  C   UNL     1       2.058  -0.861  -3.651  0.00  0.00    +0.109 A 
ATOM     14  C   UNL     1       2.747  -1.915  -3.082  0.00  0.00    +0.029 A 
ATOM     15  C   UNL     1       3.310  -2.888  -3.887  0.00  0.00    +0.002 A 
ATOM     16  C   UNL     1       3.183  -2.807  -5.261  0.00  0.00    +0.000 A 
ATOM     17  C   UNL     1       2.492  -1.754  -5.830  0.00  0.00    +0.002 A 
ATOM     18  C   UNL     1       1.926  -0.783  -5.025  0.00  0.00    +0.029 A 
ENDBRANCH  10  13
ENDBRANCH   1  10
BRANCH   1  19
ATOM     19  C   UNL     1      -1.314   0.262  -3.127  0.00  0.00    +0.166 C 
BRANCH  19  20
ATOM     20  C   UNL     1      -1.972   1.505  -2.585  0.00  0.00    -0.028 A 
ATOM     21  C   UNL     1      -3.009   1.394  -1.676  0.00  0.00    +0.006 A 
ATOM     22  C   UNL     1      -3.616   2.527  -1.175  0.00  0.00    +0.013 A 
ATOM     23  C   UNL     1      -3.181   3.788  -1.587  0.00  0.00    +0.038 A 
ATOM     24  C   UNL     1      -2.134   3.893  -2.505  0.00  0.00    +0.013 A 
ATOM     25  C   UNL     1      -1.533   2.751  -2.994  0.00  0.00    +0.006 A 
BRANCH  23  26
ATOM     26  C   UNL     1      -3.826   5.007  -1.056  0.00  0.00    +0.263 C 
ATOM     27  O   UNL     1      -4.738   4.913  -0.257  0.00  0.00    -0.268 OA
ATOM     28  N   UNL     1      -3.404   6.223  -1.456  0.00  0.00    -0.203 N 
ATOM     29  H   UNL     1      -2.676   6.298  -2.093  0.00  0.00    +0.178 HD
BRANCH  28  30
ATOM     30  N   UNL     1      -4.015   7.378  -0.952  0.00  0.00    -0.189 NA
ATOM     31  C   UNL     1      -3.686   8.528  -1.408  0.00  0.00    +0.037 C 
ATOM     32  C   UNL     1      -2.753   8.654  -2.592  0.00  0.00    +0.052 C 
ATOM     33  C   UNL     1      -3.406   9.575  -3.629  0.00  0.00    +0.006 C 
ATOM     34  C   UNL     1      -3.770  10.906  -2.969  0.00  0.00    +0.001 C 
ATOM     35  C   UNL     1      -4.817  10.674  -1.879  0.00  0.00    +0.006 C 
ATOM     36  C   UNL     1      -4.223   9.794  -0.779  0.00  0.00    +0.052 C 
ENDBRANCH  28  30
ENDBRANCH  23  26
ENDBRANCH  19  20
ENDBRANCH   1  19
TORSDOF 7
