REMARK  Name = ZINC14458998
REMARK  6 active torsions:
REMARK  status: ('A' for Active; 'I' for Inactive)
REMARK    1  A    between atoms: C_1  and  O_2
REMARK    2  A    between atoms: O_2  and  C_3
REMARK    3  A    between atoms: C_5  and  C_10
REMARK    4  A    between atoms: C_8  and  O_9
REMARK    5  A    between atoms: C_20  and  N_27
REMARK    6  A    between atoms: C_23  and  O_26
REMARK                            x       y       z     vdW  Elec       q    Type
REMARK                         _______ _______ _______ _____ _____    ______ ____
ROOT
ATOM      1  C   UNL     1      -4.875   0.354  -0.033  0.00  0.00    +0.105 C 
ATOM      2  C   UNL     1      -5.441   0.384   1.375  0.00  0.00    +0.029 C 
ATOM      3  C   UNL     1      -4.656   1.178   2.428  0.00  0.00    +0.033 C 
ATOM      4  C   UNL     1      -5.772   1.618   3.377  0.00  0.00    -0.030 C 
ATOM      5  C   UNL     1      -6.927   1.675   2.725  0.00  0.00    -0.023 C 
ATOM      6  C   UNL     1      -6.704   1.294   1.296  0.00  0.00    +0.051 C 
ATOM      7  C   UNL     1      -7.719   0.590   0.483  0.00  0.00    +0.014 A 
ATOM      8  C   UNL     1      -9.070   0.680   0.746  0.00  0.00    +0.132 A 
ATOM      9  C   UNL     1      -9.984   0.015  -0.051  0.00  0.00    +0.037 A 
ATOM     10  C   UNL     1      -9.545  -0.746  -1.119  0.00  0.00    +0.049 A 
ATOM     11  C   UNL     1      -8.192  -0.848  -1.389  0.00  0.00    +0.138 A 
ATOM     12  C   UNL     1      -7.264  -0.186  -0.587  0.00  0.00    +0.076 A 
ATOM     13  N   UNL     1      -5.894  -0.330  -0.860  0.00  0.00    -0.334 N 
ATOM     14  H   UNL     1      -5.610  -0.888  -1.600  0.00  0.00    +0.147 HD
ENDROOT
BRANCH   1  17
ATOM     15  C   UNL     1      -1.185  -0.450  -0.117  0.00  0.00    +0.162 A 
ATOM     16  C   UNL     1      -2.376   0.258  -0.094  0.00  0.00    +0.054 A 
ATOM     17  C   UNL     1      -3.581  -0.418  -0.058  0.00  0.00    -0.023 A 
ATOM     18  C   UNL     1      -3.602  -1.800  -0.044  0.00  0.00    +0.009 A 
ATOM     19  C   UNL     1      -2.417  -2.513  -0.066  0.00  0.00    +0.049 A 
ATOM     20  C   UNL     1      -1.206  -1.842  -0.109  0.00  0.00    +0.158 A 
BRANCH  15  22
ATOM     21  C   UNL     1      -0.053   1.641  -0.159  0.00  0.00    +0.277 C 
ATOM     22  O   UNL     1       0.002   0.213  -0.153  0.00  0.00    -0.491 OA
ENDBRANCH  15  22
BRANCH  20  23
ATOM     23  O   UNL     1      -0.040  -2.541  -0.137  0.00  0.00    -0.503 OA
ATOM     24  H   UNL     1       0.321  -2.739   0.738  0.00  0.00    +0.292 HD
ENDBRANCH  20  23
ENDBRANCH   1  17
BRANCH   8  25
ATOM     25  N   UNL     1      -9.545   1.494   1.887  0.00  0.00    +0.057 N 
ATOM     26  O   UNL     1     -10.280   1.005   2.714  0.00  0.00    -0.126 OA
ATOM     27  O   UNL     1      -9.198   2.647   1.993  0.00  0.00    -0.126 OA
ENDBRANCH   8  25
BRANCH  11  28
ATOM     28  O   UNL     1      -7.766  -1.596  -2.442  0.00  0.00    -0.505 OA
ATOM     29  H   UNL     1      -7.694  -1.104  -3.271  0.00  0.00    +0.292 HD
ENDBRANCH  11  28
TORSDOF 5
