REMARK  Name = ZINC00883585
REMARK  8 active torsions:
REMARK  status: ('A' for Active; 'I' for Inactive)
REMARK    1  A    between atoms: C_7  and  C_20
REMARK    2  A    between atoms: N_9  and  C_10
REMARK    3  A    between atoms: C_10  and  C_11
REMARK    4  A    between atoms: N_13  and  C_14
REMARK    5  A    between atoms: C_14  and  C_15
REMARK    6  A    between atoms: C_21  and  C_22
REMARK    7  A    between atoms: C_21  and  C_24
REMARK    8  A    between atoms: N_26  and  C_27
REMARK                            x       y       z     vdW  Elec       q    Type
REMARK                         _______ _______ _______ _____ _____    ______ ____
ROOT
ATOM      1  C   UNL     1       0.400   2.807   2.156  0.00  0.00    +0.001 A 
ATOM      2  C   UNL     1       0.268   1.426   2.195  0.00  0.00    +0.002 A 
ATOM      3  C   UNL     1      -0.886   0.819   1.751  0.00  0.00    +0.026 A 
ATOM      4  C   UNL     1      -1.930   1.591   1.251  0.00  0.00    +0.050 A 
ATOM      5  C   UNL     1      -1.796   2.987   1.218  0.00  0.00    +0.007 A 
ATOM      6  C   UNL     1      -0.626   3.589   1.670  0.00  0.00    +0.010 A 
ATOM      7  C   UNL     1      -3.059   3.501   0.651  0.00  0.00    +0.002 A 
ATOM      8  C   UNL     1      -3.838   2.391   0.381  0.00  0.00    +0.095 A 
ATOM      9  N   UNL     1      -3.174   1.276   0.742  0.00  0.00    -0.337 N 
ENDROOT
BRANCH   7  10
ATOM     10  C   UNL     1      -3.397   4.852   0.415  0.00  0.00    +0.034 C 
ATOM     11  C   UNL     1      -4.434   5.167  -0.445  0.00  0.00    +0.114 C 
BRANCH  11  12
ATOM     12  C   UNL     1      -4.911   6.551  -0.545  0.00  0.00    +0.259 C 
ATOM     13  O   UNL     1      -4.395   7.423   0.129  0.00  0.00    -0.269 OA
ATOM     14  N   UNL     1      -5.922   6.858  -1.383  0.00  0.00    -0.281 N 
ATOM     15  H   UNL     1      -6.377   6.154  -1.871  0.00  0.00    +0.155 HD
BRANCH  14  16
ATOM     16  C   UNL     1      -6.314   8.190  -1.548  0.00  0.00    +0.035 A 
ATOM     17  C   UNL     1      -7.652   8.501  -1.755  0.00  0.00    +0.025 A 
ATOM     18  C   UNL     1      -8.037   9.818  -1.913  0.00  0.00    +0.023 A 
ATOM     19  C   UNL     1      -7.091  10.827  -1.877  0.00  0.00    +0.059 A 
ATOM     20  C   UNL     1      -5.755  10.520  -1.677  0.00  0.00    +0.061 A 
ATOM     21  C   UNL     1      -5.365   9.204  -1.512  0.00  0.00    +0.044 A 
ATOM     22 CL   UNL     1      -4.571  11.788  -1.631  0.00  0.00    -0.082 Cl
ATOM     23 CL   UNL     1      -7.578  12.480  -2.082  0.00  0.00    -0.082 Cl
ENDBRANCH  14  16
ENDBRANCH  11  12
BRANCH  11  24
ATOM     24  C   UNL     1      -5.043   4.141  -1.238  0.00  0.00    +0.104 C 
ATOM     25  N   UNL     1      -5.525   3.328  -1.868  0.00  0.00    -0.191 NA
ENDBRANCH  11  24
ENDBRANCH   7  10
BRANCH   9  26
ATOM     26  C   UNL     1      -3.699  -0.085   0.611  0.00  0.00    +0.217 C 
BRANCH  26  27
ATOM     27  C   UNL     1      -4.330  -0.508   1.913  0.00  0.00    +0.233 C 
ATOM     28  O   UNL     1      -4.339   0.253   2.857  0.00  0.00    -0.274 OA
ATOM     29  N   UNL     1      -4.883  -1.732   2.027  0.00  0.00    -0.307 N 
ATOM     30  H   UNL     1      -4.876  -2.340   1.272  0.00  0.00    +0.149 HD
BRANCH  29  31
ATOM     31  C   UNL     1      -5.495  -2.143   3.293  0.00  0.00    +0.178 C 
BRANCH  31  32
ATOM     32  C   UNL     1      -6.036  -3.543   3.158  0.00  0.00    +0.122 A 
ATOM     33  C   UNL     1      -5.360  -4.676   3.421  0.00  0.00    +0.046 A 
ATOM     34  C   UNL     1      -6.243  -5.749   3.161  0.00  0.00    +0.041 A 
ATOM     35  C   UNL     1      -7.406  -5.208   2.755  0.00  0.00    +0.195 A 
ATOM     36  O   UNL     1      -7.276  -3.871   2.760  0.00  0.00    -0.466 OA
ENDBRANCH  31  32
ENDBRANCH  29  31
ENDBRANCH  26  27
ENDBRANCH   9  26
TORSDOF 8
