REMARK  Name = ZINC39609522
REMARK  11 active torsions:
REMARK  status: ('A' for Active; 'I' for Inactive)
REMARK    1  A    between atoms: C_1  and  C_2
REMARK    2  A    between atoms: C_2  and  O_3
REMARK    3  A    between atoms: O_3  and  C_4
REMARK    4  A    between atoms: C_8  and  C_10
REMARK    5  A    between atoms: C_10  and  C_11
REMARK    6  A    between atoms: C_11  and  N_12
REMARK    7  A    between atoms: C_13  and  C_15
REMARK    8  A    between atoms: C_26  and  C_28
REMARK    9  A    between atoms: C_32  and  N_34
REMARK   10  A    between atoms: N_34  and  C_35
REMARK   11  A    between atoms: N_34  and  C_36
REMARK                            x       y       z     vdW  Elec       q    Type
REMARK                         _______ _______ _______ _____ _____    ______ ____
ROOT
ATOM      1  C   UNL     1      -8.034  -5.345   2.769  0.00  0.00    +0.100 C 
ATOM      2  C   UNL     1      -9.211  -4.617   2.081  0.00  0.00    +0.121 C 
ATOM      3  N   UNL     1     -10.388  -4.926   2.928  0.00  0.00    -0.296 N 
ATOM      4  C   UNL     1      -9.871  -4.863   4.315  0.00  0.00    +0.115 C 
ATOM      5  C   UNL     1      -8.471  -5.504   4.235  0.00  0.00    -0.004 C 
ATOM      6  C   UNL     1      -8.545  -6.982   4.607  0.00  0.00    -0.010 C 
ATOM      7  C   UNL     1      -8.926  -7.113   6.084  0.00  0.00    -0.082 C 
ATOM      8  N   UNL     1      -7.925  -6.429   6.912  0.00  0.00    +0.379 N 
ATOM      9  C   UNL     1      -7.925  -4.992   6.613  0.00  0.00    -0.082 C 
ATOM     10  C   UNL     1      -7.502  -4.771   5.158  0.00  0.00    -0.010 C 
ATOM     11  C   UNL     1     -11.645  -5.201   2.526  0.00  0.00    +0.247 C 
ATOM     12  O   UNL     1     -11.888  -5.341   1.343  0.00  0.00    -0.270 OA
ATOM     13  H   UNL     1      -8.144  -6.569   7.887  0.00  0.00    -0.086 HD
ATOM     14  H   UNL     1      -7.011  -6.812   6.718  0.00  0.00    -0.086 HD
ENDROOT
BRANCH  11  15
ATOM     15  C   UNL     1     -12.728  -5.331   3.524  0.00  0.00    +0.039 A 
ATOM     16  C   UNL     1     -12.584  -4.765   4.792  0.00  0.00    +0.013 A 
ATOM     17  C   UNL     1     -13.596  -4.888   5.722  0.00  0.00    +0.003 A 
ATOM     18  C   UNL     1     -14.755  -5.571   5.403  0.00  0.00    +0.023 A 
ATOM     19  C   UNL     1     -14.908  -6.138   4.144  0.00  0.00    +0.030 A 
ATOM     20  C   UNL     1     -13.899  -6.015   3.200  0.00  0.00    +0.036 A 
BRANCH  19  21
ATOM     21  N   UNL     1     -16.081  -6.828   3.826  0.00  0.00    -0.336 N 
ATOM     22  C   UNL     1     -17.149  -6.953   4.821  0.00  0.00    +0.129 C 
ATOM     23  C   UNL     1     -16.243  -7.425   2.499  0.00  0.00    +0.129 C 
ENDBRANCH  19  21
ENDBRANCH  11  15
BRANCH   1  25
ATOM     24  N   UNL     1      -5.575  -5.115   2.639  0.00  0.00    -0.315 N 
ATOM     25  C   UNL     1      -6.780  -4.514   2.682  0.00  0.00    +0.218 C 
ATOM     26  O   UNL     1      -6.856  -3.304   2.651  0.00  0.00    -0.275 OA
ATOM     27  H   UNL     1      -5.515  -6.083   2.664  0.00  0.00    +0.149 HD
BRANCH  24  28
ATOM     28  C   UNL     1      -4.356  -4.307   2.554  0.00  0.00    +0.109 C 
BRANCH  28  29
ATOM     29  C   UNL     1      -3.135  -5.229   2.520  0.00  0.00    +0.054 C 
BRANCH  29  34
ATOM     30  C   UNL     1      -0.212  -3.286   1.119  0.00  0.00    +0.121 A 
ATOM     31  C   UNL     1       0.423  -2.870   2.280  0.00  0.00    +0.045 A 
ATOM     32  C   UNL     1      -0.095  -3.219   3.512  0.00  0.00    +0.004 A 
ATOM     33  C   UNL     1      -1.246  -3.982   3.589  0.00  0.00    +0.004 A 
ATOM     34  C   UNL     1      -1.881  -4.397   2.433  0.00  0.00    -0.042 A 
ATOM     35  C   UNL     1      -1.370  -4.046   1.198  0.00  0.00    +0.049 A 
BRANCH  30  36
ATOM     36  O   UNL     1       0.296  -2.944  -0.095  0.00  0.00    -0.492 OA
BRANCH  36  38
ATOM     37  C   UNL     1       1.907  -1.875  -1.545  0.00  0.00    +0.048 C 
ATOM     38  C   UNL     1       1.490  -2.160  -0.100  0.00  0.00    +0.225 C 
ENDBRANCH  36  38
ENDBRANCH  30  36
ENDBRANCH  29  34
ENDBRANCH  28  29
ENDBRANCH  24  28
ENDBRANCH   1  25
TORSDOF 8
