REMARK  Name = ZINC41001368
REMARK  14 active torsions:
REMARK  status: ('A' for Active; 'I' for Inactive)
REMARK    1  A    between atoms: C_1  and  C_2
REMARK    2  A    between atoms: C_2  and  C_3
REMARK    3  A    between atoms: C_3  and  C_4
REMARK    4  A    between atoms: C_4  and  S_5
REMARK    5  A    between atoms: S_5  and  C_6
REMARK    6  A    between atoms: C_11  and  C_20
REMARK    7  A    between atoms: C_13  and  C_17
REMARK    8  A    between atoms: C_14  and  C_16
REMARK    9  A    between atoms: C_17  and  C_19
REMARK   10  A    between atoms: C_23  and  O_28
REMARK   11  A    between atoms: C_24  and  O_26
REMARK   12  A    between atoms: O_26  and  C_27
REMARK   13  A    between atoms: O_28  and  C_29
REMARK   14  A    between atoms: C_29  and  C_30
REMARK                            x       y       z     vdW  Elec       q    Type
REMARK                         _______ _______ _______ _____ _____    ______ ____
ROOT
ATOM      1  C   UNL     1      -3.069  -4.467  -0.000  0.00  0.00    +0.210 A 
ATOM      2  N   UNL     1      -1.871  -5.068   0.046  0.00  0.00    -0.187 NA
ATOM      3  C   UNL     1      -2.032  -6.363   0.020  0.00  0.00    +0.219 A 
ATOM      4  N   UNL     1      -3.362  -6.622  -0.039  0.00  0.00    -0.220 N 
ATOM      5  N   UNL     1      -4.009  -5.387  -0.049  0.00  0.00    -0.141 NA
ATOM      6  C   UNL     1      -3.923  -7.970  -0.072  0.00  0.00    +0.176 C 
ATOM      7  C   UNL     1      -2.822  -8.964  -0.331  0.00  0.00    +0.040 C 
ATOM      8  C   UNL     1      -1.515  -8.645  -0.261  0.00  0.00    +0.016 C 
ATOM      9  N   UNL     1      -1.088  -7.380   0.043  0.00  0.00    -0.287 N 
ATOM     10  C   UNL     1      -0.488  -9.717  -0.525  0.00  0.00    +0.061 C 
ATOM     11  H   UNL     1      -0.161  -7.202   0.265  0.00  0.00    +0.155 HD
ENDROOT
BRANCH   6  12
ATOM     12  C   UNL     1      -4.575  -8.275   1.252  0.00  0.00    -0.015 A 
ATOM     13  C   UNL     1      -3.826  -8.248   2.413  0.00  0.00    +0.010 A 
ATOM     14  C   UNL     1      -4.420  -8.527   3.629  0.00  0.00    +0.050 A 
ATOM     15  C   UNL     1      -5.769  -8.835   3.687  0.00  0.00    +0.162 A 
ATOM     16  C   UNL     1      -6.524  -8.862   2.518  0.00  0.00    +0.162 A 
ATOM     17  C   UNL     1      -5.924  -8.576   1.303  0.00  0.00    +0.055 A 
BRANCH  16  18
ATOM     18  O   UNL     1      -7.849  -9.164   2.570  0.00  0.00    -0.491 OA
ATOM     19  C   UNL     1      -8.561  -9.172   1.331  0.00  0.00    +0.277 C 
ENDBRANCH  16  18
BRANCH  15  20
ATOM     20  O   UNL     1      -6.355  -9.111   4.883  0.00  0.00    -0.484 OA
BRANCH  20  21
ATOM     21  C   UNL     1      -5.519  -9.065   6.041  0.00  0.00    +0.264 C 
BRANCH  21  22
ATOM     22  C   UNL     1      -6.335  -9.395   7.264  0.00  0.00    -0.010 A 
ATOM     23  C   UNL     1      -6.973  -8.387   7.962  0.00  0.00    +0.008 A 
ATOM     24  C   UNL     1      -7.722  -8.689   9.083  0.00  0.00    +0.020 A 
ATOM     25  C   UNL     1      -7.833 -10.001   9.507  0.00  0.00    +0.041 A 
ATOM     26  C   UNL     1      -7.195 -11.010   8.808  0.00  0.00    +0.020 A 
ATOM     27  C   UNL     1      -6.451 -10.707   7.684  0.00  0.00    +0.008 A 
ATOM     28 CL   UNL     1      -8.774 -10.382  10.916  0.00  0.00    -0.084 Cl
ENDBRANCH  21  22
ENDBRANCH  20  21
ENDBRANCH  15  20
ENDBRANCH   6  12
BRANCH   7  29
ATOM     29  C   UNL     1      -3.174 -10.282  -0.659  0.00  0.00    +0.160 C 
ATOM     30  O   UNL     1      -2.930 -10.718  -1.767  0.00  0.00    -0.293 OA
ATOM     31  C   UNL     1      -3.854 -11.157   0.362  0.00  0.00    +0.091 C 
ENDBRANCH   7  29
BRANCH   1  32
ATOM     32  S   UNL     1      -3.342  -2.726   0.010  0.00  0.00    -0.084 S 
BRANCH  32  33
ATOM     33  C   UNL     1      -1.672  -2.021   0.085  0.00  0.00    +0.077 C 
BRANCH  33  34
ATOM     34  C   UNL     1      -1.763  -0.494   0.101  0.00  0.00    +0.011 C 
BRANCH  34  36
ATOM     35  C   UNL     1      -0.446   1.628   0.179  0.00  0.00    +0.004 C 
ATOM     36  C   UNL     1      -0.355   0.101   0.164  0.00  0.00    -0.003 C 
ENDBRANCH  34  36
ENDBRANCH  33  34
ENDBRANCH  32  33
ENDBRANCH   1  32
TORSDOF 10
