REMARK  Name = ZINC57608647
REMARK  10 active torsions:
REMARK  status: ('A' for Active; 'I' for Inactive)
REMARK    1  A    between atoms: C_1  and  C_2
REMARK    2  A    between atoms: C_5  and  C_41
REMARK    3  A    between atoms: C_9  and  C_14
REMARK    4  A    between atoms: C_14  and  C_16
REMARK    5  A    between atoms: C_14  and  N_27
REMARK    6  A    between atoms: N_20  and  C_21
REMARK    7  A    between atoms: N_27  and  C_28
REMARK    8  A    between atoms: N_27  and  C_34
REMARK    9  A    between atoms: C_28  and  C_29
REMARK   10  A    between atoms: C_34  and  C_35
REMARK                            x       y       z     vdW  Elec       q    Type
REMARK                         _______ _______ _______ _____ _____    ______ ____
ROOT
ATOM      1  C   UNL     1       0.047  -0.075   4.972  0.00  0.00    +0.163 C 
ENDROOT
BRANCH   1  10
ATOM      2  C   UNL     1       0.509   2.648   0.557  0.00  0.00    +0.044 C 
ATOM      3  C   UNL     1       0.694   1.193   0.207  0.00  0.00    -0.041 A 
ATOM      4  C   UNL     1       0.938   0.824  -1.085  0.00  0.00    +0.004 A 
ATOM      5  C   UNL     1       1.111  -0.513  -1.417  0.00  0.00    +0.005 A 
ATOM      6  C   UNL     1       1.039  -1.493  -0.450  0.00  0.00    -0.026 A 
ATOM      7  C   UNL     1       0.791  -1.141   0.872  0.00  0.00    +0.052 A 
ATOM      8  C   UNL     1       0.623   0.217   1.206  0.00  0.00    +0.002 A 
ATOM      9  C   UNL     1       0.367   0.578   2.602  0.00  0.00    +0.021 A 
ATOM     10  C   UNL     1       0.308  -0.412   3.526  0.00  0.00    +0.042 A 
ATOM     11  C   UNL     1       0.490  -1.758   3.140  0.00  0.00    +0.254 A 
ATOM     12  O   UNL     1       0.433  -2.632   3.987  0.00  0.00    -0.268 OA
ATOM     13  N   UNL     1       0.715  -2.100   1.859  0.00  0.00    -0.322 N 
ATOM     14  H   UNL     1       0.835  -3.034   1.628  0.00  0.00    +0.169 HD
ATOM     15  C   UNL     1       1.228  -2.940  -0.825  0.00  0.00    +0.046 C 
ENDBRANCH   1  10
BRANCH   1  16
ATOM     16  C   UNL     1      -1.271  -0.669   5.396  0.00  0.00    +0.173 A 
ATOM     17  N   UNL     1      -1.513  -1.931   5.657  0.00  0.00    -0.111 NA
ATOM     18  N   UNL     1      -2.754  -2.038   5.985  0.00  0.00    -0.023 NA
ATOM     19  N   UNL     1      -3.310  -0.877   5.941  0.00  0.00    -0.044 NA
ATOM     20  N   UNL     1      -2.427  -0.006   5.587  0.00  0.00    -0.224 N 
BRANCH  20  21
ATOM     21  C   UNL     1      -2.643   1.433   5.420  0.00  0.00    +0.111 C 
ATOM     22  C   UNL     1      -3.106   2.037   6.747  0.00  0.00    +0.027 C 
ATOM     23  C   UNL     1      -3.331   3.540   6.574  0.00  0.00    +0.002 C 
ATOM     24  C   UNL     1      -4.401   3.775   5.505  0.00  0.00    +0.000 C 
ATOM     25  C   UNL     1      -3.937   3.172   4.178  0.00  0.00    +0.002 C 
ATOM     26  C   UNL     1      -3.712   1.668   4.352  0.00  0.00    +0.027 C 
ENDBRANCH  20  21
ENDBRANCH   1  16
BRANCH   1  27
ATOM     27  N   UNL     1       1.124  -0.626   5.805  0.00  0.00    -0.279 NA
BRANCH  27  28
ATOM     28  C   UNL     1       1.081  -0.062   7.161  0.00  0.00    +0.159 C 
BRANCH  28  29
ATOM     29  C   UNL     1      -0.177  -0.516   7.854  0.00  0.00    +0.119 A 
ATOM     30  C   UNL     1      -0.307  -1.627   8.602  0.00  0.00    +0.046 A 
ATOM     31  C   UNL     1      -1.645  -1.662   9.055  0.00  0.00    +0.041 A 
ATOM     32  C   UNL     1      -2.254  -0.571   8.557  0.00  0.00    +0.195 A 
ATOM     33  O   UNL     1      -1.359   0.122   7.836  0.00  0.00    -0.467 OA
ENDBRANCH  28  29
ENDBRANCH  27  28
BRANCH  27  34
ATOM     34  C   UNL     1       2.437  -0.405   5.184  0.00  0.00    +0.117 C 
BRANCH  34  35
ATOM     35  C   UNL     1       3.478  -1.299   5.860  0.00  0.00    +0.132 C 
ATOM     36  C   UNL     1       4.861  -1.076   5.210  0.00  0.00    +0.035 C 
ATOM     37  C   UNL     1       5.442  -2.516   5.170  0.00  0.00    +0.031 C 
ATOM     38  C   UNL     1       4.156  -3.345   4.926  0.00  0.00    +0.160 C 
ATOM     39  O   UNL     1       3.129  -2.676   5.677  0.00  0.00    -0.375 OA
ENDBRANCH  34  35
ENDBRANCH  27  34
ENDBRANCH   1  27
TORSDOF 8
