REMARK  Name = ZINC67590445
REMARK  4 active torsions:
REMARK  status: ('A' for Active; 'I' for Inactive)
REMARK    1  A    between atoms: C_1  and  C_2
REMARK    2  A    between atoms: C_7  and  C_10
REMARK    3  A    between atoms: N_18  and  C_19
REMARK    4  A    between atoms: C_19  and  C_20
REMARK                            x       y       z     vdW  Elec       q    Type
REMARK                         _______ _______ _______ _____ _____    ______ ____
ROOT
ATOM      1  C   UNL     1      -0.022   1.523   0.001  0.00  0.00    +0.039 C 
ATOM      2  C   UNL     1      -0.000  -0.007  -0.002  0.00  0.00    +0.133 C 
ATOM      3  C   UNL     1      -1.438  -0.539   0.016  0.00  0.00    +0.140 C 
ATOM      4  N   UNL     1      -2.041  -0.204   1.315  0.00  0.00    -0.280 N 
ATOM      5  C   UNL     1      -1.294  -0.553   2.535  0.00  0.00    +0.145 C 
ATOM      6  C   UNL     1       0.137  -0.020   2.394  0.00  0.00    +0.166 C 
ATOM      7  O   UNL     1       0.691  -0.477   1.157  0.00  0.00    -0.366 OA
ATOM      8  C   UNL     1      -3.241   0.404   1.387  0.00  0.00    +0.302 C 
ATOM      9  O   UNL     1      -3.799   0.769   0.371  0.00  0.00    -0.253 OA
ATOM     10  N   UNL     1      -3.823   0.607   2.586  0.00  0.00    -0.299 N 
ATOM     11  H   UNL     1      -3.347   0.381   3.400  0.00  0.00    +0.150 HD
ENDROOT
BRANCH   6  12
ATOM     12  C   UNL     1       0.977  -0.523   3.540  0.00  0.00    -0.017 A 
ATOM     13  C   UNL     1       1.579  -1.764   3.462  0.00  0.00    +0.006 A 
ATOM     14  C   UNL     1       2.349  -2.226   4.513  0.00  0.00    +0.000 A 
ATOM     15  C   UNL     1       2.517  -1.446   5.641  0.00  0.00    +0.000 A 
ATOM     16  C   UNL     1       1.915  -0.204   5.719  0.00  0.00    +0.000 A 
ATOM     17  C   UNL     1       1.149   0.259   4.667  0.00  0.00    +0.006 A 
ENDBRANCH   6  12
BRANCH  10  18
ATOM     18  C   UNL     1      -5.174   1.168   2.658  0.00  0.00    +0.113 C 
BRANCH  18  19
ATOM     19  C   UNL     1      -5.596   1.295   4.124  0.00  0.00    +0.048 C 
ATOM     20  C   UNL     1      -7.046   1.777   4.203  0.00  0.00    +0.047 C 
ATOM     21  C   UNL     1      -7.369   2.184   5.619  0.00  0.00    -0.005 A 
ATOM     22  C   UNL     1      -8.698   2.291   5.995  0.00  0.00    +0.007 A 
ATOM     23  C   UNL     1      -9.030   2.666   7.282  0.00  0.00    +0.000 A 
ATOM     24  C   UNL     1      -8.033   2.938   8.201  0.00  0.00    +0.004 A 
ATOM     25  C   UNL     1      -6.708   2.832   7.833  0.00  0.00    +0.046 A 
ATOM     26  C   UNL     1      -6.370   2.453   6.537  0.00  0.00    +0.124 A 
ATOM     27  O   UNL     1      -5.054   2.349   6.215  0.00  0.00    -0.491 OA
ATOM     28  C   UNL     1      -4.706   2.326   4.830  0.00  0.00    +0.234 C 
ENDBRANCH  18  19
ENDBRANCH  10  18
TORSDOF 3
