REMARK  Name = ZINC39710692
REMARK  12 active torsions:
REMARK  status: ('A' for Active; 'I' for Inactive)
REMARK    1  A    between atoms: C_1  and  C_2
REMARK    2  A    between atoms: C_7  and  C_14
REMARK    3  A    between atoms: C_14  and  C_16
REMARK    4  A    between atoms: C_14  and  N_26
REMARK    5  A    between atoms: N_21  and  C_22
REMARK    6  A    between atoms: C_22  and  C_23
REMARK    7  A    between atoms: C_22  and  C_24
REMARK    8  A    between atoms: C_22  and  C_25
REMARK    9  A    between atoms: N_26  and  C_27
REMARK   10  A    between atoms: N_26  and  C_34
REMARK   11  A    between atoms: C_27  and  C_28
REMARK   12  A    between atoms: C_34  and  C_35
REMARK                            x       y       z     vdW  Elec       q    Type
REMARK                         _______ _______ _______ _____ _____    ______ ____
ROOT
ATOM      1  C   UNL     1      -1.540  -5.787   1.217  0.00  0.00    -0.009 C 
ENDROOT
BRANCH   1   8
ATOM      2  C   UNL     1       4.473  -4.814  -3.154  0.00  0.00    +0.044 C 
ATOM      3  C   UNL     1       3.514  -4.991  -2.005  0.00  0.00    -0.049 A 
ATOM      4  C   UNL     1       3.876  -5.834  -0.954  0.00  0.00    +0.004 A 
ATOM      5  C   UNL     1       3.054  -6.033   0.108  0.00  0.00    +0.010 A 
ATOM      6  C   UNL     1       1.764  -5.344   0.141  0.00  0.00    -0.007 A 
ATOM      7  C   UNL     1       0.906  -5.514   1.188  0.00  0.00    -0.006 C 
ATOM      8  C   UNL     1      -0.408  -4.760   1.138  0.00  0.00    +0.088 C 
ATOM      9  C   UNL     1      -0.662  -3.883  -0.067  0.00  0.00    +0.223 C 
ATOM     10  O   UNL     1      -1.700  -3.256  -0.159  0.00  0.00    -0.275 OA
ATOM     11  N   UNL     1       0.250  -3.800  -1.022  0.00  0.00    -0.285 N 
ATOM     12  C   UNL     1       1.407  -4.460  -0.982  0.00  0.00    +0.041 A 
ATOM     13  C   UNL     1       2.333  -4.320  -2.032  0.00  0.00    +0.027 A 
ATOM     14  H   UNL     1       0.068  -3.232  -1.786  0.00  0.00    +0.155 HD
ENDBRANCH   1   8
BRANCH   1  15
ATOM     15  C   UNL     1      -1.492  -6.695  -0.013  0.00  0.00    +0.205 C 
ATOM     16  N   UNL     1      -0.152  -7.277  -0.168  0.00  0.00    -0.152 NA
ATOM     17  N   UNL     1       0.319  -6.911  -1.247  0.00  0.00    -0.070 NA
ATOM     18  N   UNL     1      -0.545  -6.083  -1.963  0.00  0.00    -0.179 N 
ATOM     19  N   UNL     1      -1.702  -5.907  -1.245  0.00  0.00    -0.183 NA
ATOM     20  H   UNL     1      -0.359  -5.692  -2.831  0.00  0.00    +0.191 HD
BRANCH  19  21
ATOM     21  C   UNL     1      -2.868  -6.399  -1.992  0.00  0.00    +0.035 C 
ATOM     22  C   UNL     1      -4.118  -6.287  -1.118  0.00  0.00    +0.029 C 
ATOM     23  C   UNL     1      -3.053  -5.561  -3.258  0.00  0.00    +0.029 C 
ATOM     24  C   UNL     1      -2.645  -7.863  -2.378  0.00  0.00    +0.029 C 
ENDBRANCH  19  21
ENDBRANCH   1  15
BRANCH   1  25
ATOM     25  N   UNL     1      -1.382  -6.597   2.432  0.00  0.00    +0.390 N 
ATOM     26  H   UNL     1      -0.480  -7.050   2.419  0.00  0.00    -0.080 HD
BRANCH  25  27
ATOM     27  C   UNL     1      -2.440  -7.615   2.482  0.00  0.00    -0.042 C 
BRANCH  27  28
ATOM     28  C   UNL     1      -2.163  -8.572   3.614  0.00  0.00    -0.064 A 
ATOM     29  C   UNL     1      -1.294  -9.630   3.428  0.00  0.00    +0.002 A 
ATOM     30  C   UNL     1      -1.041 -10.507   4.466  0.00  0.00    +0.000 A 
ATOM     31  C   UNL     1      -1.656 -10.325   5.690  0.00  0.00    +0.000 A 
ATOM     32  C   UNL     1      -2.525  -9.266   5.877  0.00  0.00    +0.000 A 
ATOM     33  C   UNL     1      -2.775  -8.386   4.840  0.00  0.00    +0.002 A 
ENDBRANCH  27  28
ENDBRANCH  25  27
BRANCH  25  34
ATOM     34  C   UNL     1      -1.479  -5.731   3.615  0.00  0.00    -0.035 C 
BRANCH  34  35
ATOM     35  C   UNL     1      -2.743  -4.915   3.537  0.00  0.00    -0.027 A 
ATOM     36  C   UNL     1      -3.961  -5.173   4.072  0.00  0.00    +0.009 A 
ATOM     37  C   UNL     1      -4.988  -4.270   3.870  0.00  0.00    +0.008 A 
ATOM     38  C   UNL     1      -4.746  -3.152   3.143  0.00  0.00    +0.045 A 
ATOM     39  S   UNL     1      -3.022  -3.351   2.722  0.00  0.00    -0.103 S 
ENDBRANCH  34  35
ENDBRANCH  25  34
ENDBRANCH   1  25
TORSDOF 8
