REMARK  Name = ZINC10154523
REMARK  9 active torsions:
REMARK  status: ('A' for Active; 'I' for Inactive)
REMARK    1  A    between atoms: C_1  and  S_2
REMARK    2  A    between atoms: S_2  and  C_3
REMARK    3  A    between atoms: C_6  and  C_12
REMARK    4  A    between atoms: C_8  and  N_9
REMARK    5  A    between atoms: C_12  and  C_14
REMARK    6  A    between atoms: C_19  and  C_20
REMARK    7  A    between atoms: C_20  and  O_22
REMARK    8  A    between atoms: O_22  and  C_23
REMARK    9  A    between atoms: C_23  and  C_24
REMARK                            x       y       z     vdW  Elec       q    Type
REMARK                         _______ _______ _______ _____ _____    ______ ____
ROOT
ATOM      1  C   UNL     1       3.252  -0.375  -6.136  0.00  0.00    +0.036 A 
ATOM      2  C   UNL     1       3.167   0.984  -5.843  0.00  0.00    +0.012 A 
ATOM      3  C   UNL     1       3.879   1.899  -6.594  0.00  0.00    +0.001 A 
ATOM      4  C   UNL     1       4.679   1.475  -7.641  0.00  0.00    +0.001 A 
ATOM      5  C   UNL     1       4.777   0.131  -7.947  0.00  0.00    +0.016 A 
ATOM      6  C   UNL     1       4.071  -0.807  -7.197  0.00  0.00    +0.070 A 
ENDROOT
BRANCH   1   7
ATOM      7  C   UNL     1       2.492  -1.359  -5.335  0.00  0.00    +0.194 C 
ATOM      8  O   UNL     1       2.886  -1.675  -4.229  0.00  0.00    -0.287 OA
BRANCH   7  12
ATOM      9  C   UNL     1      -1.053  -3.072  -6.894  0.00  0.00    +0.038 A 
ATOM     10  C   UNL     1      -0.296  -2.205  -7.680  0.00  0.00    +0.017 A 
ATOM     11  C   UNL     1       0.848  -1.651  -7.181  0.00  0.00    +0.013 A 
ATOM     12  C   UNL     1       1.259  -1.954  -5.877  0.00  0.00    +0.024 A 
ATOM     13  C   UNL     1       0.496  -2.825  -5.090  0.00  0.00    +0.045 A 
ATOM     14  C   UNL     1      -0.649  -3.372  -5.594  0.00  0.00    +0.140 A 
BRANCH  14  15
ATOM     15  N   UNL     1      -1.460  -4.287  -4.760  0.00  0.00    +0.058 N 
ATOM     16  O   UNL     1      -1.111  -4.547  -3.632  0.00  0.00    -0.126 OA
ATOM     17  O   UNL     1      -2.472  -4.775  -5.207  0.00  0.00    -0.126 OA
ENDBRANCH  14  15
BRANCH   9  19
ATOM     18  C   UNL     1      -2.636  -3.117  -9.225  0.00  0.00    +0.090 C 
ATOM     19  S   UNL     1      -2.528  -3.785  -7.542  0.00  0.00    -0.126 S 
ENDBRANCH   9  19
ENDBRANCH   7  12
ENDBRANCH   1   7
BRANCH   6  20
ATOM     20  C   UNL     1       4.177  -2.246  -7.517  0.00  0.00    +0.340 C 
ATOM     21  O   UNL     1       3.642  -3.068  -6.801  0.00  0.00    -0.245 OA
BRANCH  20  22
ATOM     22  O   UNL     1       4.867  -2.646  -8.602  0.00  0.00    -0.455 OA
BRANCH  22  23
ATOM     23  C   UNL     1       4.928  -4.052  -8.851  0.00  0.00    +0.285 C 
BRANCH  23  24
ATOM     24  C   UNL     1       5.735  -4.307 -10.097  0.00  0.00    +0.061 A 
ATOM     25  C   UNL     1       6.287  -3.259 -10.803  0.00  0.00    +0.095 A 
ATOM     26  C   UNL     1       7.032  -3.515 -11.954  0.00  0.00    +0.259 A 
ATOM     27  O   UNL     1       7.524  -2.591 -12.582  0.00  0.00    -0.267 OA
ATOM     28  N   UNL     1       7.211  -4.802 -12.378  0.00  0.00    -0.263 N 
ATOM     29  C   UNL     1       7.915  -5.213 -13.485  0.00  0.00    +0.104 A 
ATOM     30  C   UNL     1       8.018  -6.505 -13.794  0.00  0.00    +0.067 A 
ATOM     31  S   UNL     1       7.083  -7.271 -12.479  0.00  0.00    -0.059 S 
ATOM     32  C   UNL     1       6.629  -5.782 -11.618  0.00  0.00    +0.158 A 
ATOM     33  N   UNL     1       5.933  -5.548 -10.534  0.00  0.00    -0.336 N 
ATOM     34  H   UNL     1       5.552  -6.293 -10.042  0.00  0.00    +0.168 HD
ENDBRANCH  23  24
ENDBRANCH  22  23
ENDBRANCH  20  22
ENDBRANCH   6  20
TORSDOF 8
